@<TRIPOS>MOLECULE
3R540
247   249    1
SMALL
USER_CHARGES


@<TRIPOS>ATOM
      1 CA          2.9716  -12.8859  -45.6959 C.3       0 UNK        -0.1800 
      2 C           2.9855  -12.6947  -47.2121 C.2       0 UNK         0.5000 
      3 O           3.9974  -12.2574  -47.7551 O.2       0 UNK        -0.5000 
      4 N           1.9032  -13.0092  -47.9383 N.am      1 UNK        -0.5000 
      5 CA          0.6113  -13.4985  -47.4366 C.3       1 UNK         0.1400 
      6 C6         -0.2301  -14.1770  -48.5463 C.3       23 UNK        -0.0398 
      7 S7          0.6369  -15.5578  -49.3665 S.3       23 UNK        -0.2404 
      8 C8         -0.2409  -16.9936  -48.6781 C.3       23 UNK        -0.0205 
      9 C9          0.2396  -18.2875  -49.3159 C.ar      23 UNK        -0.0193 
     10 C10        -0.5364  -18.9343  -50.2810 C.ar      23 UNK        -0.1150 
     11 C11        -0.0925  -20.1202  -50.8755 C.ar      23 UNK        -0.0193 
     12 C12         1.1229  -20.6797  -50.4663 C.ar      23 UNK        -0.1150 
     13 C13         1.8967  -20.0522  -49.4852 C.ar      23 UNK        -0.0193 
     14 C14         1.4553  -18.8506  -48.9258 C.ar      23 UNK        -0.1150 
     15 C15         3.2230  -20.6453  -49.0384 C.3       23 UNK        -0.0205 
     16 S16         3.1676  -21.2131  -47.3085 S.3       23 UNK        -0.2404 
     17 C17         2.5704  -22.9280  -47.4537 C.3       23 UNK        -0.0398 
     18 CA          1.2446  -23.2525  -46.7203 C.3       11 UNK         0.1400 
     19 N           1.1825  -22.8114  -45.3207 N.am      11 UNK        -0.5000 
     20 C           0.3504  -23.3633  -44.4225 C.2       10 UNK         0.5000 
     21 O          -0.4171  -24.2893  -44.6887 O.2       10 UNK        -0.5000 
     22 CA          0.3357  -22.7709  -43.0024 C.3       10 UNK         0.1400 
     23 CB          1.6118  -23.1410  -42.2316 C.3       10 UNK        -0.1800 
     24 N           0.1458  -21.3222  -42.9924 N.am      10 UNK        -0.5000 
     25 C          -0.9411  -20.6929  -43.4626 C.2       9 UNK         0.5000 
     26 O          -1.9203  -21.2738  -43.9293 O.2       9 UNK        -0.5000 
     27 CA         -0.9165  -19.1529  -43.4493 C.3       9 UNK         0.1400 
     28 CB         -1.3914  -18.6097  -42.0940 C.3       9 UNK        -0.1800 
     29 N           0.4011  -18.6013  -43.7633 N.am      9 UNK        -0.5000 
     30 C           1.0558  -18.8050  -44.9146 C.2       8 UNK         0.5000 
     31 O           0.5983  -19.4568  -45.8507 O.2       8 UNK        -0.5000 
     32 CA          2.4738  -18.2212  -45.0134 C.3       8 UNK         0.1400 
     33 CB          2.4345  -16.7250  -45.3560 C.3       8 UNK        -0.1800 
     34 N           3.2282  -18.4277  -43.7778 N.am      8 UNK        -0.5000 
     35 C           3.6981  -19.6159  -43.3703 C.2       7 UNK         0.5000 
     36 O           3.5782  -20.6601  -44.0095 O.2       7 UNK        -0.5000 
     37 CA          4.3889  -19.6479  -41.9951 C.3       7 UNK         0.1400 
     38 CB          5.8560  -19.2084  -42.1131 C.3       7 UNK        -0.1800 
     39 N           3.7094  -18.8110  -41.0058 N.am      7 UNK        -0.5000 
     40 C           2.4804  -19.0522  -40.5286 C.2       6 UNK         0.5000 
     41 O           1.7991  -20.0252  -40.8507 O.2       6 UNK        -0.5000 
     42 CA          1.8995  -18.0040  -39.5618 C.3       6 UNK         0.1400 
     43 CB          2.3367  -18.2999  -38.1195 C.3       6 UNK        -0.1800 
     44 N           2.2554  -16.6230  -39.9048 N.am      6 UNK        -0.5000 
     45 C           1.9261  -16.0147  -41.0517 C.2       5 UNK         0.5000 
     46 O           1.3577  -16.5793  -41.9886 O.2       5 UNK        -0.5000 
     47 CA          2.3315  -14.5375  -41.1953 C.3       5 UNK         0.1400 
     48 CB          3.6362  -14.4181  -41.9985 C.3       5 UNK        -0.1800 
     49 N           1.2906  -13.7606  -41.8669 N.am      5 UNK        -0.5000 
     50 C           0.0673  -13.5225  -41.3726 C.2       4 UNK         0.5000 
     51 O          -0.2979  -13.8818  -40.2511 O.2       4 UNK        -0.5000 
     52 CA         -0.8944  -12.7423  -42.2943 C.3       4 UNK         0.1400 
     53 CB         -2.1445  -12.2118  -41.5615 C.3       4 UNK        -0.1800 
     54 N          -0.2301  -11.6652  -43.0381 N.am      4 UNK        -0.5000 
     55 C           0.4040  -10.5945  -42.5294 C.2       3 UNK         0.5000 
     56 O           0.5093  -10.3703  -41.3231 O.2       3 UNK        -0.5000 
     57 CA          1.0480   -9.6057  -43.5259 C.3       3 UNK         0.1400 
     58 CB          2.5815   -9.6715  -43.4350 C.3       3 UNK        -0.1800 
     59 N           0.6472   -9.8291  -44.9170 N.am      3 UNK        -0.5000 
     60 C          -0.5478   -9.5085  -45.4313 C.2       2 UNK         0.5000 
     61 O          -1.4284   -8.9219  -44.8018 O.2       2 UNK        -0.5000 
     62 CA         -0.8137   -9.9428  -46.8859 C.3       2 UNK         0.1400 
     63 CB         -0.4988   -8.7927  -47.8545 C.3       2 UNK        -0.1800 
     64 N          -0.0695  -11.1369  -47.3051 N.am      2 UNK        -0.5000 
     65 C          -0.2105  -12.3664  -46.7854 C.2       1 UNK         0.5000 
     66 O          -0.9224  -12.6184  -45.8138 O.2       1 UNK        -0.5000 
     67 C          -0.0136  -22.8679  -47.5230 C.2       11 UNK         0.5000 
     68 O          -0.4292  -23.6577  -48.3711 O.2       11 UNK        -0.5000 
     69 N          -0.6472  -21.7284  -47.2029 N.am      12 UNK        -0.5000 
     70 CA         -1.9444  -21.3322  -47.7567 C.3       12 UNK         0.1400 
     71 CB         -2.3368  -19.9334  -47.2591 C.3       12 UNK        -0.1800 
     72 C          -3.0560  -22.3402  -47.4211 C.2       12 UNK         0.5000 
     73 O          -3.7962  -22.7443  -48.3184 O.2       12 UNK        -0.5000 
     74 N          -3.1310  -22.7484  -46.1465 N.am      13 UNK        -0.5000 
     75 CA         -4.0757  -23.7464  -45.6496 C.3       13 UNK         0.1400 
     76 CB         -4.0378  -23.7781  -44.1143 C.3       13 UNK        -0.1800 
     77 C          -3.8172  -25.1457  -46.2322 C.2       13 UNK         0.5000 
     78 O          -4.7674  -25.8048  -46.6543 O.2       13 UNK        -0.5000 
     79 N          -2.5423  -25.5605  -46.2747 N.am      14 UNK        -0.5000 
     80 CA         -2.1084  -26.8519  -46.8136 C.3       14 UNK         0.1400 
     81 CB         -0.6178  -27.0643  -46.5121 C.3       14 UNK        -0.1800 
     82 C          -2.3807  -27.0019  -48.3215 C.2       14 UNK         0.5000 
     83 O          -2.8062  -28.0723  -48.7573 O.2       14 UNK        -0.5000 
     84 N          -2.1539  -25.9250  -49.0856 N.am      15 UNK        -0.5000 
     85 CA         -2.4183  -25.8661  -50.5232 C.3       15 UNK         0.1400 
     86 CB         -1.5681  -24.7419  -51.1386 C.3       15 UNK        -0.1800 
     87 C          -3.9036  -25.6403  -50.8627 C.2       15 UNK         0.5000 
     88 O          -4.2692  -25.7820  -52.0290 O.2       15 UNK        -0.5000 
     89 N          -4.7150  -25.2280  -49.8758 N.am      16 UNK        -0.5000 
     90 CA         -6.0964  -24.7449  -50.0092 C.3       16 UNK         0.1400 
     91 CB         -7.0462  -25.8895  -50.4167 C.3       16 UNK        -0.1800 
     92 C          -6.1668  -23.5276  -50.9558 C.2       16 UNK         0.5000 
     93 O          -6.9242  -23.5243  -51.9291 O.2       16 UNK        -0.5000 
     94 N          -5.2776  -22.5562  -50.6980 N.am      17 UNK        -0.5000 
     95 CA         -4.9811  -21.3664  -51.5060 C.3       17 UNK         0.1400 
     96 CB         -6.1850  -20.4034  -51.5193 C.3       17 UNK        -0.1800 
     97 C          -4.4716  -21.6911  -52.9304 C.2       17 UNK         0.5000 
     98 O          -4.5416  -20.8332  -53.8111 O.2       17 UNK        -0.5000 
     99 N          -4.0026  -22.9315  -53.1403 N.am      18 UNK        -0.5000 
    100 CA        -3.6563  -23.5503  -54.4242 C.3       18 UNK         0.1400 
    101 CB        -2.4011  -22.8951  -55.0325 C.3       18 UNK        -0.1800 
    102 C         -4.8617  -23.5916  -55.3867 C.2       18 UNK         0.5000 
    103 O         -4.7074  -23.3282  -56.5782 O.2       18 UNK        -0.5000 
    104 N         -6.0537  -23.8710  -54.8335 N.am      19 UNK        -0.5000 
    105 CA        -7.3670  -23.7872  -55.4852 C.3       19 UNK         0.1400 
    106 CB        -7.5021  -24.8281  -56.6165 C.3       19 UNK        -0.1800 
    107 C         -7.6940  -22.3451  -55.9320 C.2       19 UNK         0.5000 
    108 O         -8.2144  -22.1298  -57.0277 O.2       19 UNK        -0.5000 
    109 N         -7.3521  -21.3877  -55.0573 N.am      20 UNK        -0.5000 
    110 CA        -7.4645  -19.9332  -55.2106 C.3       20 UNK         0.1400 
    111 CB        -8.9363  -19.5023  -55.3819 C.3       20 UNK        -0.1800 
    112 C         -6.5307  -19.3347  -56.2861 C.2       20 UNK         0.5000 
    113 O         -6.7913  -18.2298  -56.7659 O.2       20 UNK        -0.5000 
    114 N         -5.4505  -20.0478  -56.6364 N.am      21 UNK        -0.5000 
    115 CA        -4.4091  -19.5612  -57.5422 C.3       21 UNK         0.1400 
    116 CB        -3.6901  -20.7462  -58.2020 C.3       21 UNK        -0.1800 
    117 C         -3.3998  -18.6372  -56.8356 C.2       21 UNK         0.5000 
    118 O         -2.8353  -17.7625  -57.4949 O.2       21 UNK        -0.5000 
    119 N         -3.1883  -18.8266  -55.5246 N.am      22 UNK        -0.5000 
    120 CA        -2.3765  -17.9246  -54.6934 C.3       22 UNK         0.1400 
    121 C         -3.1189  -16.5863  -54.4248 C.2       22 UNK         0.5000 
    122 N         -2.4332  -15.4557  -54.5246 N.am      22 UNK        -0.7600 
    123 O         -4.2995  -16.5675  -54.0839 O.2       22 UNK        -0.5000 
    124 C124       -1.9476  -18.5722  -53.3535 C.3       23 UNK        -0.0398 
    125 S125       -0.8260  -19.9968  -53.5652 S.3       23 UNK        -0.2404 
    126 C126       -0.9365  -20.8119  -51.9371 C.3       23 UNK        -0.0205 
    127 H127        3.9023  -12.5251  -45.2573 H         1 UNK         0.0600 
    128 H128        2.8764  -13.9401  -45.4447 H         1 UNK         0.0600 
    129 H129        2.1538  -12.3424  -45.2283 H         1 UNK         0.0600 
    130 H130        1.9612  -12.9166  -48.9425 H         1 UNK         0.3000 
    131 H131        0.8011  -14.2483  -46.6664 H         1 UNK         0.0600 
    132 H132       -1.1756  -14.5404  -48.1390 H         1 UNK         0.0800 
    133 H133       -0.4969  -13.4538  -49.3193 H         1 UNK         0.0800 
    134 H134       -1.3141  -16.8735  -48.8340 H         1 UNK         0.0800 
    135 H135       -0.0874  -17.0373  -47.5990 H         1 UNK         0.0800 
    136 H136       -1.4878  -18.5116  -50.5669 H         1 UNK         0.1150 
    137 H137        1.4651  -21.6039  -50.9101 H         1 UNK         0.1150 
    138 H138        2.0541  -18.3592  -48.1727 H         1 UNK         0.1150 
    139 H139        3.5372  -21.4583  -49.6943 H         1 UNK         0.0800 
    140 H140        3.9920  -19.8764  -49.1235 H         1 UNK         0.0800 
    141 H141        2.5023  -23.2119  -48.5052 H         1 UNK         0.0800 
    142 H142        3.3569  -23.5607  -47.0407 H         1 UNK         0.0800 
    143 H143        1.2206  -24.3434  -46.6851 H         1 UNK         0.0600 
    144 H144        1.7730  -22.0318  -45.0578 H         1 UNK         0.3000 
    145 H145       -0.5113  -23.2130  -42.4734 H         1 UNK         0.0600 
    146 H146        1.5565  -22.8064  -41.1956 H         1 UNK         0.0600 
    147 H147        2.5003  -22.6961  -42.6788 H         1 UNK         0.0600 
    148 H148        1.7583  -24.2217  -42.2161 H         1 UNK         0.0600 
    149 H149        0.8840  -20.7685  -42.5724 H         1 UNK         0.3000 
    150 H150       -1.6093  -18.8024  -44.2164 H         1 UNK         0.0600 
    151 H151       -2.3989  -18.9593  -41.8658 H         1 UNK         0.0600 
    152 H152       -1.4150  -17.5197  -42.0907 H         1 UNK         0.0600 
    153 H153       -0.7403  -18.9332  -41.2822 H         1 UNK         0.0600 
    154 H154        0.8277  -18.0059  -43.0573 H         1 UNK         0.3000 
    155 H155        2.9967  -18.7330  -45.8221 H         1 UNK         0.0600 
    156 H156        1.9375  -16.5579  -46.3118 H         1 UNK         0.0600 
    157 H157        3.4419  -16.3178  -45.4409 H         1 UNK         0.0600 
    158 H158        1.8984  -16.1481  -44.6019 H         1 UNK         0.0600 
    159 H159        3.3135  -17.6349  -43.1598 H         1 UNK         0.3000 
    160 H160        4.3690  -20.6797  -41.6372 H         1 UNK         0.0600 
    161 H161        5.9426  -18.1718  -42.4413 H         1 UNK         0.0600 
    162 H162        6.3910  -19.8271  -42.8349 H         1 UNK         0.0600 
    163 H163        6.3740  -19.3033  -41.1586 H         1 UNK         0.0600 
    164 H164        4.1977  -17.9876  -40.6864 H         1 UNK         0.3000 
    165 H165        0.8117  -18.0834  -39.6079 H         1 UNK         0.0600 
    166 H166        1.8529  -17.6242  -37.4139 H         1 UNK         0.0600 
    167 H167        2.0664  -19.3165  -37.8305 H         1 UNK         0.0600 
    168 H168        3.4158  -18.1994  -37.9960 H         1 UNK         0.0600 
    169 H169        2.7327  -16.0934  -39.1895 H         1 UNK         0.3000 
    170 H170        2.4879  -14.1106  -40.2025 H         1 UNK         0.0600 
    171 H171        3.5299  -14.8235  -43.0054 H         1 UNK         0.0600 
    172 H172        3.9505  -13.3780  -42.0883 H         1 UNK         0.0600 
    173 H173        4.4473  -14.9603  -41.5107 H         1 UNK         0.0600 
    174 H174        1.4975  -13.4415  -42.8000 H         1 UNK         0.3000 
    175 H175       -1.2368  -13.4588  -43.0424 H         1 UNK         0.0600 
    176 H176       -1.8827  -11.5275  -40.7541 H         1 UNK         0.0600 
    177 H177       -2.8073  -11.6839  -42.2471 H         1 UNK         0.0600 
    178 H178       -2.7173  -13.0300  -41.1235 H         1 UNK         0.0600 
    179 H179       -0.2923  -11.7505  -44.0463 H         1 UNK         0.3000 
    180 H180        0.7346   -8.6009  -43.2347 H         1 UNK         0.0600 
    181 H181        2.9608  -10.6660  -43.6692 H         1 UNK         0.0600 
    182 H182        2.9227   -9.4233  -42.4291 H         1 UNK         0.0600 
    183 H183        3.0498   -8.9622  -44.1177 H         1 UNK         0.0600 
    184 H184        1.3185  -10.2808  -45.5188 H         1 UNK         0.3000 
    185 H185       -1.8783  -10.1729  -46.9647 H         1 UNK         0.0600 
    186 H186        0.5615   -8.5370  -47.8444 H         1 UNK         0.0600 
    187 H187       -0.7729   -9.0514  -48.8774 H         1 UNK         0.0600 
    188 H188       -1.0560   -7.8933  -47.5887 H         1 UNK         0.0600 
    189 H189        0.5628  -11.0188  -48.0840 H         1 UNK         0.3000 
    190 H190       -0.2130  -21.0848  -46.5467 H         1 UNK         0.3000 
    191 H191       -1.8412  -21.2944  -48.8424 H         1 UNK         0.0600 
    192 H192       -1.5520  -19.2072  -47.4536 H         1 UNK         0.0600 
    193 H193       -2.5326  -19.9236  -46.1876 H         1 UNK         0.0600 
    194 H194       -3.2390  -19.5816  -47.7605 H         1 UNK         0.0600 
    195 H195       -2.5070  -22.3349  -45.4589 H         1 UNK         0.3000 
    196 H196       -5.0777  -23.4392  -45.9563 H         1 UNK         0.0600 
    197 H197       -4.3145  -22.8108  -43.6948 H         1 UNK         0.0600 
    198 H198       -3.0452  -24.0315  -43.7403 H         1 UNK         0.0600 
    199 H199       -4.7375  -24.5161  -43.7200 H         1 UNK         0.0600 
    200 H200       -1.8217  -24.9724  -45.8650 H         1 UNK         0.3000 
    201 H201       -2.6719  -27.6311  -46.2963 H         1 UNK         0.0600 
    202 H202       -0.4187  -27.0115  -45.4416 H         1 UNK         0.0600 
    203 H203        0.0009  -26.3164  -47.0073 H         1 UNK         0.0600 
    204 H204       -0.2859  -28.0444  -46.8568 H         1 UNK         0.0600 
    205 H205       -1.7470  -25.0930  -48.6666 H         1 UNK         0.3000 
    206 H206       -2.1145  -26.8109  -50.9788 H         1 UNK         0.0600 
    207 H207       -0.5084  -24.8887  -50.9291 H         1 UNK         0.0600 
    208 H208       -1.8532  -23.7639  -50.7482 H         1 UNK         0.0600 
    209 H209       -1.6797  -24.7099  -52.2229 H         1 UNK         0.0600 
    210 H210       -4.3097  -25.1232  -48.9548 H         1 UNK         0.3000 
    211 H211       -6.4006  -24.3928  -49.0224 H         1 UNK         0.0600 
    212 H212       -6.8264  -26.2689  -51.4150 H         1 UNK         0.0600 
    213 H213       -8.0831  -25.5515  -50.4180 H         1 UNK         0.0600 
    214 H214       -6.9768  -26.7237  -49.7185 H         1 UNK         0.0600 
    215 H215       -4.7029  -22.6652  -49.8618 H         1 UNK         0.3000 
    216 H216       -4.1657  -20.8543  -50.9960 H         1 UNK         0.0600 
    217 H217       -5.9294  -19.4611  -52.0057 H         1 UNK         0.0600 
    218 H218       -6.5054  -20.1638  -50.5054 H         1 UNK         0.0600 
    219 H219       -7.0399  -20.8254  -52.0474 H         1 UNK         0.0600 
    220 H220       -4.0373  -23.5770  -52.3634 H         1 UNK         0.3000 
    221 H221       -3.4066  -24.5910  -54.2169 H         1 UNK         0.0600 
    222 H222       -2.5646  -21.8443  -55.2681 H         1 UNK         0.0600 
    223 H223       -1.5579  -22.9548  -54.3448 H         1 UNK         0.0600 
    224 H224       -2.1018  -23.3959  -55.9537 H         1 UNK         0.0600 
    225 H225       -6.0861  -24.0403  -53.8339 H         1 UNK         0.3000 
    226 H226       -8.1013  -24.0405  -54.7190 H         1 UNK         0.0600 
    227 H227       -7.2592  -25.8295  -56.2613 H         1 UNK         0.0600 
    228 H228       -8.5239  -24.8579  -56.9964 H         1 UNK         0.0600 
    229 H229       -6.8492  -24.6031  -57.4600 H         1 UNK         0.0600 
    230 H230       -6.9011  -21.6897  -54.2056 H         1 UNK         0.3000 
    231 H231       -7.1168  -19.5120  -54.2669 H         1 UNK         0.0600 
    232 H232       -9.0370  -18.4185  -55.3156 H         1 UNK         0.0600 
    233 H233       -9.5665  -19.9320  -54.6032 H         1 UNK         0.0600 
    234 H234       -9.3392  -19.8071  -56.3479 H         1 UNK         0.0600 
    235 H235       -5.2896  -20.9404  -56.1893 H         1 UNK         0.3000 
    236 H236       -4.8822  -18.9835  -58.3393 H         1 UNK         0.0600 
    237 H237       -3.1319  -21.3362  -57.4766 H         1 UNK         0.0600 
    238 H238       -4.3963  -21.4087  -58.7028 H         1 UNK         0.0600 
    239 H239       -2.9797  -20.3993  -58.9532 H         1 UNK         0.0600 
    240 H240       -3.7066  -19.5474  -55.0311 H         1 UNK         0.3000 
    241 H241       -1.4644  -17.6961  -55.2488 H         1 UNK         0.0600 
    242 H242       -2.9011  -14.5822  -54.3383 H         1 UNK         0.3800 
    243 H243       -1.4630  -15.4467  -54.7995 H         1 UNK         0.3800 
    244 H244       -2.8247  -18.8785  -52.7812 H         1 UNK         0.0800 
    245 H245       -1.4183  -17.8360  -52.7470 H         1 UNK         0.0800 
    246 H246       -0.6172  -21.8489  -52.0512 H         1 UNK         0.0800 
    247 H247       -1.9719  -20.8539  -51.6084 H         1 UNK         0.0800 
@<TRIPOS>BOND
     1    1    2 1    
     2    1  127 1    
     3    1  128 1    
     4    1  129 1    
     5    2    3 2    
     6    2    4 am   BACKBONE|DICT|INTERRES
     7    4    5 1    
     8    4  130 1    
     9    5    6 1    
    10    5   65 1    
    11    5  131 1    
    12    6    7 1    
    13    6  132 1    
    14    6  133 1    
    15    7    8 1    
    16    8    9 1    
    17    8  134 1    
    18    8  135 1    
    19    9   10 ar   
    20    9   14 ar   
    21   10   11 ar   
    22   10  136 1    
    23   11   12 ar   
    24   11  126 1    
    25   12   13 ar   
    26   12  137 1    
    27   13   14 ar   
    28   13   15 1    
    29   14  138 1    
    30   15   16 1    
    31   15  139 1    
    32   15  140 1    
    33   16   17 1    
    34   17   18 1    
    35   17  141 1    
    36   17  142 1    
    37   18   19 1    
    38   18   67 1    
    39   18  143 1    
    40   19   20 am   BACKBONE|DICT|INTERRES
    41   19  144 1    
    42   20   21 2    
    43   20   22 1    
    44   22   23 1    
    45   22   24 1    
    46   22  145 1    
    47   23  146 1    
    48   23  147 1    
    49   23  148 1    
    50   24   25 am   BACKBONE|DICT|INTERRES
    51   24  149 1    
    52   25   26 2    
    53   25   27 1    
    54   27   28 1    
    55   27   29 1    
    56   27  150 1    
    57   28  151 1    
    58   28  152 1    
    59   28  153 1    
    60   29   30 am   BACKBONE|DICT|INTERRES
    61   29  154 1    
    62   30   31 2    
    63   30   32 1    
    64   32   33 1    
    65   32   34 1    
    66   32  155 1    
    67   33  156 1    
    68   33  157 1    
    69   33  158 1    
    70   34   35 am   BACKBONE|DICT|INTERRES
    71   34  159 1    
    72   35   36 2    
    73   35   37 1    
    74   37   38 1    
    75   37   39 1    
    76   37  160 1    
    77   38  161 1    
    78   38  162 1    
    79   38  163 1    
    80   39   40 am   BACKBONE|DICT|INTERRES
    81   39  164 1    
    82   40   41 2    
    83   40   42 1    
    84   42   43 1    
    85   42   44 1    
    86   42  165 1    
    87   43  166 1    
    88   43  167 1    
    89   43  168 1    
    90   44   45 am   BACKBONE|DICT|INTERRES
    91   44  169 1    
    92   45   46 2    
    93   45   47 1    
    94   47   48 1    
    95   47   49 1    
    96   47  170 1    
    97   48  171 1    
    98   48  172 1    
    99   48  173 1    
   100   49   50 am   BACKBONE|DICT|INTERRES
   101   49  174 1    
   102   50   51 2    
   103   50   52 1    
   104   52   53 1    
   105   52   54 1    
   106   52  175 1    
   107   53  176 1    
   108   53  177 1    
   109   53  178 1    
   110   54   55 am   BACKBONE|DICT|INTERRES
   111   54  179 1    
   112   55   56 2    
   113   55   57 1    
   114   57   58 1    
   115   57   59 1    
   116   57  180 1    
   117   58  181 1    
   118   58  182 1    
   119   58  183 1    
   120   59   60 am   BACKBONE|DICT|INTERRES
   121   59  184 1    
   122   60   61 2    
   123   60   62 1    
   124   62   63 1    
   125   62   64 1    
   126   62  185 1    
   127   63  186 1    
   128   63  187 1    
   129   63  188 1    
   130   64   65 am   BACKBONE|DICT|INTERRES
   131   64  189 1    
   132   65   66 2    
   133   67   68 2    
   134   67   69 am   BACKBONE|DICT|INTERRES
   135   69   70 1    
   136   69  190 1    
   137   70   71 1    
   138   70   72 1    
   139   70  191 1    
   140   71  192 1    
   141   71  193 1    
   142   71  194 1    
   143   72   73 2    
   144   72   74 am   BACKBONE|DICT|INTERRES
   145   74   75 1    
   146   74  195 1    
   147   75   76 1    
   148   75   77 1    
   149   75  196 1    
   150   76  197 1    
   151   76  198 1    
   152   76  199 1    
   153   77   78 2    
   154   77   79 am   BACKBONE|DICT|INTERRES
   155   79   80 1    
   156   79  200 1    
   157   80   81 1    
   158   80   82 1    
   159   80  201 1    
   160   81  202 1    
   161   81  203 1    
   162   81  204 1    
   163   82   83 2    
   164   82   84 am   BACKBONE|DICT|INTERRES
   165   84   85 1    
   166   84  205 1    
   167   85   86 1    
   168   85   87 1    
   169   85  206 1    
   170   86  207 1    
   171   86  208 1    
   172   86  209 1    
   173   87   88 2    
   174   87   89 am   BACKBONE|DICT|INTERRES
   175   89   90 1    
   176   89  210 1    
   177   90   91 1    
   178   90   92 1    
   179   90  211 1    
   180   91  212 1    
   181   91  213 1    
   182   91  214 1    
   183   92   93 2    
   184   92   94 am   BACKBONE|DICT|INTERRES
   185   94   95 1    
   186   94  215 1    
   187   95   96 1    
   188   95   97 1    
   189   95  216 1    
   190   96  217 1    
   191   96  218 1    
   192   96  219 1    
   193   97   98 2    
   194   97   99 am   BACKBONE|DICT|INTERRES
   195   99  100 1    
   196   99  220 1    
   197  100  101 1    
   198  100  102 1    
   199  100  221 1    
   200  101  222 1    
   201  101  223 1    
   202  101  224 1    
   203  102  103 2    
   204  102  104 am   BACKBONE|DICT|INTERRES
   205  104  105 1    
   206  104  225 1    
   207  105  106 1    
   208  105  107 1    
   209  105  226 1    
   210  106  227 1    
   211  106  228 1    
   212  106  229 1    
   213  107  108 2    
   214  107  109 am   BACKBONE|DICT|INTERRES
   215  109  110 1    
   216  109  230 1    
   217  110  111 1    
   218  110  112 1    
   219  110  231 1    
   220  111  232 1    
   221  111  233 1    
   222  111  234 1    
   223  112  113 2    
   224  112  114 am   BACKBONE|DICT|INTERRES
   225  114  115 1    
   226  114  235 1    
   227  115  116 1    
   228  115  117 1    
   229  115  236 1    
   230  116  237 1    
   231  116  238 1    
   232  116  239 1    
   233  117  118 2    
   234  117  119 am   BACKBONE|DICT|INTERRES
   235  119  120 1    
   236  119  240 1    
   237  120  121 1    
   238  120  124 1    
   239  120  241 1    
   240  121  122 am   BACKBONE|DICT|INTERRES
   241  121  123 2    
   242  122  242 1    
   243  122  243 1    
   244  124  125 1    
   245  124  244 1    
   246  124  245 1    
   247  125  126 1    
   248  126  246 1    
   249  126  247 1    
@<TRIPOS>SUBSTRUCTURE
     1 UNK         1 GROUP             0       ****    0 ROOT    
