@<TRIPOS>MOLECULE
3R540
247   249    1
SMALL
USER_CHARGES


@<TRIPOS>ATOM
      1 CA          7.0617  -12.5105  -51.3181 C.3       0 UNK        -0.1800 
      2 C           5.8025  -12.7945  -50.5113 C.2       0 UNK         0.5000 
      3 O           4.7259  -12.9339  -51.0925 O.2       0 UNK        -0.5000 
      4 N           5.9423  -12.8936  -49.1819 N.am      1 UNK        -0.5000 
      5 CA          4.8692  -13.1260  -48.2031 C.3       1 UNK         0.1400 
      6 C6          4.1812  -14.5184  -48.3484 C.3       23 UNK        -0.0398 
      7 S7          5.3458  -15.9247  -48.2639 S.3       23 UNK        -0.2404 
      8 C8          5.4468  -16.4837  -49.9959 C.3       23 UNK        -0.0205 
      9 C9          4.2227  -17.2745  -50.4366 C.ar      23 UNK        -0.0193 
     10 C10         3.1446  -16.6250  -51.0415 C.ar      23 UNK        -0.1150 
     11 C11         2.0310  -17.3457  -51.4786 C.ar      23 UNK        -0.0193 
     12 C12         2.0052  -18.7359  -51.3289 C.ar      23 UNK        -0.1150 
     13 C13         3.0924  -19.4025  -50.7531 C.ar      23 UNK        -0.0193 
     14 C14         4.1894  -18.6647  -50.2946 C.ar      23 UNK        -0.1150 
     15 C15         3.1212  -20.9220  -50.6789 C.3       23 UNK        -0.0205 
     16 S16         2.7266  -21.5383  -49.0152 S.3       23 UNK        -0.2404 
     17 C17         0.9040  -21.5586  -49.0438 C.3       23 UNK        -0.0398 
     18 CA          0.3418  -22.6308  -48.0802 C.3       11 UNK         0.1400 
     19 N           0.5576  -22.2989  -46.6673 N.am      11 UNK        -0.5000 
     20 C           0.3251  -23.1350  -45.6454 C.2       10 UNK         0.5000 
     21 O          -0.0367  -24.3017  -45.7898 O.2       10 UNK        -0.5000 
     22 CA          0.4617  -22.5656  -44.2218 C.3       10 UNK         0.1400 
     23 CB          1.9269  -22.5662  -43.7617 C.3       10 UNK        -0.1800 
     24 N          -0.1052  -21.2221  -44.1007 N.am      10 UNK        -0.5000 
     25 C          -1.4065  -20.9357  -44.2518 C.2       9 UNK         0.5000 
     26 O          -2.2723  -21.7905  -44.4384 O.2       9 UNK        -0.5000 
     27 CA         -1.8032  -19.4465  -44.2451 C.3       9 UNK         0.1400 
     28 CB         -1.9454  -18.9196  -42.8100 C.3       9 UNK        -0.1800 
     29 N          -0.8602  -18.6093  -44.9879 N.am      9 UNK        -0.5000 
     30 C          -0.6251  -18.7167  -46.3040 C.2       8 UNK         0.5000 
     31 O          -1.2298  -19.4914  -47.0443 O.2       8 UNK        -0.5000 
     32 CA          0.5197  -17.8623  -46.8763 C.3       8 UNK         0.1400 
     33 CB          0.0401  -16.4428  -47.2027 C.3       8 UNK        -0.1800 
     34 N           1.6699  -17.8042  -45.9725 N.am      8 UNK        -0.5000 
     35 C           2.4404  -18.8607  -45.6764 C.2       7 UNK         0.5000 
     36 O           2.2656  -19.9820  -46.1471 O.2       7 UNK        -0.5000 
     37 CA          3.5507  -18.6449  -44.6328 C.3       7 UNK         0.1400 
     38 CB          4.7643  -17.9443  -45.2587 C.3       7 UNK        -0.1800 
     39 N           3.0877  -17.8731  -43.4807 N.am      7 UNK        -0.5000 
     40 C           2.1612  -18.2915  -42.6069 C.2       6 UNK         0.5000 
     41 O           1.6438  -19.4066  -42.6408 O.2       6 UNK        -0.5000 
     42 CA          1.6998  -17.2709  -41.5494 C.3       6 UNK         0.1400 
     43 CB          2.5814  -17.3561  -40.2948 C.3       6 UNK        -0.1800 
     44 N           1.6980  -15.8937  -42.0514 N.am      6 UNK        -0.5000 
     45 C           0.9265  -15.4552  -43.0548 C.2       5 UNK         0.5000 
     46 O           0.1182  -16.1654  -43.6576 O.2       5 UNK        -0.5000 
     47 CA          1.1658  -14.0051  -43.5079 C.3       5 UNK         0.1400 
     48 CB          2.2635  -13.9728  -44.5836 C.3       5 UNK        -0.1800 
     49 N          -0.0520  -13.3790  -44.0277 N.am      5 UNK        -0.5000 
     50 C          -1.0957  -13.0273  -43.2598 C.2       4 UNK         0.5000 
     51 O          -1.1110  -13.1872  -42.0377 O.2       4 UNK        -0.5000 
     52 CA         -2.3129  -12.3605  -43.9350 C.3       4 UNK         0.1400 
     53 CB         -2.6772  -11.0407  -43.2319 C.3       4 UNK        -0.1800 
     54 N          -2.0873  -12.0728  -45.3512 N.am      4 UNK        -0.5000 
     55 C          -2.6204  -12.7482  -46.3771 C.2       3 UNK         0.5000 
     56 O          -3.3884  -13.7016  -46.2460 O.2       3 UNK        -0.5000 
     57 CA         -2.2247  -12.2785  -47.7943 C.3       3 UNK         0.1400 
     58 CB         -3.3104  -11.3568  -48.3708 C.3       3 UNK        -0.1800 
     59 N          -0.9305  -11.5867  -47.8687 N.am      3 UNK        -0.5000 
     60 C           0.2423  -12.1424  -47.5444 C.2       2 UNK         0.5000 
     61 O           0.3501  -13.2822  -47.0875 O.2       2 UNK        -0.5000 
     62 CA          1.4995  -11.2798  -47.7080 C.3       2 UNK         0.1400 
     63 CB          1.6377  -10.2853  -46.5397 C.3       2 UNK        -0.1800 
     64 N           2.6316  -12.1969  -47.7408 N.am      2 UNK        -0.5000 
     65 C           3.8687  -11.9389  -48.1726 C.2       1 UNK         0.5000 
     66 O           4.2366  -10.8124  -48.5182 O.2       1 UNK        -0.5000 
     67 C          -1.1401  -22.9329  -48.3813 C.2       11 UNK         0.5000 
     68 O          -1.4197  -23.9136  -49.0685 O.2       11 UNK        -0.5000 
     69 N          -2.0618  -22.1299  -47.8311 N.am      12 UNK        -0.5000 
     70 CA         -3.5074  -22.3498  -47.9171 C.3       12 UNK         0.1400 
     71 CB         -4.2514  -21.1450  -47.3225 C.3       12 UNK        -0.1800 
     72 C          -3.9480  -23.6648  -47.2475 C.2       12 UNK         0.5000 
     73 O          -4.7295  -24.4147  -47.8329 O.2       12 UNK        -0.5000 
     74 N          -3.4047  -23.9499  -46.0555 N.am      13 UNK        -0.5000 
     75 CA         -3.6228  -25.1987  -45.3234 C.3       13 UNK         0.1400 
     76 CB         -3.0037  -25.0959  -43.9218 C.3       13 UNK        -0.1800 
     77 C          -3.0877  -26.4304  -46.0781 C.2       13 UNK         0.5000 
     78 O          -3.8032  -27.4262  -46.1931 O.2       13 UNK        -0.5000 
     79 N          -1.8681  -26.3254  -46.6261 N.am      14 UNK        -0.5000 
     80 CA         -1.2298  -27.3489  -47.4604 C.3       14 UNK         0.1400 
     81 CB          0.2227  -26.9426  -47.7499 C.3       14 UNK        -0.1800 
     82 C          -1.9886  -27.6208  -48.7739 C.2       14 UNK         0.5000 
     83 O          -2.0163  -28.7616  -49.2359 O.2       14 UNK        -0.5000 
     84 N          -2.6330  -26.5818  -49.3201 N.am      15 UNK        -0.5000 
     85 CA         -3.5233  -26.6387  -50.4798 C.3       15 UNK         0.1400 
     86 CB         -3.5366  -25.2594  -51.1607 C.3       15 UNK        -0.1800 
     87 C          -4.9530  -27.1197  -50.1374 C.2       15 UNK         0.5000 
     88 O          -5.8363  -27.0144  -50.9881 O.2       15 UNK        -0.5000 
     89 N          -5.1642  -27.6380  -48.9174 N.am      16 UNK        -0.5000 
     90 CA         -6.4074  -28.2080  -48.3887 C.3       16 UNK         0.1400 
     91 CB         -6.8351  -29.4555  -49.1912 C.3       16 UNK        -0.1800 
     92 C          -7.5286  -27.1617  -48.2353 C.2       16 UNK         0.5000 
     93 O          -8.6797  -27.4259  -48.5866 O.2       16 UNK        -0.5000 
     94 N          -7.1562  -25.9908  -47.7000 N.am      17 UNK        -0.5000 
     95 CA         -7.9981  -24.8229  -47.4191 C.3       17 UNK         0.1400 
     96 CB         -9.1557  -25.1668  -46.4576 C.3       17 UNK        -0.1800 
     97 C          -8.4596  -24.0719  -48.6845 C.2       17 UNK         0.5000 
     98 O          -9.4276  -23.3107  -48.6258 O.2       17 UNK        -0.5000 
     99 N          -7.7370  -24.2593  -49.7967 N.am      18 UNK        -0.5000 
    100 CA        -7.8319  -23.4238  -50.9925 C.3       18 UNK         0.1400 
    101 CB        -7.2314  -24.1852  -52.1830 C.3       18 UNK        -0.1800 
    102 C         -7.1046  -22.0822  -50.7745 C.2       18 UNK         0.5000 
    103 O         -6.3518  -21.9340  -49.8100 O.2       18 UNK        -0.5000 
    104 N         -7.3331  -21.1253  -51.6822 N.am      19 UNK        -0.5000 
    105 CA        -6.7899  -19.7662  -51.5999 C.3       19 UNK         0.1400 
    106 CB        -7.4445  -18.8969  -52.6850 C.3       19 UNK        -0.1800 
    107 C         -5.2548  -19.6800  -51.7074 C.2       19 UNK         0.5000 
    108 O         -4.6755  -18.7363  -51.1720 O.2       19 UNK        -0.5000 
    109 N         -4.6308  -20.6357  -52.4161 N.am      20 UNK        -0.5000 
    110 CA        -3.1879  -20.7149  -52.6930 C.3       20 UNK         0.1400 
    111 CB        -2.4100  -21.1201  -51.4241 C.3       20 UNK        -0.1800 
    112 C         -2.6373  -19.4338  -53.3597 C.2       20 UNK         0.5000 
    113 O         -1.5662  -18.9478  -52.9962 O.2       20 UNK        -0.5000 
    114 N         -3.4206  -18.9005  -54.3078 N.am      21 UNK        -0.5000 
    115 CA        -3.2420  -17.6598  -55.0674 C.3       21 UNK         0.1400 
    116 CB        -1.9164  -17.6482  -55.8547 C.3       21 UNK        -0.1800 
    117 C         -3.4171  -16.3754  -54.2337 C.2       21 UNK         0.5000 
    118 O         -4.2377  -15.5348  -54.6048 O.2       21 UNK        -0.5000 
    119 N         -2.6431  -16.2257  -53.1527 N.am      22 UNK        -0.5000 
    120 CA        -2.5858  -15.0012  -52.3350 C.3       22 UNK         0.1400 
    121 C         -3.6243  -14.9022  -51.1820 C.2       22 UNK         0.5000 
    122 N         -4.3580  -15.9480  -50.8301 N.am      22 UNK        -0.7600 
    123 O         -3.7923  -13.8309  -50.6072 O.2       22 UNK        -0.5000 
    124 C124       -1.1453  -14.6798  -51.8612 C.3       23 UNK        -0.0398 
    125 S125       -0.3257  -16.0169  -50.9230 S.3       23 UNK        -0.2404 
    126 C126        0.8832  -16.6099  -52.1473 C.3       23 UNK        -0.0205 
    127 H127        7.9417  -12.4229  -50.6804 H         1 UNK         0.0600 
    128 H128        6.9494  -11.5789  -51.8727 H         1 UNK         0.0600 
    129 H129        7.2384  -13.3149  -52.0322 H         1 UNK         0.0600 
    130 H130        6.8573  -12.7490  -48.7795 H         1 UNK         0.3000 
    131 H131        5.3571  -13.1103  -47.2275 H         1 UNK         0.0600 
    132 H132        3.6004  -14.5616  -49.2670 H         1 UNK         0.0800 
    133 H133        3.4689  -14.6817  -47.5393 H         1 UNK         0.0800 
    134 H134        5.5998  -15.6310  -50.6562 H         1 UNK         0.0800 
    135 H135        6.3372  -17.1046  -50.1042 H         1 UNK         0.0800 
    136 H136        3.1736  -15.5548  -51.1888 H         1 UNK         0.1150 
    137 H137        1.1515  -19.2964  -51.6848 H         1 UNK         0.1150 
    138 H138        5.0299  -19.1779  -49.8486 H         1 UNK         0.1150 
    139 H139        2.4484  -21.3612  -51.4169 H         1 UNK         0.0800 
    140 H140        4.1203  -21.2701  -50.9455 H         1 UNK         0.0800 
    141 H141        0.5806  -21.7615  -50.0661 H         1 UNK         0.0800 
    142 H142        0.5297  -20.5655  -48.7941 H         1 UNK         0.0800 
    143 H143        0.8834  -23.5600  -48.2707 H         1 UNK         0.0600 
    144 H144        0.9316  -21.3748  -46.4701 H         1 UNK         0.3000 
    145 H145       -0.0974  -23.2205  -43.5505 H         1 UNK         0.0600 
    146 H146        2.3504  -23.5698  -43.8143 H         1 UNK         0.0600 
    147 H147        2.5472  -21.9168  -44.3785 H         1 UNK         0.0600 
    148 H148        2.0151  -22.2295  -42.7287 H         1 UNK         0.0600 
    149 H149        0.5432  -20.4714  -43.8852 H         1 UNK         0.3000 
    150 H150       -2.7755  -19.3598  -44.7340 H         1 UNK         0.0600 
    151 H151       -2.2512  -17.8732  -42.8015 H         1 UNK         0.0600 
    152 H152       -1.0107  -18.9997  -42.2561 H         1 UNK         0.0600 
    153 H153       -2.6997  -19.4853  -42.2618 H         1 UNK         0.0600 
    154 H154       -0.3580  -17.9010  -44.4609 H         1 UNK         0.3000 
    155 H155        0.8475  -18.3257  -47.8095 H         1 UNK         0.0600 
    156 H156       -0.8245  -16.4656  -47.8670 H         1 UNK         0.0600 
    157 H157        0.8201  -15.8745  -47.7094 H         1 UNK         0.0600 
    158 H158       -0.2525  -15.8935  -46.3076 H         1 UNK         0.0600 
    159 H159        1.8313  -16.9304  -45.4970 H         1 UNK         0.3000 
    160 H160        3.8695  -19.6276  -44.2787 H         1 UNK         0.0600 
    161 H161        5.1078  -18.4745  -46.1483 H         1 UNK         0.0600 
    162 H162        5.6005  -17.9052  -44.5604 H         1 UNK         0.0600 
    163 H163        4.5279  -16.9222  -45.5552 H         1 UNK         0.0600 
    164 H164        3.4677  -16.9454  -43.3693 H         1 UNK         0.3000 
    165 H165        0.6768  -17.5256  -41.2658 H         1 UNK         0.0600 
    166 H166        2.2162  -16.6934  -39.5101 H         1 UNK         0.0600 
    167 H167        2.5836  -18.3684  -39.8882 H         1 UNK         0.0600 
    168 H168        3.6163  -17.0862  -40.5090 H         1 UNK         0.0600 
    169 H169        2.3418  -15.2534  -41.6093 H         1 UNK         0.3000 
    170 H170        1.5077  -13.4214  -42.6505 H         1 UNK         0.0600 
    171 H171        2.4654  -12.9540  -44.9111 H         1 UNK         0.0600 
    172 H172        3.2012  -14.3777  -44.2011 H         1 UNK         0.0600 
    173 H173        1.9868  -14.5624  -45.4576 H         1 UNK         0.0600 
    174 H174       -0.1241  -13.2938  -45.0348 H         1 UNK         0.3000 
    175 H175       -3.1536  -13.0470  -43.8166 H         1 UNK         0.0600 
    176 H176       -1.8567  -10.3232  -43.2731 H         1 UNK         0.0600 
    177 H177       -3.5506  -10.5781  -43.6920 H         1 UNK         0.0600 
    178 H178       -2.9179  -11.2055  -42.1809 H         1 UNK         0.0600 
    179 H179       -1.4640  -11.3066  -45.5593 H         1 UNK         0.3000 
    180 H180       -2.1598  -13.1694  -48.4227 H         1 UNK         0.0600 
    181 H181       -3.0951  -11.0944  -49.4069 H         1 UNK         0.0600 
    182 H182       -3.4015  -10.4328  -47.7986 H         1 UNK         0.0600 
    183 H183       -4.2842  -11.8484  -48.3610 H         1 UNK         0.0600 
    184 H184       -0.9472  -10.6405  -48.2213 H         1 UNK         0.3000 
    185 H185        1.4419  -10.7429  -48.6570 H         1 UNK         0.0600 
    186 H186        1.6700  -10.7946  -45.5762 H         1 UNK         0.0600 
    187 H187        2.5434   -9.6859  -46.6302 H         1 UNK         0.0600 
    188 H188        0.7965   -9.5917  -46.5149 H         1 UNK         0.0600 
    189 H189        2.3636  -13.1380  -47.4796 H         1 UNK         0.3000 
    190 H190       -1.7544  -21.3020  -47.3272 H         1 UNK         0.3000 
    191 H191       -3.7740  -22.4192  -48.9724 H         1 UNK         0.0600 
    192 H192       -3.9929  -20.9815  -46.2773 H         1 UNK         0.0600 
    193 H193       -5.3311  -21.2895  -47.3732 H         1 UNK         0.0600 
    194 H194       -4.0198  -20.2326  -47.8728 H         1 UNK         0.0600 
    195 H195       -2.8063  -23.2580  -45.6131 H         1 UNK         0.3000 
    196 H196       -4.7008  -25.3267  -45.2054 H         1 UNK         0.0600 
    197 H197       -3.1883  -26.0038  -43.3464 H         1 UNK         0.0600 
    198 H198       -3.4313  -24.2632  -43.3630 H         1 UNK         0.0600 
    199 H199       -1.9249  -24.9487  -43.9652 H         1 UNK         0.0600 
    200 H200       -1.3220  -25.4856  -46.4458 H         1 UNK         0.3000 
    201 H201       -1.2157  -28.2795  -46.8896 H         1 UNK         0.0600 
    202 H202        0.7897  -26.8209  -46.8269 H         1 UNK         0.0600 
    203 H203        0.2742  -26.0031  -48.3007 H         1 UNK         0.0600 
    204 H204        0.7303  -27.7018  -48.3461 H         1 UNK         0.0600 
    205 H205       -2.5010  -25.6642  -48.9074 H         1 UNK         0.3000 
    206 H206       -3.1123  -27.3551  -51.1936 H         1 UNK         0.0600 
    207 H207       -4.0635  -25.3004  -52.1138 H         1 UNK         0.0600 
    208 H208       -4.0234  -24.5068  -50.5393 H         1 UNK         0.0600 
    209 H209       -2.5250  -24.9139  -51.3742 H         1 UNK         0.0600 
    210 H210       -4.3902  -27.6325  -48.2640 H         1 UNK         0.3000 
    211 H211       -6.1740  -28.5427  -47.3770 H         1 UNK         0.0600 
    212 H212       -7.1484  -29.2019  -50.2042 H         1 UNK         0.0600 
    213 H213       -7.6731  -29.9598  -48.7087 H         1 UNK         0.0600 
    214 H214       -6.0209  -30.1767  -49.2618 H         1 UNK         0.0600 
    215 H215       -6.1652  -25.8334  -47.5454 H         1 UNK         0.3000 
    216 H216       -7.3486  -24.1220  -46.8929 H         1 UNK         0.0600 
    217 H217       -9.6515  -24.2615  -46.1057 H         1 UNK         0.0600 
    218 H218       -8.7939  -25.6987  -45.5777 H         1 UNK         0.0600 
    219 H219       -9.9149  -25.7846  -46.9373 H         1 UNK         0.0600 
    220 H220       -6.9415  -24.8791  -49.7431 H         1 UNK         0.3000 
    221 H221       -8.8839  -23.2197  -51.2024 H         1 UNK         0.0600 
    222 H222       -6.1629  -24.3478  -52.0533 H         1 UNK         0.0600 
    223 H223       -7.7047  -25.1593  -52.3086 H         1 UNK         0.0600 
    224 H224       -7.3689  -23.6360  -53.1149 H         1 UNK         0.0600 
    225 H225       -7.9578  -21.3157  -52.4525 H         1 UNK         0.3000 
    226 H226       -7.0666  -19.3570  -50.6258 H         1 UNK         0.0600 
    227 H227       -8.5267  -18.8570  -52.5596 H         1 UNK         0.0600 
    228 H228       -7.0764  -17.8707  -52.6393 H         1 UNK         0.0600 
    229 H229       -7.2350  -19.2758  -53.6860 H         1 UNK         0.0600 
    230 H230       -5.2004  -21.3647  -52.8205 H         1 UNK         0.3000 
    231 H231       -3.0550  -21.5132  -53.4245 H         1 UNK         0.0600 
    232 H232       -2.5155  -20.3835  -50.6267 H         1 UNK         0.0600 
    233 H233       -2.7594  -22.0801  -51.0465 H         1 UNK         0.0600 
    234 H234       -1.3452  -21.2278  -51.6326 H         1 UNK         0.0600 
    235 H235       -4.2915  -19.3785  -54.4899 H         1 UNK         0.3000 
    236 H236       -4.0466  -17.6599  -55.8047 H         1 UNK         0.0600 
    237 H237       -1.0460  -17.6165  -55.1991 H         1 UNK         0.0600 
    238 H238       -1.8268  -18.5306  -56.4883 H         1 UNK         0.0600 
    239 H239       -1.8613  -16.7744  -56.5050 H         1 UNK         0.0600 
    240 H240       -2.0349  -16.9913  -52.8792 H         1 UNK         0.3000 
    241 H241       -2.8543  -14.1695  -52.9896 H         1 UNK         0.0600 
    242 H242       -5.0256  -15.8373  -50.0853 H         1 UNK         0.3800 
    243 H243       -4.2330  -16.8689  -51.2389 H         1 UNK         0.3800 
    244 H244       -0.5399  -14.4236  -52.7307 H         1 UNK         0.0800 
    245 H245       -1.1366  -13.7811  -51.2417 H         1 UNK         0.0800 
    246 H246        1.2866  -15.7688  -52.7128 H         1 UNK         0.0800 
    247 H247        0.3881  -17.2536  -52.8740 H         1 UNK         0.0800 
@<TRIPOS>BOND
     1    1    2 1    
     2    1  127 1    
     3    1  128 1    
     4    1  129 1    
     5    2    3 2    
     6    2    4 am   BACKBONE|DICT|INTERRES
     7    4    5 1    
     8    4  130 1    
     9    5    6 1    
    10    5   65 1    
    11    5  131 1    
    12    6    7 1    
    13    6  132 1    
    14    6  133 1    
    15    7    8 1    
    16    8    9 1    
    17    8  134 1    
    18    8  135 1    
    19    9   10 ar   
    20    9   14 ar   
    21   10   11 ar   
    22   10  136 1    
    23   11   12 ar   
    24   11  126 1    
    25   12   13 ar   
    26   12  137 1    
    27   13   14 ar   
    28   13   15 1    
    29   14  138 1    
    30   15   16 1    
    31   15  139 1    
    32   15  140 1    
    33   16   17 1    
    34   17   18 1    
    35   17  141 1    
    36   17  142 1    
    37   18   19 1    
    38   18   67 1    
    39   18  143 1    
    40   19   20 am   BACKBONE|DICT|INTERRES
    41   19  144 1    
    42   20   21 2    
    43   20   22 1    
    44   22   23 1    
    45   22   24 1    
    46   22  145 1    
    47   23  146 1    
    48   23  147 1    
    49   23  148 1    
    50   24   25 am   BACKBONE|DICT|INTERRES
    51   24  149 1    
    52   25   26 2    
    53   25   27 1    
    54   27   28 1    
    55   27   29 1    
    56   27  150 1    
    57   28  151 1    
    58   28  152 1    
    59   28  153 1    
    60   29   30 am   BACKBONE|DICT|INTERRES
    61   29  154 1    
    62   30   31 2    
    63   30   32 1    
    64   32   33 1    
    65   32   34 1    
    66   32  155 1    
    67   33  156 1    
    68   33  157 1    
    69   33  158 1    
    70   34   35 am   BACKBONE|DICT|INTERRES
    71   34  159 1    
    72   35   36 2    
    73   35   37 1    
    74   37   38 1    
    75   37   39 1    
    76   37  160 1    
    77   38  161 1    
    78   38  162 1    
    79   38  163 1    
    80   39   40 am   BACKBONE|DICT|INTERRES
    81   39  164 1    
    82   40   41 2    
    83   40   42 1    
    84   42   43 1    
    85   42   44 1    
    86   42  165 1    
    87   43  166 1    
    88   43  167 1    
    89   43  168 1    
    90   44   45 am   BACKBONE|DICT|INTERRES
    91   44  169 1    
    92   45   46 2    
    93   45   47 1    
    94   47   48 1    
    95   47   49 1    
    96   47  170 1    
    97   48  171 1    
    98   48  172 1    
    99   48  173 1    
   100   49   50 am   BACKBONE|DICT|INTERRES
   101   49  174 1    
   102   50   51 2    
   103   50   52 1    
   104   52   53 1    
   105   52   54 1    
   106   52  175 1    
   107   53  176 1    
   108   53  177 1    
   109   53  178 1    
   110   54   55 am   BACKBONE|DICT|INTERRES
   111   54  179 1    
   112   55   56 2    
   113   55   57 1    
   114   57   58 1    
   115   57   59 1    
   116   57  180 1    
   117   58  181 1    
   118   58  182 1    
   119   58  183 1    
   120   59   60 am   BACKBONE|DICT|INTERRES
   121   59  184 1    
   122   60   61 2    
   123   60   62 1    
   124   62   63 1    
   125   62   64 1    
   126   62  185 1    
   127   63  186 1    
   128   63  187 1    
   129   63  188 1    
   130   64   65 am   BACKBONE|DICT|INTERRES
   131   64  189 1    
   132   65   66 2    
   133   67   68 2    
   134   67   69 am   BACKBONE|DICT|INTERRES
   135   69   70 1    
   136   69  190 1    
   137   70   71 1    
   138   70   72 1    
   139   70  191 1    
   140   71  192 1    
   141   71  193 1    
   142   71  194 1    
   143   72   73 2    
   144   72   74 am   BACKBONE|DICT|INTERRES
   145   74   75 1    
   146   74  195 1    
   147   75   76 1    
   148   75   77 1    
   149   75  196 1    
   150   76  197 1    
   151   76  198 1    
   152   76  199 1    
   153   77   78 2    
   154   77   79 am   BACKBONE|DICT|INTERRES
   155   79   80 1    
   156   79  200 1    
   157   80   81 1    
   158   80   82 1    
   159   80  201 1    
   160   81  202 1    
   161   81  203 1    
   162   81  204 1    
   163   82   83 2    
   164   82   84 am   BACKBONE|DICT|INTERRES
   165   84   85 1    
   166   84  205 1    
   167   85   86 1    
   168   85   87 1    
   169   85  206 1    
   170   86  207 1    
   171   86  208 1    
   172   86  209 1    
   173   87   88 2    
   174   87   89 am   BACKBONE|DICT|INTERRES
   175   89   90 1    
   176   89  210 1    
   177   90   91 1    
   178   90   92 1    
   179   90  211 1    
   180   91  212 1    
   181   91  213 1    
   182   91  214 1    
   183   92   93 2    
   184   92   94 am   BACKBONE|DICT|INTERRES
   185   94   95 1    
   186   94  215 1    
   187   95   96 1    
   188   95   97 1    
   189   95  216 1    
   190   96  217 1    
   191   96  218 1    
   192   96  219 1    
   193   97   98 2    
   194   97   99 am   BACKBONE|DICT|INTERRES
   195   99  100 1    
   196   99  220 1    
   197  100  101 1    
   198  100  102 1    
   199  100  221 1    
   200  101  222 1    
   201  101  223 1    
   202  101  224 1    
   203  102  103 2    
   204  102  104 am   BACKBONE|DICT|INTERRES
   205  104  105 1    
   206  104  225 1    
   207  105  106 1    
   208  105  107 1    
   209  105  226 1    
   210  106  227 1    
   211  106  228 1    
   212  106  229 1    
   213  107  108 2    
   214  107  109 am   BACKBONE|DICT|INTERRES
   215  109  110 1    
   216  109  230 1    
   217  110  111 1    
   218  110  112 1    
   219  110  231 1    
   220  111  232 1    
   221  111  233 1    
   222  111  234 1    
   223  112  113 2    
   224  112  114 am   BACKBONE|DICT|INTERRES
   225  114  115 1    
   226  114  235 1    
   227  115  116 1    
   228  115  117 1    
   229  115  236 1    
   230  116  237 1    
   231  116  238 1    
   232  116  239 1    
   233  117  118 2    
   234  117  119 am   BACKBONE|DICT|INTERRES
   235  119  120 1    
   236  119  240 1    
   237  120  121 1    
   238  120  124 1    
   239  120  241 1    
   240  121  122 am   BACKBONE|DICT|INTERRES
   241  121  123 2    
   242  122  242 1    
   243  122  243 1    
   244  124  125 1    
   245  124  244 1    
   246  124  245 1    
   247  125  126 1    
   248  126  246 1    
   249  126  247 1    
@<TRIPOS>SUBSTRUCTURE
     1 UNK         1 GROUP             0       ****    0 ROOT    
