@<TRIPOS>MOLECULE
3R540
247   249    1
SMALL
USER_CHARGES


@<TRIPOS>ATOM
      1 CA         -4.6157  -14.4078  -48.6973 C.3       0 UNK        -0.1800 
      2 C          -3.2055  -14.7677  -48.2528 C.2       0 UNK         0.5000 
      3 O          -3.0288  -15.2862  -47.1530 O.2       0 UNK        -0.5000 
      4 N          -2.2047  -14.4719  -49.0942 N.am      1 UNK        -0.5000 
      5 CA         -0.7802  -14.8189  -48.9369 C.3       1 UNK         0.1400 
      6 C6         -0.4944  -16.3423  -49.0694 C.3       23 UNK        -0.0398 
      7 S7         -1.1269  -17.0583  -50.6281 S.3       23 UNK        -0.2404 
      8 C8          0.2985  -16.8801  -51.7497 C.3       23 UNK        -0.0205 
      9 C9          1.2528  -18.0616  -51.6545 C.ar      23 UNK        -0.0193 
     10 C10         1.0817  -19.1744  -52.4848 C.ar      23 UNK        -0.1150 
     11 C11         1.9458  -20.2698  -52.3900 C.ar      23 UNK        -0.0193 
     12 C12         2.9853  -20.2479  -51.4576 C.ar      23 UNK        -0.1150 
     13 C13         3.1604  -19.1472  -50.6173 C.ar      23 UNK        -0.0193 
     14 C14         2.3071  -18.0464  -50.7375 C.ar      23 UNK        -0.1150 
     15 C15         4.2442  -19.1662  -49.5498 C.3       23 UNK        -0.0205 
     16 S16         3.8896  -20.3784  -48.2318 S.3       23 UNK        -0.2404 
     17 C17         2.2554  -19.8324  -47.6307 C.3       23 UNK        -0.0398 
     18 CA          1.2678  -21.0161  -47.4411 C.3       11 UNK         0.1400 
     19 N           1.2055  -21.4330  -46.0363 N.am      11 UNK        -0.5000 
     20 C           0.5035  -22.4676  -45.5543 C.2       10 UNK         0.5000 
     21 O          -0.1022  -23.2766  -46.2582 O.2       10 UNK        -0.5000 
     22 CA          0.4105  -22.5692  -44.0188 C.3       10 UNK         0.1400 
     23 CB          1.6658  -23.2279  -43.4279 C.3       10 UNK        -0.1800 
     24 N           0.1925  -21.2616  -43.3917 N.am      10 UNK        -0.5000 
     25 C          -0.9156  -20.5259  -43.5620 C.2       9 UNK         0.5000 
     26 O          -1.8971  -20.9199  -44.1891 O.2       9 UNK        -0.5000 
     27 CA         -0.9209  -19.0976  -42.9877 C.3       9 UNK         0.1400 
     28 CB         -1.3652  -19.0892  -41.5187 C.3       9 UNK        -0.1800 
     29 N           0.3705  -18.4247  -43.1173 N.am      9 UNK        -0.5000 
     30 C           0.9358  -18.0749  -44.2807 C.2       8 UNK         0.5000 
     31 O           0.3954  -18.2321  -45.3727 O.2       8 UNK        -0.5000 
     32 CA          2.3649  -17.5067  -44.2193 C.3       8 UNK         0.1400 
     33 CB          2.3594  -15.9995  -43.9441 C.3       8 UNK        -0.1800 
     34 N           3.1818  -18.1897  -43.2189 N.am      8 UNK        -0.5000 
     35 C           3.5873  -19.4629  -43.3201 C.2       7 UNK         0.5000 
     36 O           3.3463  -20.1823  -44.2895 O.2       7 UNK        -0.5000 
     37 CA          4.3446  -20.0363  -42.1089 C.3       7 UNK         0.1400 
     38 CB          5.8325  -19.6606  -42.1710 C.3       7 UNK        -0.1800 
     39 N           3.7791  -19.5802  -40.8370 N.am      7 UNK        -0.5000 
     40 C           2.5689  -19.9355  -40.3826 C.2       6 UNK         0.5000 
     41 O           1.8241  -20.7195  -40.9705 O.2       6 UNK        -0.5000 
     42 CA          2.0937  -19.2644  -39.0796 C.3       6 UNK         0.1400 
     43 CB          2.6283  -20.0220  -37.8552 C.3       6 UNK        -0.1800 
     44 N           2.4701  -17.8495  -38.9812 N.am      6 UNK        -0.5000 
     45 C           2.0446  -16.8931  -39.8168 C.2       5 UNK         0.5000 
     46 O           1.3175  -17.1123  -40.7874 O.2       5 UNK        -0.5000 
     47 CA          2.5641  -15.4702  -39.5625 C.3       5 UNK         0.1400 
     48 CB          3.9399  -15.2866  -40.2229 C.3       5 UNK        -0.1800 
     49 N           1.6396  -14.4926  -40.1335 N.am      5 UNK        -0.5000 
     50 C           0.6995  -13.8265  -39.4515 C.2       4 UNK         0.5000 
     51 O           0.5524  -13.9024  -38.2310 O.2       4 UNK        -0.5000 
     52 CA         -0.2385  -12.9232  -40.2751 C.3       4 UNK         0.1400 
     53 CB          0.3531  -11.5119  -40.4107 C.3       4 UNK        -0.1800 
     54 N          -0.4908  -13.4625  -41.6115 N.am      4 UNK        -0.5000 
     55 C          -1.3404  -14.4544  -41.8949 C.2       3 UNK         0.5000 
     56 O          -2.0743  -14.9595  -41.0435 O.2       3 UNK        -0.5000 
     57 CA         -1.3770  -14.9794  -43.3546 C.3       3 UNK         0.1400 
     58 CB         -2.6580  -15.7846  -43.6388 C.3       3 UNK        -0.1800 
     59 N          -1.2228  -13.9864  -44.4293 N.am      3 UNK        -0.5000 
     60 C          -0.1726  -13.1945  -44.6921 C.2       2 UNK         0.5000 
     61 O           0.8288  -13.1245  -43.9774 O.2       2 UNK        -0.5000 
     62 CA         -0.2668  -12.3440  -45.9779 C.3       2 UNK         0.1400 
     63 CB          1.0365  -11.5786  -46.2893 C.3       2 UNK        -0.1800 
     64 N          -0.7013  -13.1157  -47.1494 N.am      2 UNK        -0.5000 
     65 C          -0.1128  -14.2014  -47.6802 C.2       1 UNK         0.5000 
     66 O           0.9249  -14.6968  -47.2394 O.2       1 UNK        -0.5000 
     67 C          -0.1364  -20.6842  -47.9947 C.2       11 UNK         0.5000 
     68 O          -0.5166  -21.2050  -49.0424 O.2       11 UNK        -0.5000 
     69 N          -0.9001  -19.8684  -47.2537 N.am      12 UNK        -0.5000 
     70 CA         -2.2781  -19.4952  -47.5705 C.3       12 UNK         0.1400 
     71 CB         -2.7934  -18.4759  -46.5465 C.3       12 UNK        -0.1800 
     72 C          -3.2262  -20.7009  -47.6375 C.2       12 UNK         0.5000 
     73 O          -4.0293  -20.7762  -48.5641 O.2       12 UNK        -0.5000 
     74 N          -3.1061  -21.6303  -46.6800 N.am      13 UNK        -0.5000 
     75 CA         -3.8762  -22.8728  -46.6273 C.3       13 UNK         0.1400 
     76 CB         -3.5905  -23.6080  -45.3094 C.3       13 UNK        -0.1800 
     77 C          -3.6115  -23.7845  -47.8382 C.2       13 UNK         0.5000 
     78 O          -4.5643  -24.2969  -48.4266 O.2       13 UNK        -0.5000 
     79 N          -2.3347  -23.9241  -48.2245 N.am      14 UNK        -0.5000 
     80 CA         -1.9075  -24.6531  -49.4219 C.3       14 UNK         0.1400 
     81 CB         -0.3761  -24.7726  -49.4310 C.3       14 UNK        -0.1800 
     82 C          -2.4210  -24.0146  -50.7283 C.2       14 UNK         0.5000 
     83 O          -2.7927  -24.7376  -51.6522 O.2       14 UNK        -0.5000 
     84 N          -2.4753  -22.6777  -50.7582 N.am      15 UNK        -0.5000 
     85 CA         -2.9959  -21.8683  -51.8603 C.3       15 UNK         0.1400 
     86 CB         -2.3110  -20.4945  -51.8058 C.3       15 UNK        -0.1800 
     87 C          -4.5332  -21.7128  -51.8434 C.2       15 UNK         0.5000 
     88 O          -5.0668  -20.9654  -52.6634 O.2       15 UNK        -0.5000 
     89 N          -5.2263  -22.3735  -50.9028 N.am      16 UNK        -0.5000 
     90 CA         -6.6791  -22.3456  -50.6940 C.3       16 UNK         0.1400 
     91 CB         -7.4020  -23.0494  -51.8623 C.3       16 UNK        -0.1800 
     92 C          -7.2186  -20.9231  -50.4240 C.2       16 UNK         0.5000 
     93 O          -8.2047  -20.5074  -51.0318 O.2       16 UNK        -0.5000 
     94 N          -6.5287  -20.1903  -49.5390 N.am      17 UNK        -0.5000 
     95 CA         -6.7354  -18.7797  -49.1908 C.3       17 UNK         0.1400 
     96 CB         -8.1199  -18.5499  -48.5495 C.3       17 UNK        -0.1800 
     97 C          -6.4418  -17.8400  -50.3786 C.2       17 UNK         0.5000 
     98 O          -7.1521  -16.8551  -50.5845 O.2       17 UNK        -0.5000 
     99 N          -5.3913  -18.1847  -51.1385 N.am      18 UNK        -0.5000 
    100 CA        -4.8896  -17.5174  -52.3464 C.3       18 UNK         0.1400 
    101 CB        -4.4735  -16.0620  -52.0471 C.3       18 UNK        -0.1800 
    102 C         -5.8336  -17.6209  -53.5645 C.2       18 UNK         0.5000 
    103 O         -5.6599  -16.8748  -54.5299 O.2       18 UNK        -0.5000 
    104 N         -6.8052  -18.5421  -53.5190 N.am      19 UNK        -0.5000 
    105 CA        -7.7506  -18.8013  -54.6045 C.3       19 UNK         0.1400 
    106 CB        -9.0349  -19.4050  -54.0171 C.3       19 UNK        -0.1800 
    107 C         -7.1771  -19.7314  -55.6898 C.2       19 UNK         0.5000 
    108 O         -7.7043  -19.7430  -56.8034 O.2       19 UNK        -0.5000 
    109 N         -6.1362  -20.5031  -55.3561 N.am      20 UNK        -0.5000 
    110 CA        -5.5093  -21.4945  -56.2232 C.3       20 UNK         0.1400 
    111 CB        -6.0369  -22.8854  -55.8262 C.3       20 UNK        -0.1800 
    112 C         -3.9795  -21.4314  -56.0952 C.2       20 UNK         0.5000 
    113 O         -3.4481  -20.7463  -55.2188 O.2       20 UNK        -0.5000 
    114 N         -3.2931  -22.1744  -56.9695 N.am      21 UNK        -0.5000 
    115 CA        -1.8691  -22.4747  -56.8405 C.3       21 UNK         0.1400 
    116 CB        -1.3180  -22.8756  -58.2179 C.3       21 UNK        -0.1800 
    117 C         -1.6606  -23.6111  -55.8221 C.2       21 UNK         0.5000 
    118 O         -2.5441  -24.4569  -55.6575 O.2       21 UNK        -0.5000 
    119 N         -0.4902  -23.6221  -55.1781 N.am      22 UNK        -0.5000 
    120 CA        -0.0717  -24.6711  -54.2368 C.3       22 UNK         0.1400 
    121 C          0.1645  -26.0363  -54.9409 C.2       22 UNK         0.5000 
    122 N         -0.2616  -27.1369  -54.3366 N.am      22 UNK        -0.7600 
    123 O          0.7697  -26.1080  -56.0085 O.2       22 UNK        -0.5000 
    124 C124        1.1905  -24.2529  -53.4455 C.3       23 UNK        -0.0398 
    125 S125        0.8981  -22.8122  -52.3672 S.3       23 UNK        -0.2404 
    126 C126        1.7575  -21.4909  -53.2733 C.3       23 UNK        -0.0205 
    127 H127       -5.2193  -15.3106  -48.7901 H         1 UNK         0.0600 
    128 H128       -4.6207  -13.8956  -49.6596 H         1 UNK         0.0600 
    129 H129       -5.0867  -13.7556  -47.9620 H         1 UNK         0.0600 
    130 H130       -2.4311  -14.0233  -49.9706 H         1 UNK         0.3000 
    131 H131       -0.2779  -14.3330  -49.7744 H         1 UNK         0.0600 
    132 H132        0.5728  -16.5478  -48.9997 H         1 UNK         0.0800 
    133 H133       -0.9489  -16.8801  -48.2393 H         1 UNK         0.0800 
    134 H134       -0.0752  -16.7955  -52.7712 H         1 UNK         0.0800 
    135 H135        0.8234  -15.9462  -51.5436 H         1 UNK         0.0800 
    136 H136        0.2666  -19.1933  -53.1945 H         1 UNK         0.1150 
    137 H137        3.6400  -21.1030  -51.3634 H         1 UNK         0.1150 
    138 H138        2.4484  -17.1892  -50.0955 H         1 UNK         0.1150 
    139 H139        5.2007  -19.4132  -50.0123 H         1 UNK         0.0800 
    140 H140        4.3656  -18.1788  -49.1015 H         1 UNK         0.0800 
    141 H141        1.8516  -19.0751  -48.3011 H         1 UNK         0.0800 
    142 H142        2.4161  -19.3044  -46.6941 H         1 UNK         0.0800 
    143 H143        1.6214  -21.8760  -48.0143 H         1 UNK         0.0600 
    144 H144        1.7183  -20.8577  -45.3772 H         1 UNK         0.3000 
    145 H145       -0.4463  -23.2024  -43.7793 H         1 UNK         0.0600 
    146 H146        1.5773  -23.3447  -42.3476 H         1 UNK         0.0600 
    147 H147        1.8199  -24.2208  -43.8520 H         1 UNK         0.0600 
    148 H148        2.5637  -22.6436  -43.6274 H         1 UNK         0.0600 
    149 H149        0.9323  -20.9042  -42.7967 H         1 UNK         0.3000 
    150 H150       -1.6486  -18.5242  -43.5625 H         1 UNK         0.0600 
    151 H151       -2.3541  -19.5356  -41.4086 H         1 UNK         0.0600 
    152 H152       -1.4213  -18.0719  -41.1298 H         1 UNK         0.0600 
    153 H153       -0.6788  -19.6519  -40.8866 H         1 UNK         0.0600 
    154 H154        0.8496  -18.1884  -42.2522 H         1 UNK         0.3000 
    155 H155        2.8318  -17.6562  -45.1939 H         1 UNK         0.0600 
    156 H156        1.8225  -15.4761  -44.7348 H         1 UNK         0.0600 
    157 H157        1.8770  -15.7543  -42.9988 H         1 UNK         0.0600 
    158 H158        3.3713  -15.5953  -43.9215 H         1 UNK         0.0600 
    159 H159        3.3801  -17.6845  -42.3693 H         1 UNK         0.3000 
    160 H160        4.2643  -21.1248  -42.1498 H         1 UNK         0.0600 
    161 H161        5.9808  -18.5818  -42.1101 H         1 UNK         0.0600 
    162 H162        6.2816  -20.0018  -43.1048 H         1 UNK         0.0600 
    163 H163        6.3897  -20.1229  -41.3560 H         1 UNK         0.0600 
    164 H164        4.3316  -18.9356  -40.2914 H         1 UNK         0.3000 
    165 H165        1.0034  -19.3192  -39.0616 H         1 UNK         0.0600 
    166 H166        2.2223  -19.6128  -36.9300 H         1 UNK         0.0600 
    167 H167        2.3459  -21.0751  -37.8942 H         1 UNK         0.0600 
    168 H168        3.7163  -19.9759  -37.7946 H         1 UNK         0.0600 
    169 H169        3.0773  -17.5979  -38.2144 H         1 UNK         0.3000 
    170 H170        2.6661  -15.3165  -38.4862 H         1 UNK         0.0600 
    171 H171        3.8977  -15.4443  -41.3011 H         1 UNK         0.0600 
    172 H172        4.3263  -14.2821  -40.0490 H         1 UNK         0.0600 
    173 H173        4.6695  -15.9877  -39.8159 H         1 UNK         0.0600 
    174 H174        1.6408  -14.4141  -41.1393 H         1 UNK         0.3000 
    175 H175       -1.1868  -12.8450  -39.7390 H         1 UNK         0.0600 
    176 H176       -0.3314  -10.8474  -40.9384 H         1 UNK         0.0600 
    177 H177        1.2977  -11.5216  -40.9561 H         1 UNK         0.0600 
    178 H178        0.5428  -11.0718  -39.4308 H         1 UNK         0.0600 
    179 H179        0.0959  -13.1230  -42.3718 H         1 UNK         0.3000 
    180 H180       -0.5369  -15.6676  -43.4383 H         1 UNK         0.0600 
    181 H181       -3.5427  -15.1474  -43.6159 H         1 UNK         0.0600 
    182 H182       -2.8081  -16.5785  -42.9069 H         1 UNK         0.0600 
    183 H183       -2.6141  -16.2584  -44.6178 H         1 UNK         0.0600 
    184 H184       -1.9776  -13.9758  -45.1017 H         1 UNK         0.3000 
    185 H185       -1.0444  -11.6017  -45.7924 H         1 UNK         0.0600 
    186 H186        1.3047  -10.9130  -45.4681 H         1 UNK         0.0600 
    187 H187        1.8765  -12.2557  -46.4481 H         1 UNK         0.0600 
    188 H188        0.9287  -10.9630  -47.1823 H         1 UNK         0.0600 
    189 H189       -1.5562  -12.8020  -47.5866 H         1 UNK         0.3000 
    190 H190       -0.4906  -19.4311  -46.4311 H         1 UNK         0.3000 
    191 H191       -2.2687  -19.0204  -48.5530 H         1 UNK         0.0600 
    192 H192       -2.0869  -17.6591  -46.4111 H         1 UNK         0.0600 
    193 H193       -3.7379  -18.0407  -46.8747 H         1 UNK         0.0600 
    194 H194       -2.9654  -18.9266  -45.5700 H         1 UNK         0.0600 
    195 H195       -2.4648  -21.4576  -45.9099 H         1 UNK         0.3000 
    196 H196       -4.9345  -22.6042  -46.6412 H         1 UNK         0.0600 
    197 H197       -4.1743  -24.5267  -45.2403 H         1 UNK         0.0600 
    198 H198       -3.8521  -22.9907  -44.4499 H         1 UNK         0.0600 
    199 H199       -2.5389  -23.8792  -45.2174 H         1 UNK         0.0600 
    200 H200       -1.6053  -23.4820  -47.6737 H         1 UNK         0.3000 
    201 H201       -2.3240  -25.6607  -49.3631 H         1 UNK         0.0600 
    202 H202       -0.0165  -25.3005  -48.5478 H         1 UNK         0.0600 
    203 H203        0.1041  -23.7940  -49.4522 H         1 UNK         0.0600 
    204 H204       -0.0320  -25.3250  -50.3062 H         1 UNK         0.0600 
    205 H205       -2.0860  -22.1641  -49.9737 H         1 UNK         0.3000 
    206 H206       -2.7248  -22.3448  -52.8048 H         1 UNK         0.0600 
    207 H207       -1.2285  -20.6000  -51.7502 H         1 UNK         0.0600 
    208 H208       -2.5315  -19.9101  -52.6988 H         1 UNK         0.0600 
    209 H209       -2.6304  -19.9169  -50.9380 H         1 UNK         0.0600 
    210 H210       -4.7025  -22.9266  -50.2363 H         1 UNK         0.3000 
    211 H211       -6.8698  -22.9238  -49.7888 H         1 UNK         0.0600 
    212 H212       -7.2978  -22.4969  -52.7968 H         1 UNK         0.0600 
    213 H213       -8.4689  -23.1469  -51.6590 H         1 UNK         0.0600 
    214 H214       -7.0088  -24.0534  -52.0216 H         1 UNK         0.0600 
    215 H215       -5.6827  -20.6010  -49.1428 H         1 UNK         0.3000 
    216 H216       -5.9857  -18.5461  -48.4333 H         1 UNK         0.0600 
    217 H217       -8.2011  -17.5367  -48.1543 H         1 UNK         0.0600 
    218 H218       -8.2886  -19.2358  -47.7195 H         1 UNK         0.0600 
    219 H219       -8.9300  -18.6836  -49.2667 H         1 UNK         0.0600 
    220 H220       -4.9169  -19.0442  -50.9007 H         1 UNK         0.3000 
    221 H221       -3.9864  -18.0587  -52.6278 H         1 UNK         0.0600 
    222 H222       -5.3371  -15.4161  -51.8875 H         1 UNK         0.0600 
    223 H223       -3.8458  -16.0067  -51.1593 H         1 UNK         0.0600 
    224 H224       -3.9008  -15.6417  -52.8744 H         1 UNK         0.0600 
    225 H225       -6.8661  -19.1440  -52.7083 H         1 UNK         0.3000 
    226 H226       -8.0122  -17.8540  -55.0807 H         1 UNK         0.0600 
    227 H227       -9.4427  -18.7781  -53.2237 H         1 UNK         0.0600 
    228 H228       -9.8046  -19.5040  -54.7834 H         1 UNK         0.0600 
    229 H229       -8.8578  -20.3985  -53.6039 H         1 UNK         0.0600 
    230 H230       -5.7224  -20.4242  -54.4294 H         1 UNK         0.3000 
    231 H231       -5.7582  -21.2983  -57.2681 H         1 UNK         0.0600 
    232 H232       -5.7663  -23.1353  -54.7992 H         1 UNK         0.0600 
    233 H233       -5.6306  -23.6656  -56.4707 H         1 UNK         0.0600 
    234 H234       -7.1230  -22.9334  -55.9063 H         1 UNK         0.0600 
    235 H235       -3.8035  -22.7369  -57.6344 H         1 UNK         0.3000 
    236 H236       -1.3383  -21.5840  -56.4968 H         1 UNK         0.0600 
    237 H237       -1.4543  -22.0752  -58.9454 H         1 UNK         0.0600 
    238 H238       -0.2493  -23.0875  -58.1647 H         1 UNK         0.0600 
    239 H239       -1.8099  -23.7691  -58.6047 H         1 UNK         0.0600 
    240 H240        0.1983  -22.9173  -55.3914 H         1 UNK         0.3000 
    241 H241       -0.8849  -24.8034  -53.5212 H         1 UNK         0.0600 
    242 H242       -0.7654  -27.0988  -53.4638 H         1 UNK         0.3800 
    243 H243       -0.1013  -28.0305  -54.7756 H         1 UNK         0.3800 
    244 H244        2.0247  -24.0574  -54.1212 H         1 UNK         0.0800 
    245 H245        1.5158  -25.0684  -52.7969 H         1 UNK         0.0800 
    246 H246        1.1907  -21.2327  -54.1686 H         1 UNK         0.0800 
    247 H247        2.7336  -21.8438  -53.6096 H         1 UNK         0.0800 
@<TRIPOS>BOND
     1    1    2 1    
     2    1  127 1    
     3    1  128 1    
     4    1  129 1    
     5    2    3 2    
     6    2    4 am   BACKBONE|DICT|INTERRES
     7    4    5 1    
     8    4  130 1    
     9    5    6 1    
    10    5   65 1    
    11    5  131 1    
    12    6    7 1    
    13    6  132 1    
    14    6  133 1    
    15    7    8 1    
    16    8    9 1    
    17    8  134 1    
    18    8  135 1    
    19    9   10 ar   
    20    9   14 ar   
    21   10   11 ar   
    22   10  136 1    
    23   11   12 ar   
    24   11  126 1    
    25   12   13 ar   
    26   12  137 1    
    27   13   14 ar   
    28   13   15 1    
    29   14  138 1    
    30   15   16 1    
    31   15  139 1    
    32   15  140 1    
    33   16   17 1    
    34   17   18 1    
    35   17  141 1    
    36   17  142 1    
    37   18   19 1    
    38   18   67 1    
    39   18  143 1    
    40   19   20 am   BACKBONE|DICT|INTERRES
    41   19  144 1    
    42   20   21 2    
    43   20   22 1    
    44   22   23 1    
    45   22   24 1    
    46   22  145 1    
    47   23  146 1    
    48   23  147 1    
    49   23  148 1    
    50   24   25 am   BACKBONE|DICT|INTERRES
    51   24  149 1    
    52   25   26 2    
    53   25   27 1    
    54   27   28 1    
    55   27   29 1    
    56   27  150 1    
    57   28  151 1    
    58   28  152 1    
    59   28  153 1    
    60   29   30 am   BACKBONE|DICT|INTERRES
    61   29  154 1    
    62   30   31 2    
    63   30   32 1    
    64   32   33 1    
    65   32   34 1    
    66   32  155 1    
    67   33  156 1    
    68   33  157 1    
    69   33  158 1    
    70   34   35 am   BACKBONE|DICT|INTERRES
    71   34  159 1    
    72   35   36 2    
    73   35   37 1    
    74   37   38 1    
    75   37   39 1    
    76   37  160 1    
    77   38  161 1    
    78   38  162 1    
    79   38  163 1    
    80   39   40 am   BACKBONE|DICT|INTERRES
    81   39  164 1    
    82   40   41 2    
    83   40   42 1    
    84   42   43 1    
    85   42   44 1    
    86   42  165 1    
    87   43  166 1    
    88   43  167 1    
    89   43  168 1    
    90   44   45 am   BACKBONE|DICT|INTERRES
    91   44  169 1    
    92   45   46 2    
    93   45   47 1    
    94   47   48 1    
    95   47   49 1    
    96   47  170 1    
    97   48  171 1    
    98   48  172 1    
    99   48  173 1    
   100   49   50 am   BACKBONE|DICT|INTERRES
   101   49  174 1    
   102   50   51 2    
   103   50   52 1    
   104   52   53 1    
   105   52   54 1    
   106   52  175 1    
   107   53  176 1    
   108   53  177 1    
   109   53  178 1    
   110   54   55 am   BACKBONE|DICT|INTERRES
   111   54  179 1    
   112   55   56 2    
   113   55   57 1    
   114   57   58 1    
   115   57   59 1    
   116   57  180 1    
   117   58  181 1    
   118   58  182 1    
   119   58  183 1    
   120   59   60 am   BACKBONE|DICT|INTERRES
   121   59  184 1    
   122   60   61 2    
   123   60   62 1    
   124   62   63 1    
   125   62   64 1    
   126   62  185 1    
   127   63  186 1    
   128   63  187 1    
   129   63  188 1    
   130   64   65 am   BACKBONE|DICT|INTERRES
   131   64  189 1    
   132   65   66 2    
   133   67   68 2    
   134   67   69 am   BACKBONE|DICT|INTERRES
   135   69   70 1    
   136   69  190 1    
   137   70   71 1    
   138   70   72 1    
   139   70  191 1    
   140   71  192 1    
   141   71  193 1    
   142   71  194 1    
   143   72   73 2    
   144   72   74 am   BACKBONE|DICT|INTERRES
   145   74   75 1    
   146   74  195 1    
   147   75   76 1    
   148   75   77 1    
   149   75  196 1    
   150   76  197 1    
   151   76  198 1    
   152   76  199 1    
   153   77   78 2    
   154   77   79 am   BACKBONE|DICT|INTERRES
   155   79   80 1    
   156   79  200 1    
   157   80   81 1    
   158   80   82 1    
   159   80  201 1    
   160   81  202 1    
   161   81  203 1    
   162   81  204 1    
   163   82   83 2    
   164   82   84 am   BACKBONE|DICT|INTERRES
   165   84   85 1    
   166   84  205 1    
   167   85   86 1    
   168   85   87 1    
   169   85  206 1    
   170   86  207 1    
   171   86  208 1    
   172   86  209 1    
   173   87   88 2    
   174   87   89 am   BACKBONE|DICT|INTERRES
   175   89   90 1    
   176   89  210 1    
   177   90   91 1    
   178   90   92 1    
   179   90  211 1    
   180   91  212 1    
   181   91  213 1    
   182   91  214 1    
   183   92   93 2    
   184   92   94 am   BACKBONE|DICT|INTERRES
   185   94   95 1    
   186   94  215 1    
   187   95   96 1    
   188   95   97 1    
   189   95  216 1    
   190   96  217 1    
   191   96  218 1    
   192   96  219 1    
   193   97   98 2    
   194   97   99 am   BACKBONE|DICT|INTERRES
   195   99  100 1    
   196   99  220 1    
   197  100  101 1    
   198  100  102 1    
   199  100  221 1    
   200  101  222 1    
   201  101  223 1    
   202  101  224 1    
   203  102  103 2    
   204  102  104 am   BACKBONE|DICT|INTERRES
   205  104  105 1    
   206  104  225 1    
   207  105  106 1    
   208  105  107 1    
   209  105  226 1    
   210  106  227 1    
   211  106  228 1    
   212  106  229 1    
   213  107  108 2    
   214  107  109 am   BACKBONE|DICT|INTERRES
   215  109  110 1    
   216  109  230 1    
   217  110  111 1    
   218  110  112 1    
   219  110  231 1    
   220  111  232 1    
   221  111  233 1    
   222  111  234 1    
   223  112  113 2    
   224  112  114 am   BACKBONE|DICT|INTERRES
   225  114  115 1    
   226  114  235 1    
   227  115  116 1    
   228  115  117 1    
   229  115  236 1    
   230  116  237 1    
   231  116  238 1    
   232  116  239 1    
   233  117  118 2    
   234  117  119 am   BACKBONE|DICT|INTERRES
   235  119  120 1    
   236  119  240 1    
   237  120  121 1    
   238  120  124 1    
   239  120  241 1    
   240  121  122 am   BACKBONE|DICT|INTERRES
   241  121  123 2    
   242  122  242 1    
   243  122  243 1    
   244  124  125 1    
   245  124  244 1    
   246  124  245 1    
   247  125  126 1    
   248  126  246 1    
   249  126  247 1    
@<TRIPOS>SUBSTRUCTURE
     1 UNK         1 GROUP             0       ****    0 ROOT    
