@<TRIPOS>MOLECULE
3R540
247   249    1
SMALL
USER_CHARGES


@<TRIPOS>ATOM
      1 CA          0.9245  -18.3022  -42.2415 C.3       0 UNK        -0.1800 
      2 C          -0.4170  -17.6305  -42.4934 C.2       0 UNK         0.5000 
      3 O          -1.3299  -17.7655  -41.6785 O.2       0 UNK        -0.5000 
      4 N          -0.5427  -16.9158  -43.6190 N.am      1 UNK        -0.5000 
      5 CA         -1.7147  -16.1074  -43.9767 C.3       1 UNK         0.1400 
      6 C6         -1.6183  -15.5538  -45.4196 C.3       23 UNK        -0.0398 
      7 S7         -1.5329  -16.8600  -46.6881 S.3       23 UNK        -0.2404 
      8 C8         -0.0761  -16.3193  -47.6369 C.3       23 UNK        -0.0205 
      9 C9          0.0549  -17.1128  -48.9255 C.ar      23 UNK        -0.0193 
     10 C10        -0.6340  -16.7097  -50.0731 C.ar      23 UNK        -0.1150 
     11 C11        -0.5515  -17.4587  -51.2508 C.ar      23 UNK        -0.0193 
     12 C12         0.2289  -18.6188  -51.2738 C.ar      23 UNK        -0.1150 
     13 C13         0.9077  -19.0402  -50.1265 C.ar      23 UNK        -0.0193 
     14 C14         0.8373  -18.2684  -48.9645 C.ar      23 UNK        -0.1150 
     15 C15         1.6543  -20.3667  -50.1210 C.3       23 UNK        -0.0205 
     16 S16         0.9531  -21.5610  -48.9280 S.3       23 UNK        -0.2404 
     17 C17        -0.8275  -21.5465  -49.3419 C.3       23 UNK        -0.0398 
     18 CA         -1.7184  -22.0671  -48.1893 C.3       11 UNK         0.1400 
     19 N          -1.4899  -21.3567  -46.9212 N.am      11 UNK        -0.5000 
     20 C          -2.0738  -21.6211  -45.7430 C.2       10 UNK         0.5000 
     21 O          -2.9826  -22.4437  -45.6073 O.2       10 UNK        -0.5000 
     22 CA         -1.5404  -20.8491  -44.5185 C.3       10 UNK         0.1400 
     23 CB         -2.2602  -21.2387  -43.2152 C.3       10 UNK        -0.1800 
     24 N          -0.1005  -21.0527  -44.3407 N.am      10 UNK        -0.5000 
     25 C           0.8445  -20.3987  -45.0232 C.2       9 UNK         0.5000 
     26 O           0.5902  -19.5530  -45.8835 O.2       9 UNK        -0.5000 
     27 CA          2.3055  -20.7389  -44.7006 C.3       9 UNK         0.1400 
     28 CB          2.7147  -22.0930  -45.3042 C.3       9 UNK        -0.1800 
     29 N           3.1281  -19.6783  -45.2644 N.am      9 UNK        -0.5000 
     30 C           4.3031  -19.2427  -44.8060 C.2       8 UNK         0.5000 
     31 O           4.9044  -19.7655  -43.8648 O.2       8 UNK        -0.5000 
     32 CA          4.9284  -18.0365  -45.5442 C.3       8 UNK         0.1400 
     33 CB          3.9240  -17.2371  -46.4095 C.3       8 UNK        -0.1800 
     34 N           5.6539  -17.1338  -44.6448 N.am      8 UNK        -0.5000 
     35 C           5.1482  -16.4437  -43.6131 C.2       7 UNK         0.5000 
     36 O           3.9665  -16.4846  -43.2621 O.2       7 UNK        -0.5000 
     37 CA          6.1382  -15.5063  -42.8986 C.3       7 UNK         0.1400 
     38 CB          6.3777  -14.2360  -43.7317 C.3       7 UNK        -0.1800 
     39 N           5.6458  -15.1147  -41.5802 N.am      7 UNK        -0.5000 
     40 C           5.8313  -15.8244  -40.4595 C.2       6 UNK         0.5000 
     41 O           6.4935  -16.8623  -40.4113 O.2       6 UNK        -0.5000 
     42 CA          5.1903  -15.2830  -39.1661 C.3       6 UNK         0.1400 
     43 CB          6.2214  -14.4927  -38.3455 C.3       6 UNK        -0.1800 
     44 N           4.0307  -14.4274  -39.4161 N.am      6 UNK        -0.5000 
     45 C           2.8205  -14.8741  -39.7741 C.2       5 UNK         0.5000 
     46 O           2.5344  -16.0673  -39.8658 O.2       5 UNK        -0.5000 
     47 CA          1.7414  -13.8150  -40.0707 C.3       5 UNK         0.1400 
     48 CB          1.9181  -12.5068  -39.2689 C.3       5 UNK        -0.1800 
     49 N           1.6201  -13.5278  -41.5008 N.am      5 UNK        -0.5000 
     50 C           2.5643  -13.0623  -42.3336 C.2       4 UNK         0.5000 
     51 O           3.7311  -12.8452  -42.0036 O.2       4 UNK        -0.5000 
     52 CA          2.1135  -12.7444  -43.7735 C.3       4 UNK         0.1400 
     53 CB          2.1885  -13.9948  -44.6636 C.3       4 UNK        -0.1800 
     54 N           0.7518  -12.2089  -43.8224 N.am      4 UNK        -0.5000 
     55 C           0.3897  -10.9801  -43.4213 C.2       3 UNK         0.5000 
     56 O           1.1812  -10.1223  -43.0302 O.2       3 UNK        -0.5000 
     57 CA         -1.1176  -10.6811  -43.4281 C.3       3 UNK         0.1400 
     58 CB         -1.5972  -10.3293  -44.8496 C.3       3 UNK        -0.1800 
     59 N          -1.8283  -11.8414  -42.8982 N.am      3 UNK        -0.5000 
     60 C          -3.1167  -11.9485  -42.5693 C.2       2 UNK         0.5000 
     61 O          -3.9343  -11.0360  -42.7000 O.2       2 UNK        -0.5000 
     62 CA         -3.5484  -13.3231  -42.0000 C.3       2 UNK         0.1400 
     63 CB         -5.0652  -13.4104  -41.7520 C.3       2 UNK        -0.1800 
     64 N          -3.1455  -14.4589  -42.8419 N.am      2 UNK        -0.5000 
     65 C          -1.9006  -14.9316  -42.9934 C.2       1 UNK         0.5000 
     66 O          -0.9135  -14.4265  -42.4491 O.2       1 UNK        -0.5000 
     67 C          -3.1924  -22.0702  -48.6385 C.2       11 UNK         0.5000 
     68 O          -3.6084  -23.0127  -49.3117 O.2       11 UNK        -0.5000 
     69 N          -3.9608  -21.0489  -48.2319 N.am      12 UNK        -0.5000 
     70 CA         -5.4087  -20.9291  -48.4202 C.3       12 UNK         0.1400 
     71 CB         -5.8881  -19.6206  -47.7751 C.3       12 UNK        -0.1800 
     72 C          -6.2041  -22.1277  -47.8677 C.2       12 UNK         0.5000 
     73 O          -7.1740  -22.5491  -48.4980 O.2       12 UNK        -0.5000 
     74 N          -5.7562  -22.6673  -46.7275 N.am      13 UNK        -0.5000 
     75 CA         -6.3308  -23.8468  -46.0869 C.3       13 UNK         0.1400 
     76 CB         -6.4541  -23.5843  -44.5774 C.3       13 UNK        -0.1800 
     77 C          -5.4691  -25.0928  -46.3437 C.2       13 UNK         0.5000 
     78 O          -6.0143  -26.1595  -46.6272 O.2       13 UNK        -0.5000 
     79 N          -4.1427  -24.9427  -46.2280 N.am      14 UNK        -0.5000 
     80 CA         -3.1806  -26.0445  -46.2451 C.3       14 UNK         0.1400 
     81 CB         -1.8550  -25.5554  -45.6398 C.3       14 UNK        -0.1800 
     82 C          -2.9360  -26.6572  -47.6354 C.2       14 UNK         0.5000 
     83 O          -2.5461  -27.8235  -47.7075 O.2       14 UNK        -0.5000 
     84 N          -3.1364  -25.8745  -48.7035 N.am      15 UNK        -0.5000 
     85 CA         -2.7977  -26.2580  -50.0754 C.3       15 UNK         0.1400 
     86 CB         -1.4063  -25.6927  -50.4190 C.3       15 UNK        -0.1800 
     87 C          -3.8647  -25.8206  -51.0941 C.2       15 UNK         0.5000 
     88 O          -3.5656  -25.7789  -52.2874 O.2       15 UNK        -0.5000 
     89 N          -5.0758  -25.4815  -50.6245 N.am      16 UNK        -0.5000 
     90 CA         -6.2202  -25.0064  -51.4162 C.3       16 UNK         0.1400 
     91 CB         -6.8042  -26.1581  -52.2608 C.3       16 UNK        -0.1800 
     92 C          -5.8816  -23.7578  -52.2607 C.2       16 UNK         0.5000 
     93 O          -6.1102  -23.7372  -53.4723 O.2       16 UNK        -0.5000 
     94 N          -5.2811  -22.7601  -51.5971 N.am      17 UNK        -0.5000 
     95 CA         -4.7568  -21.5118  -52.1621 C.3       17 UNK         0.1400 
     96 CB         -5.8936  -20.6443  -52.7386 C.3       17 UNK        -0.1800 
     97 C          -3.6043  -21.7716  -53.1479 C.2       17 UNK         0.5000 
     98 O          -3.5510  -21.1608  -54.2161 O.2       17 UNK        -0.5000 
     99 N          -2.7241  -22.7090  -52.7605 N.am      18 UNK        -0.5000 
    100 CA        -1.5847  -23.2260  -53.5244 C.3       18 UNK         0.1400 
    101 CB        -0.4883  -22.1469  -53.6449 C.3       18 UNK        -0.1800 
    102 C         -2.0257  -23.8180  -54.8796 C.2       18 UNK         0.5000 
    103 O         -1.4719  -23.4680  -55.9203 O.2       18 UNK        -0.5000 
    104 N         -3.0612  -24.6693  -54.8362 N.am      19 UNK        -0.5000 
    105 CA        -3.7971  -25.2301  -55.9750 C.3       19 UNK         0.1400 
    106 CB        -2.9205  -26.2324  -56.7540 C.3       19 UNK        -0.1800 
    107 C         -4.4089  -24.1280  -56.8684 C.2       19 UNK         0.5000 
    108 O         -4.2778  -24.1695  -58.0930 O.2       19 UNK        -0.5000 
    109 N         -5.0416  -23.1444  -56.2132 N.am      20 UNK        -0.5000 
    110 CA        -5.6600  -21.9344  -56.7665 C.3       20 UNK         0.1400 
    111 CB        -6.8406  -22.2948  -57.6917 C.3       20 UNK        -0.1800 
    112 C         -4.6818  -20.9339  -57.4257 C.2       20 UNK         0.5000 
    113 O         -5.1389  -19.9956  -58.0828 O.2       20 UNK        -0.5000 
    114 N         -3.3657  -21.0981  -57.2200 N.am      21 UNK        -0.5000 
    115 CA        -2.3218  -20.2169  -57.7541 C.3       21 UNK         0.1400 
    116 CB        -0.9399  -20.8545  -57.5591 C.3       21 UNK        -0.1800 
    117 C         -2.3434  -18.7885  -57.1760 C.2       21 UNK         0.5000 
    118 O         -1.8066  -17.8837  -57.8177 O.2       21 UNK        -0.5000 
    119 N         -2.9792  -18.5904  -56.0112 N.am      22 UNK        -0.5000 
    120 CA        -3.2694  -17.2537  -55.4597 C.3       22 UNK         0.1400 
    121 C         -4.2873  -16.4187  -56.2981 C.2       22 UNK         0.5000 
    122 N         -5.0423  -17.0050  -57.2220 N.am      22 UNK        -0.7600 
    123 O         -4.3925  -15.2105  -56.1051 O.2       22 UNK        -0.5000 
    124 C124       -3.7259  -17.2863  -53.9781 C.3       23 UNK        -0.0398 
    125 S125       -2.6480  -18.2375  -52.8574 S.3       23 UNK        -0.2404 
    126 C126       -1.3342  -17.0368  -52.4851 C.3       23 UNK        -0.0205 
    127 H127        1.6282  -18.1223  -43.0547 H         1 UNK         0.0600 
    128 H128        1.3671  -17.9175  -41.3242 H         1 UNK         0.0600 
    129 H129        0.7924  -19.3771  -42.1253 H         1 UNK         0.0600 
    130 H130        0.2326  -16.8691  -44.2628 H         1 UNK         0.3000 
    131 H131       -2.5945  -16.7505  -43.9066 H         1 UNK         0.0600 
    132 H132       -2.4905  -14.9410  -45.6555 H         1 UNK         0.0800 
    133 H133       -0.7539  -14.8946  -45.5153 H         1 UNK         0.0800 
    134 H134       -0.1599  -15.2566  -47.8697 H         1 UNK         0.0800 
    135 H135        0.8194  -16.4367  -47.0248 H         1 UNK         0.0800 
    136 H136       -1.2510  -15.8227  -50.0402 H         1 UNK         0.1150 
    137 H137        0.2692  -19.2137  -52.1756 H         1 UNK         0.1150 
    138 H138        1.3547  -18.5968  -48.0762 H         1 UNK         0.1150 
    139 H139        1.6487  -20.8184  -51.1140 H         1 UNK         0.0800 
    140 H140        2.7004  -20.1873  -49.8699 H         1 UNK         0.0800 
    141 H141       -0.9631  -22.1511  -50.2401 H         1 UNK         0.0800 
    142 H142       -1.1397  -20.5361  -49.6061 H         1 UNK         0.0800 
    143 H143       -1.4492  -23.1098  -48.0118 H         1 UNK         0.0600 
    144 H144       -0.7436  -20.6675  -46.9256 H         1 UNK         0.3000 
    145 H145       -1.7339  -19.7887  -44.6966 H         1 UNK         0.0600 
    146 H146       -1.8982  -20.6473  -42.3738 H         1 UNK         0.0600 
    147 H147       -3.3340  -21.0636  -43.2935 H         1 UNK         0.0600 
    148 H148       -2.1153  -22.2923  -42.9733 H         1 UNK         0.0600 
    149 H149        0.1714  -21.7635  -43.6770 H         1 UNK         0.3000 
    150 H150        2.4251  -20.7625  -43.6156 H         1 UNK         0.0600 
    151 H151        2.1012  -22.9034  -44.9093 H         1 UNK         0.0600 
    152 H152        3.7531  -22.3298  -45.0717 H         1 UNK         0.0600 
    153 H153        2.6070  -22.0973  -46.3893 H         1 UNK         0.0600 
    154 H154        2.6612  -19.1667  -46.0029 H         1 UNK         0.3000 
    155 H155        5.6779  -18.4553  -46.2171 H         1 UNK         0.0600 
    156 H156        4.4010  -16.3663  -46.8593 H         1 UNK         0.0600 
    157 H157        3.0746  -16.8815  -45.8249 H         1 UNK         0.0600 
    158 H158        3.5366  -17.8416  -47.2301 H         1 UNK         0.0600 
    159 H159        6.6426  -17.0488  -44.8334 H         1 UNK         0.3000 
    160 H160        7.0913  -16.0281  -42.7878 H         1 UNK         0.0600 
    161 H161        5.4525  -13.6884  -43.9109 H         1 UNK         0.0600 
    162 H162        6.8069  -14.4777  -44.7047 H         1 UNK         0.0600 
    163 H163        7.0725  -13.5617  -43.2307 H         1 UNK         0.0600 
    164 H164        5.0269  -14.3104  -41.5558 H         1 UNK         0.3000 
    165 H165        4.8692  -16.1414  -38.5721 H         1 UNK         0.0600 
    166 H166        6.5755  -13.6129  -38.8843 H         1 UNK         0.0600 
    167 H167        5.7995  -14.1595  -37.3971 H         1 UNK         0.0600 
    168 H168        7.0917  -15.1085  -38.1144 H         1 UNK         0.0600 
    169 H169        4.1877  -13.4300  -39.3998 H         1 UNK         0.3000 
    170 H170        0.7898  -14.2552  -39.7681 H         1 UNK         0.0600 
    171 H171        2.0030  -12.7105  -38.2007 H         1 UNK         0.0600 
    172 H172        2.8034  -11.9469  -39.5714 H         1 UNK         0.0600 
    173 H173        1.0568  -11.8523  -39.4041 H         1 UNK         0.0600 
    174 H174        0.7130  -13.7579  -41.8984 H         1 UNK         0.3000 
    175 H175        2.7927  -11.9930  -44.1816 H         1 UNK         0.0600 
    176 H176        1.8327  -13.7881  -45.6730 H         1 UNK         0.0600 
    177 H177        3.2167  -14.3438  -44.7529 H         1 UNK         0.0600 
    178 H178        1.5976  -14.8169  -44.2579 H         1 UNK         0.0600 
    179 H179        0.0372  -12.8408  -44.1475 H         1 UNK         0.3000 
    180 H180       -1.2993   -9.8315  -42.7670 H         1 UNK         0.0600 
    181 H181       -1.0128   -9.5075  -45.2654 H         1 UNK         0.0600 
    182 H182       -2.6402  -10.0138  -44.8537 H         1 UNK         0.0600 
    183 H183       -1.5022  -11.1775  -45.5284 H         1 UNK         0.0600 
    184 H184       -1.2525  -12.6548  -42.6966 H         1 UNK         0.3000 
    185 H185       -3.0526  -13.4287  -41.0327 H         1 UNK         0.0600 
    186 H186       -5.3994  -12.6215  -41.0769 H         1 UNK         0.0600 
    187 H187       -5.6307  -13.3121  -42.6795 H         1 UNK         0.0600 
    188 H188       -5.3359  -14.3613  -41.2926 H         1 UNK         0.0600 
    189 H189       -3.8948  -14.9017  -43.3543 H         1 UNK         0.3000 
    190 H190       -3.5212  -20.3225  -47.6858 H         1 UNK         0.3000 
    191 H191       -5.6125  -20.8658  -49.4880 H         1 UNK         0.0600 
    192 H192       -5.3971  -18.7567  -48.2238 H         1 UNK         0.0600 
    193 H193       -6.9625  -19.4887  -47.9105 H         1 UNK         0.0600 
    194 H194       -5.6871  -19.6022  -46.7032 H         1 UNK         0.0600 
    195 H195       -4.9123  -22.2929  -46.3088 H         1 UNK         0.3000 
    196 H196       -7.3319  -24.0456  -46.4754 H         1 UNK         0.0600 
    197 H197       -6.8725  -24.4501  -44.0625 H         1 UNK         0.0600 
    198 H198       -7.1131  -22.7388  -44.3795 H         1 UNK         0.0600 
    199 H199       -5.4863  -23.3664  -44.1234 H         1 UNK         0.0600 
    200 H200       -3.7681  -24.0283  -45.9846 H         1 UNK         0.3000 
    201 H201       -3.5680  -26.8391  -45.6039 H         1 UNK         0.0600 
    202 H202       -2.0004  -25.1669  -44.6315 H         1 UNK         0.0600 
    203 H203       -1.4042  -24.7653  -46.2403 H         1 UNK         0.0600 
    204 H204       -1.1315  -26.3689  -45.5731 H         1 UNK         0.0600 
    205 H205       -3.4500  -24.9189  -48.5745 H         1 UNK         0.3000 
    206 H206       -2.7515  -27.3454  -50.1596 H         1 UNK         0.0600 
    207 H207       -1.0801  -26.0164  -51.4079 H         1 UNK         0.0600 
    208 H208       -1.4033  -24.6029  -50.4068 H         1 UNK         0.0600 
    209 H209       -0.6550  -26.0356  -49.7075 H         1 UNK         0.0600 
    210 H210       -5.2291  -25.5533  -49.6290 H         1 UNK         0.3000 
    211 H211       -6.9857  -24.6961  -50.7033 H         1 UNK         0.0600 
    212 H212       -6.1012  -26.5027  -53.0199 H         1 UNK         0.0600 
    213 H213       -7.7121  -25.8424  -52.7760 H         1 UNK         0.0600 
    214 H214       -7.0665  -27.0112  -51.6353 H         1 UNK         0.0600 
    215 H215       -5.0330  -22.9304  -50.6275 H         1 UNK         0.3000 
    216 H216       -4.3056  -20.9529  -51.3426 H         1 UNK         0.0600 
    217 H217       -6.6568  -20.4483  -51.9856 H         1 UNK         0.0600 
    218 H218       -6.3800  -21.1164  -53.5909 H         1 UNK         0.0600 
    219 H219       -5.5157  -19.6800  -53.0727 H         1 UNK         0.0600 
    220 H220       -2.9127  -23.1808  -51.8880 H         1 UNK         0.3000 
    221 H221       -1.1685  -24.0555  -52.9526 H         1 UNK         0.0600 
    222 H222       -0.8443  -21.2623  -54.1729 H         1 UNK         0.0600 
    223 H223       -0.1452  -21.8274  -52.6614 H         1 UNK         0.0600 
    224 H224        0.3803  -22.5262  -54.1841 H         1 UNK         0.0600 
    225 H225       -3.4112  -24.9371  -53.9178 H         1 UNK         0.3000 
    226 H226       -4.6369  -25.7837  -55.5523 H         1 UNK         0.0600 
    227 H227       -2.5227  -27.0027  -56.0934 H         1 UNK         0.0600 
    228 H228       -3.4997  -26.7364  -57.5284 H         1 UNK         0.0600 
    229 H229       -2.0784  -25.7422  -57.2432 H         1 UNK         0.0600 
    230 H230       -5.1144  -23.2312  -55.2041 H         1 UNK         0.3000 
    231 H231       -6.0747  -21.4054  -55.9088 H         1 UNK         0.0600 
    232 H232       -7.5328  -22.9779  -57.1993 H         1 UNK         0.0600 
    233 H233       -6.5035  -22.7648  -58.6157 H         1 UNK         0.0600 
    234 H234       -7.4083  -21.4056  -57.9681 H         1 UNK         0.0600 
    235 H235       -3.0586  -21.8564  -56.6237 H         1 UNK         0.3000 
    236 H236       -2.4945  -20.1266  -58.8284 H         1 UNK         0.0600 
    237 H237       -0.1595  -20.2440  -58.0148 H         1 UNK         0.0600 
    238 H238       -0.6941  -20.9615  -56.5032 H         1 UNK         0.0600 
    239 H239       -0.8904  -21.8402  -58.0220 H         1 UNK         0.0600 
    240 H240       -3.3412  -19.3896  -55.5026 H         1 UNK         0.3000 
    241 H241       -2.3321  -16.6948  -55.4886 H         1 UNK         0.0600 
    242 H242       -4.9696  -17.9978  -57.4109 H         1 UNK         0.3800 
    243 H243       -5.6910  -16.4467  -57.7539 H         1 UNK         0.3800 
    244 H244       -3.8175  -16.2722  -53.5852 H         1 UNK         0.0800 
    245 H245       -4.7257  -17.7155  -53.9125 H         1 UNK         0.0800 
    246 H246       -0.6604  -16.9596  -53.3395 H         1 UNK         0.0800 
    247 H247       -1.7704  -16.0476  -52.3389 H         1 UNK         0.0800 
@<TRIPOS>BOND
     1    1    2 1    
     2    1  127 1    
     3    1  128 1    
     4    1  129 1    
     5    2    3 2    
     6    2    4 am   BACKBONE|DICT|INTERRES
     7    4    5 1    
     8    4  130 1    
     9    5    6 1    
    10    5   65 1    
    11    5  131 1    
    12    6    7 1    
    13    6  132 1    
    14    6  133 1    
    15    7    8 1    
    16    8    9 1    
    17    8  134 1    
    18    8  135 1    
    19    9   10 ar   
    20    9   14 ar   
    21   10   11 ar   
    22   10  136 1    
    23   11   12 ar   
    24   11  126 1    
    25   12   13 ar   
    26   12  137 1    
    27   13   14 ar   
    28   13   15 1    
    29   14  138 1    
    30   15   16 1    
    31   15  139 1    
    32   15  140 1    
    33   16   17 1    
    34   17   18 1    
    35   17  141 1    
    36   17  142 1    
    37   18   19 1    
    38   18   67 1    
    39   18  143 1    
    40   19   20 am   BACKBONE|DICT|INTERRES
    41   19  144 1    
    42   20   21 2    
    43   20   22 1    
    44   22   23 1    
    45   22   24 1    
    46   22  145 1    
    47   23  146 1    
    48   23  147 1    
    49   23  148 1    
    50   24   25 am   BACKBONE|DICT|INTERRES
    51   24  149 1    
    52   25   26 2    
    53   25   27 1    
    54   27   28 1    
    55   27   29 1    
    56   27  150 1    
    57   28  151 1    
    58   28  152 1    
    59   28  153 1    
    60   29   30 am   BACKBONE|DICT|INTERRES
    61   29  154 1    
    62   30   31 2    
    63   30   32 1    
    64   32   33 1    
    65   32   34 1    
    66   32  155 1    
    67   33  156 1    
    68   33  157 1    
    69   33  158 1    
    70   34   35 am   BACKBONE|DICT|INTERRES
    71   34  159 1    
    72   35   36 2    
    73   35   37 1    
    74   37   38 1    
    75   37   39 1    
    76   37  160 1    
    77   38  161 1    
    78   38  162 1    
    79   38  163 1    
    80   39   40 am   BACKBONE|DICT|INTERRES
    81   39  164 1    
    82   40   41 2    
    83   40   42 1    
    84   42   43 1    
    85   42   44 1    
    86   42  165 1    
    87   43  166 1    
    88   43  167 1    
    89   43  168 1    
    90   44   45 am   BACKBONE|DICT|INTERRES
    91   44  169 1    
    92   45   46 2    
    93   45   47 1    
    94   47   48 1    
    95   47   49 1    
    96   47  170 1    
    97   48  171 1    
    98   48  172 1    
    99   48  173 1    
   100   49   50 am   BACKBONE|DICT|INTERRES
   101   49  174 1    
   102   50   51 2    
   103   50   52 1    
   104   52   53 1    
   105   52   54 1    
   106   52  175 1    
   107   53  176 1    
   108   53  177 1    
   109   53  178 1    
   110   54   55 am   BACKBONE|DICT|INTERRES
   111   54  179 1    
   112   55   56 2    
   113   55   57 1    
   114   57   58 1    
   115   57   59 1    
   116   57  180 1    
   117   58  181 1    
   118   58  182 1    
   119   58  183 1    
   120   59   60 am   BACKBONE|DICT|INTERRES
   121   59  184 1    
   122   60   61 2    
   123   60   62 1    
   124   62   63 1    
   125   62   64 1    
   126   62  185 1    
   127   63  186 1    
   128   63  187 1    
   129   63  188 1    
   130   64   65 am   BACKBONE|DICT|INTERRES
   131   64  189 1    
   132   65   66 2    
   133   67   68 2    
   134   67   69 am   BACKBONE|DICT|INTERRES
   135   69   70 1    
   136   69  190 1    
   137   70   71 1    
   138   70   72 1    
   139   70  191 1    
   140   71  192 1    
   141   71  193 1    
   142   71  194 1    
   143   72   73 2    
   144   72   74 am   BACKBONE|DICT|INTERRES
   145   74   75 1    
   146   74  195 1    
   147   75   76 1    
   148   75   77 1    
   149   75  196 1    
   150   76  197 1    
   151   76  198 1    
   152   76  199 1    
   153   77   78 2    
   154   77   79 am   BACKBONE|DICT|INTERRES
   155   79   80 1    
   156   79  200 1    
   157   80   81 1    
   158   80   82 1    
   159   80  201 1    
   160   81  202 1    
   161   81  203 1    
   162   81  204 1    
   163   82   83 2    
   164   82   84 am   BACKBONE|DICT|INTERRES
   165   84   85 1    
   166   84  205 1    
   167   85   86 1    
   168   85   87 1    
   169   85  206 1    
   170   86  207 1    
   171   86  208 1    
   172   86  209 1    
   173   87   88 2    
   174   87   89 am   BACKBONE|DICT|INTERRES
   175   89   90 1    
   176   89  210 1    
   177   90   91 1    
   178   90   92 1    
   179   90  211 1    
   180   91  212 1    
   181   91  213 1    
   182   91  214 1    
   183   92   93 2    
   184   92   94 am   BACKBONE|DICT|INTERRES
   185   94   95 1    
   186   94  215 1    
   187   95   96 1    
   188   95   97 1    
   189   95  216 1    
   190   96  217 1    
   191   96  218 1    
   192   96  219 1    
   193   97   98 2    
   194   97   99 am   BACKBONE|DICT|INTERRES
   195   99  100 1    
   196   99  220 1    
   197  100  101 1    
   198  100  102 1    
   199  100  221 1    
   200  101  222 1    
   201  101  223 1    
   202  101  224 1    
   203  102  103 2    
   204  102  104 am   BACKBONE|DICT|INTERRES
   205  104  105 1    
   206  104  225 1    
   207  105  106 1    
   208  105  107 1    
   209  105  226 1    
   210  106  227 1    
   211  106  228 1    
   212  106  229 1    
   213  107  108 2    
   214  107  109 am   BACKBONE|DICT|INTERRES
   215  109  110 1    
   216  109  230 1    
   217  110  111 1    
   218  110  112 1    
   219  110  231 1    
   220  111  232 1    
   221  111  233 1    
   222  111  234 1    
   223  112  113 2    
   224  112  114 am   BACKBONE|DICT|INTERRES
   225  114  115 1    
   226  114  235 1    
   227  115  116 1    
   228  115  117 1    
   229  115  236 1    
   230  116  237 1    
   231  116  238 1    
   232  116  239 1    
   233  117  118 2    
   234  117  119 am   BACKBONE|DICT|INTERRES
   235  119  120 1    
   236  119  240 1    
   237  120  121 1    
   238  120  124 1    
   239  120  241 1    
   240  121  122 am   BACKBONE|DICT|INTERRES
   241  121  123 2    
   242  122  242 1    
   243  122  243 1    
   244  124  125 1    
   245  124  244 1    
   246  124  245 1    
   247  125  126 1    
   248  126  246 1    
   249  126  247 1    
@<TRIPOS>SUBSTRUCTURE
     1 UNK         1 GROUP             0       ****    0 ROOT    
