@<TRIPOS>MOLECULE
3R540
247   249    1
SMALL
USER_CHARGES


@<TRIPOS>ATOM
      1 CA         -3.5330  -15.0943  -43.4011 C.3       0 UNK        -0.1800 
      2 C          -2.6160  -14.3701  -44.3769 C.2       0 UNK         0.5000 
      3 O          -1.4483  -14.7328  -44.4888 O.2       0 UNK        -0.5000 
      4 N          -3.1473  -13.3401  -45.0536 N.am      1 UNK        -0.5000 
      5 CA         -2.5271  -12.5081  -46.1023 C.3       1 UNK         0.1400 
      6 C6         -2.5838  -13.1367  -47.5239 C.3       23 UNK        -0.0398 
      7 S7         -1.5960  -14.6505  -47.7814 S.3       23 UNK        -0.2404 
      8 C8         -1.4659  -14.6698  -49.5939 C.3       23 UNK        -0.0205 
      9 C9         -1.5984  -16.0812  -50.1411 C.ar      23 UNK        -0.0193 
     10 C10        -2.8646  -16.6092  -50.4038 C.ar      23 UNK        -0.1150 
     11 C11        -3.0030  -17.8929  -50.9370 C.ar      23 UNK        -0.0193 
     12 C12        -1.8605  -18.6494  -51.2122 C.ar      23 UNK        -0.1150 
     13 C13        -0.5871  -18.1369  -50.9442 C.ar      23 UNK        -0.0193 
     14 C14        -0.4633  -16.8521  -50.4053 C.ar      23 UNK        -0.1150 
     15 C15         0.6601  -18.9507  -51.2647 C.3       23 UNK        -0.0205 
     16 S16         0.7110  -20.5669  -50.4247 S.3       23 UNK        -0.2404 
     17 C17         0.6808  -20.1079  -48.6574 C.3       23 UNK        -0.0398 
     18 CA         -0.2899  -20.9995  -47.8441 C.3       11 UNK         0.1400 
     19 N           0.0557  -21.0440  -46.4212 N.am      11 UNK        -0.5000 
     20 C          -0.4586  -21.9184  -45.5436 C.2       10 UNK         0.5000 
     21 O          -1.2353  -22.8210  -45.8515 O.2       10 UNK        -0.5000 
     22 CA         -0.0738  -21.7349  -44.0655 C.3       10 UNK         0.1400 
     23 CB          1.2907  -22.3775  -43.7755 C.3       10 UNK        -0.1800 
     24 N          -0.0568  -20.3302  -43.6591 N.am      10 UNK        -0.5000 
     25 C          -1.1325  -19.5303  -43.6409 C.2       9 UNK         0.5000 
     26 O          -2.2719  -19.9133  -43.9058 O.2       9 UNK        -0.5000 
     27 CA         -0.8875  -18.0434  -43.3243 C.3       9 UNK         0.1400 
     28 CB         -0.7769  -17.8077  -41.8113 C.3       9 UNK        -0.1800 
     29 N           0.2989  -17.5084  -43.9915 N.am      9 UNK        -0.5000 
     30 C           0.4510  -17.4360  -45.3223 C.2       8 UNK         0.5000 
     31 O          -0.3840  -17.8297  -46.1352 O.2       8 UNK        -0.5000 
     32 CA          1.8041  -16.9127  -45.8279 C.3       8 UNK         0.1400 
     33 CB          1.8800  -15.3824  -45.7254 C.3       8 UNK        -0.1800 
     34 N           2.9152  -17.5193  -45.0939 N.am      8 UNK        -0.5000 
     35 C           3.2533  -18.8144  -45.1799 C.2       7 UNK         0.5000 
     36 O           2.6921  -19.6199  -45.9225 O.2       7 UNK        -0.5000 
     37 CA          4.3797  -19.2996  -44.2493 C.3       7 UNK         0.1400 
     38 CB          5.7563  -18.9953  -44.8587 C.3       7 UNK        -0.1800 
     39 N           4.2998  -18.7126  -42.9108 N.am      7 UNK        -0.5000 
     40 C           3.3052  -18.9400  -42.0409 C.2       6 UNK         0.5000 
     41 O           2.3606  -19.6939  -42.2660 O.2       6 UNK        -0.5000 
     42 CA          3.3499  -18.1650  -40.7118 C.3       6 UNK         0.1400 
     43 CB          4.1348  -18.9542  -39.6537 C.3       6 UNK        -0.1800 
     44 N           3.9213  -16.8224  -40.8384 N.am      6 UNK        -0.5000 
     45 C           3.4046  -15.8400  -41.5868 C.2       5 UNK         0.5000 
     46 O           2.3894  -15.9634  -42.2760 O.2       5 UNK        -0.5000 
     47 CA          4.1519  -14.4965  -41.5556 C.3       5 UNK         0.1400 
     48 CB          4.4137  -13.9632  -42.9733 C.3       5 UNK        -0.1800 
     49 N           3.3970  -13.5136  -40.7762 N.am      5 UNK        -0.5000 
     50 C           3.3867  -13.4872  -39.4345 C.2       4 UNK         0.5000 
     51 O           4.0342  -14.2800  -38.7478 O.2       4 UNK        -0.5000 
     52 CA          2.5417  -12.4069  -38.7300 C.3       4 UNK         0.1400 
     53 CB          3.2994  -11.7801  -37.5398 C.3       4 UNK        -0.1800 
     54 N           2.0846  -11.3494  -39.6373 N.am      4 UNK        -0.5000 
     55 C           1.0222  -10.5660  -39.4023 C.2       3 UNK         0.5000 
     56 O           0.2759  -10.6941  -38.4305 O.2       3 UNK        -0.5000 
     57 CA          0.7462   -9.4460  -40.4223 C.3       3 UNK         0.1400 
     58 CB          1.6905   -8.2553  -40.1917 C.3       3 UNK        -0.1800 
     59 N           0.8604   -9.8971  -41.8100 N.am      3 UNK        -0.5000 
     60 C          -0.0073  -10.7265  -42.4027 C.2       2 UNK         0.5000 
     61 O          -0.9985  -11.2031  -41.8412 O.2       2 UNK        -0.5000 
     62 CA          0.2885  -11.0870  -43.8646 C.3       2 UNK         0.1400 
     63 CB          1.4650  -12.0738  -43.9523 C.3       2 UNK        -0.1800 
     64 N          -0.9088  -11.6831  -44.4423 N.am      2 UNK        -0.5000 
     65 C          -1.1643  -11.8633  -45.7419 C.2       1 UNK         0.5000 
     66 O          -0.3970  -11.4983  -46.6350 O.2       1 UNK        -0.5000 
     67 C          -1.7692  -20.6135  -48.0548 C.2       11 UNK         0.5000 
     68 O          -2.4703  -21.2957  -48.7979 O.2       11 UNK        -0.5000 
     69 N          -2.2443  -19.5814  -47.3443 N.am      12 UNK        -0.5000 
     70 CA         -3.6368  -19.1277  -47.3713 C.3       12 UNK         0.1400 
     71 CB         -3.7708  -17.8466  -46.5350 C.3       12 UNK        -0.1800 
     72 C          -4.6486  -20.1938  -46.9036 C.2       12 UNK         0.5000 
     73 O          -5.7668  -20.2355  -47.4179 O.2       12 UNK        -0.5000 
     74 N          -4.2374  -21.0368  -45.9486 N.am      13 UNK        -0.5000 
     75 CA         -5.0377  -22.1271  -45.3941 C.3       13 UNK         0.1400 
     76 CB         -4.5333  -22.4206  -43.9719 C.3       13 UNK        -0.1800 
     77 C          -5.0203  -23.4172  -46.2408 C.2       13 UNK         0.5000 
     78 O          -5.8580  -24.2891  -46.0024 O.2       13 UNK        -0.5000 
     79 N          -4.0644  -23.5555  -47.1703 N.am      14 UNK        -0.5000 
     80 CA         -3.8419  -24.7778  -47.9451 C.3       14 UNK         0.1400 
     81 CB         -2.4425  -24.7354  -48.5761 C.3       14 UNK        -0.1800 
     82 C          -4.9343  -25.0345  -49.0037 C.2       14 UNK         0.5000 
     83 O          -5.4339  -24.0966  -49.6298 O.2       14 UNK        -0.5000 
     84 N          -5.2724  -26.3172  -49.1846 N.am      15 UNK        -0.5000 
     85 CA         -6.3031  -26.8091  -50.1005 C.3       15 UNK         0.1400 
     86 CB         -6.6466  -28.2548  -49.7049 C.3       15 UNK        -0.1800 
     87 C          -5.8835  -26.7438  -51.5822 C.2       15 UNK         0.5000 
     88 O          -4.6991  -26.5865  -51.8888 O.2       15 UNK        -0.5000 
     89 N          -6.8758  -26.8890  -52.4745 N.am      16 UNK        -0.5000 
     90 CA         -6.7544  -26.9159  -53.9402 C.3       16 UNK         0.1400 
     91 CB         -6.0008  -28.1828  -54.3984 C.3       16 UNK        -0.1800 
     92 C          -6.1438  -25.6184  -54.5080 C.2       16 UNK         0.5000 
     93 O          -5.2536  -25.6690  -55.3592 O.2       16 UNK        -0.5000 
     94 N          -6.6001  -24.4758  -53.9703 N.am      17 UNK        -0.5000 
     95 CA         -6.0751  -23.1254  -54.2102 C.3       17 UNK         0.1400 
     96 CB         -6.3867  -22.6626  -55.6493 C.3       17 UNK        -0.1800 
     97 C          -4.5777  -23.0227  -53.8538 C.2       17 UNK         0.5000 
     98 O          -3.7997  -22.4369  -54.6070 O.2       17 UNK        -0.5000 
     99 N          -4.2044  -23.6412  -52.7249 N.am      18 UNK        -0.5000 
    100 CA        -2.8420  -23.8198  -52.2193 C.3       18 UNK         0.1400 
    101 CB        -2.2354  -22.4605  -51.8306 C.3       18 UNK        -0.1800 
    102 C         -1.9530  -24.6178  -53.1921 C.2       18 UNK         0.5000 
    103 O         -0.8169  -24.2257  -53.4540 O.2       18 UNK        -0.5000 
    104 N         -2.5124  -25.6963  -53.7597 N.am      19 UNK        -0.5000 
    105 CA        -1.9628  -26.4780  -54.8761 C.3       19 UNK         0.1400 
    106 CB        -0.7541  -27.3158  -54.4120 C.3       19 UNK        -0.1800 
    107 C         -1.6555  -25.5867  -56.1026 C.2       19 UNK         0.5000 
    108 O         -0.5747  -25.6712  -56.6879 O.2       19 UNK        -0.5000 
    109 N         -2.6184  -24.7107  -56.4188 N.am      20 UNK        -0.5000 
    110 CA        -2.6132  -23.6525  -57.4336 C.3       20 UNK         0.1400 
    111 CB        -2.3738  -24.2295  -58.8437 C.3       20 UNK        -0.1800 
    112 C         -1.6938  -22.4439  -57.1402 C.2       20 UNK         0.5000 
    113 O         -1.6951  -21.5034  -57.9375 O.2       20 UNK        -0.5000 
    114 N         -0.9616  -22.4281  -56.0135 N.am      21 UNK        -0.5000 
    115 CA        -0.0715  -21.3226  -55.6285 C.3       21 UNK         0.1400 
    116 CB         0.8451  -21.7548  -54.4743 C.3       21 UNK        -0.1800 
    117 C         -0.8107  -20.0179  -55.2666 C.2       21 UNK         0.5000 
    118 O         -0.2040  -18.9480  -55.3296 O.2       21 UNK        -0.5000 
    119 N         -2.1004  -20.1189  -54.9212 N.am      22 UNK        -0.5000 
    120 CA        -3.0117  -18.9817  -54.7247 C.3       22 UNK         0.1400 
    121 C         -3.4590  -18.2978  -56.0552 C.2       22 UNK         0.5000 
    122 N         -3.1958  -18.8681  -57.2272 N.am      22 UNK        -0.7600 
    123 O         -4.0434  -17.2187  -56.0312 O.2       22 UNK        -0.5000 
    124 C124       -4.2234  -19.4091  -53.8551 C.3       23 UNK        -0.0398 
    125 S125       -4.9719  -18.0640  -52.8770 S.3       23 UNK        -0.2404 
    126 C126       -4.3908  -18.4562  -51.1969 C.3       23 UNK        -0.0205 
    127 H127       -4.4565  -14.5420  -43.2260 H         1 UNK         0.0600 
    128 H128       -3.0317  -15.2286  -42.4424 H         1 UNK         0.0600 
    129 H129       -3.7929  -16.0778  -43.7919 H         1 UNK         0.0600 
    130 H130       -4.1113  -13.1054  -44.8627 H         1 UNK         0.3000 
    131 H131       -3.1910  -11.6438  -46.1534 H         1 UNK         0.0600 
    132 H132       -3.6192  -13.3811  -47.7642 H         1 UNK         0.0800 
    133 H133       -2.2844  -12.3937  -48.2651 H         1 UNK         0.0800 
    134 H134       -2.2409  -14.0423  -50.0364 H         1 UNK         0.0800 
    135 H135       -0.5119  -14.2306  -49.8890 H         1 UNK         0.0800 
    136 H136       -3.7445  -16.0173  -50.1942 H         1 UNK         0.1150 
    137 H137       -1.9592  -19.6401  -51.6298 H         1 UNK         0.1150 
    138 H138        0.5166  -16.4441  -50.2011 H         1 UNK         0.1150 
    139 H139        0.6986  -19.1168  -52.3423 H         1 UNK         0.0800 
    140 H140        1.5637  -18.3959  -51.0078 H         1 UNK         0.0800 
    141 H141        0.4492  -19.0497  -48.5276 H         1 UNK         0.0800 
    142 H142        1.6993  -20.2368  -48.2909 H         1 UNK         0.0800 
    143 H143       -0.1767  -22.0234  -48.2085 H         1 UNK         0.0600 
    144 H144        0.7142  -20.3472  -46.0917 H         1 UNK         0.3000 
    145 H145       -0.8254  -22.2471  -43.4612 H         1 UNK         0.0600 
    146 H146        1.5276  -22.3351  -42.7123 H         1 UNK         0.0600 
    147 H147        1.2987  -23.4280  -44.0686 H         1 UNK         0.0600 
    148 H148        2.0944  -21.8780  -44.3174 H         1 UNK         0.0600 
    149 H149        0.8401  -19.9552  -43.3613 H         1 UNK         0.3000 
    150 H150       -1.7482  -17.4839  -43.6934 H         1 UNK         0.0600 
    151 H151       -0.6568  -16.7474  -41.5869 H         1 UNK         0.0600 
    152 H152       -1.6754  -18.1510  -41.2973 H         1 UNK         0.0600 
    153 H153        0.0718  -18.3398  -41.3816 H         1 UNK         0.0600 
    154 H154        1.0326  -17.1370  -43.3988 H         1 UNK         0.3000 
    155 H155        1.9004  -17.1865  -46.8809 H         1 UNK         0.0600 
    156 H156        1.7335  -15.0418  -44.7011 H         1 UNK         0.0600 
    157 H157        1.1029  -14.9150  -46.3311 H         1 UNK         0.0600 
    158 H158        2.8403  -15.0044  -46.0758 H         1 UNK         0.0600 
    159 H159        3.3824  -16.9374  -44.4147 H         1 UNK         0.3000 
    160 H160        4.2831  -20.3828  -44.1488 H         1 UNK         0.0600 
    161 H161        5.9265  -17.9225  -44.9582 H         1 UNK         0.0600 
    162 H162        5.8485  -19.4360  -45.8524 H         1 UNK         0.0600 
    163 H163        6.5583  -19.4076  -44.2463 H         1 UNK         0.0600 
    164 H164        5.0387  -18.0800  -42.6419 H         1 UNK         0.3000 
    165 H165        2.3219  -18.0551  -40.3610 H         1 UNK         0.0600 
    166 H166        4.0984  -18.4575  -38.6839 H         1 UNK         0.0600 
    167 H167        3.7161  -19.9529  -39.5217 H         1 UNK         0.0600 
    168 H168        5.1826  -19.0714  -39.9328 H         1 UNK         0.0600 
    169 H169        4.7341  -16.6244  -40.2719 H         1 UNK         0.3000 
    170 H170        5.1273  -14.6434  -41.0862 H         1 UNK         0.0600 
    171 H171        5.0627  -14.6427  -43.5267 H         1 UNK         0.0600 
    172 H172        3.4963  -13.8585  -43.5482 H         1 UNK         0.0600 
    173 H173        4.9080  -12.9920  -42.9469 H         1 UNK         0.0600 
    174 H174        2.7743  -12.9099  -41.2890 H         1 UNK         0.3000 
    175 H175        1.6665  -12.9308  -38.3403 H         1 UNK         0.0600 
    176 H176        4.1902  -11.2461  -37.8724 H         1 UNK         0.0600 
    177 H177        2.6734  -11.0760  -36.9918 H         1 UNK         0.0600 
    178 H178        3.6181  -12.5401  -36.8254 H         1 UNK         0.0600 
    179 H179        2.6680  -11.1546  -40.4378 H         1 UNK         0.3000 
    180 H180       -0.2766   -9.0973  -40.2617 H         1 UNK         0.0600 
    181 H181        2.7328   -8.5234  -40.3686 H         1 UNK         0.0600 
    182 H182        1.6151   -7.8910  -39.1662 H         1 UNK         0.0600 
    183 H183        1.4419   -7.4223  -40.8496 H         1 UNK         0.0600 
    184 H184        1.6421   -9.5392  -42.3399 H         1 UNK         0.3000 
    185 H185        0.5290  -10.1707  -44.4074 H         1 UNK         0.0600 
    186 H186        2.3721  -11.6448  -43.5260 H         1 UNK         0.0600 
    187 H187        1.2448  -12.9966  -43.4135 H         1 UNK         0.0600 
    188 H188        1.6910  -12.3375  -44.9854 H         1 UNK         0.0600 
    189 H189       -1.5910  -11.9805  -43.7555 H         1 UNK         0.3000 
    190 H190       -1.5982  -19.0340  -46.7779 H         1 UNK         0.3000 
    191 H191       -3.8788  -18.8830  -48.4052 H         1 UNK         0.0600 
    192 H192       -3.1111  -17.0639  -46.9085 H         1 UNK         0.0600 
    193 H193       -4.7893  -17.4586  -46.5705 H         1 UNK         0.0600 
    194 H194       -3.5198  -18.0221  -45.4890 H         1 UNK         0.0600 
    195 H195       -3.3204  -20.8936  -45.5413 H         1 UNK         0.3000 
    196 H196       -6.0769  -21.7999  -45.3212 H         1 UNK         0.0600 
    197 H197       -5.1205  -23.2093  -43.4998 H         1 UNK         0.0600 
    198 H198       -4.6074  -21.5373  -43.3372 H         1 UNK         0.0600 
    199 H199       -3.4911  -22.7426  -43.9756 H         1 UNK         0.0600 
    200 H200       -3.4342  -22.7834  -47.3477 H         1 UNK         0.3000 
    201 H201       -3.8545  -25.6140  -47.2426 H         1 UNK         0.0600 
    202 H202       -1.6680  -24.7193  -47.8094 H         1 UNK         0.0600 
    203 H203       -2.3081  -23.8516  -49.1965 H         1 UNK         0.0600 
    204 H204       -2.2622  -25.6119  -49.1997 H         1 UNK         0.0600 
    205 H205       -4.7780  -27.0254  -48.6624 H         1 UNK         0.3000 
    206 H206       -7.1940  -26.1906  -49.9731 H         1 UNK         0.0600 
    207 H207       -6.9796  -28.3117  -48.6683 H         1 UNK         0.0600 
    208 H208       -7.4517  -28.6558  -50.3220 H         1 UNK         0.0600 
    209 H209       -5.7872  -28.9171  -49.8182 H         1 UNK         0.0600 
    210 H210       -7.8152  -27.0111  -52.1219 H         1 UNK         0.3000 
    211 H211       -7.7687  -26.9743  -54.3376 H         1 UNK         0.0600 
    212 H212       -4.9597  -28.1777  -54.0742 H         1 UNK         0.0600 
    213 H213       -6.0032  -28.2674  -55.4857 H         1 UNK         0.0600 
    214 H214       -6.4695  -29.0838  -54.0030 H         1 UNK         0.0600 
    215 H215       -7.3251  -24.5451  -53.2699 H         1 UNK         0.3000 
    216 H216       -6.5985  -22.4563  -53.5258 H         1 UNK         0.0600 
    217 H217       -6.0791  -21.6284  -55.8059 H         1 UNK         0.0600 
    218 H218       -7.4554  -22.7165  -55.8558 H         1 UNK         0.0600 
    219 H219       -5.8724  -23.2705  -56.3935 H         1 UNK         0.0600 
    220 H220       -4.9171  -24.1116  -52.1839 H         1 UNK         0.3000 
    221 H221       -2.9331  -24.4274  -51.3216 H         1 UNK         0.0600 
    222 H222       -1.9753  -21.8644  -52.7039 H         1 UNK         0.0600 
    223 H223       -2.9353  -21.8801  -51.2319 H         1 UNK         0.0600 
    224 H224       -1.3280  -22.5957  -51.2425 H         1 UNK         0.0600 
    225 H225       -3.4413  -25.9590  -53.4474 H         1 UNK         0.3000 
    226 H226       -2.7475  -27.1696  -55.1860 H         1 UNK         0.0600 
    227 H227       -1.0146  -27.9421  -53.5589 H         1 UNK         0.0600 
    228 H228       -0.4103  -27.9775  -55.2078 H         1 UNK         0.0600 
    229 H229        0.0887  -26.6878  -54.1221 H         1 UNK         0.0600 
    230 H230       -3.4699  -24.7584  -55.8678 H         1 UNK         0.3000 
    231 H231       -3.6261  -23.2488  -57.4219 H         1 UNK         0.0600 
    232 H232       -1.3522  -24.5884  -58.9690 H         1 UNK         0.0600 
    233 H233       -2.5459  -23.4724  -59.6096 H         1 UNK         0.0600 
    234 H234       -3.0508  -25.0581  -59.0516 H         1 UNK         0.0600 
    235 H235       -1.0268  -23.2055  -55.3668 H         1 UNK         0.3000 
    236 H236        0.5642  -21.1039  -56.4889 H         1 UNK         0.0600 
    237 H237        1.3459  -22.6979  -54.6935 H         1 UNK         0.0600 
    238 H238        1.6195  -21.0082  -54.2948 H         1 UNK         0.0600 
    239 H239        0.2935  -21.8726  -53.5419 H         1 UNK         0.0600 
    240 H240       -2.5326  -21.0395  -54.9005 H         1 UNK         0.3000 
    241 H241       -2.4542  -18.2263  -54.1675 H         1 UNK         0.0600 
    242 H242       -3.4862  -18.4059  -58.0741 H         1 UNK         0.3800 
    243 H243       -2.6924  -19.7447  -57.2866 H         1 UNK         0.3800 
    244 H244       -5.0001  -19.8647  -54.4707 H         1 UNK         0.0800 
    245 H245       -3.9179  -20.1871  -53.1562 H         1 UNK         0.0800 
    246 H246       -5.0965  -18.0300  -50.4822 H         1 UNK         0.0800 
    247 H247       -4.4068  -19.5331  -51.0203 H         1 UNK         0.0800 
@<TRIPOS>BOND
     1    1    2 1    
     2    1  127 1    
     3    1  128 1    
     4    1  129 1    
     5    2    3 2    
     6    2    4 am   BACKBONE|DICT|INTERRES
     7    4    5 1    
     8    4  130 1    
     9    5    6 1    
    10    5   65 1    
    11    5  131 1    
    12    6    7 1    
    13    6  132 1    
    14    6  133 1    
    15    7    8 1    
    16    8    9 1    
    17    8  134 1    
    18    8  135 1    
    19    9   10 ar   
    20    9   14 ar   
    21   10   11 ar   
    22   10  136 1    
    23   11   12 ar   
    24   11  126 1    
    25   12   13 ar   
    26   12  137 1    
    27   13   14 ar   
    28   13   15 1    
    29   14  138 1    
    30   15   16 1    
    31   15  139 1    
    32   15  140 1    
    33   16   17 1    
    34   17   18 1    
    35   17  141 1    
    36   17  142 1    
    37   18   19 1    
    38   18   67 1    
    39   18  143 1    
    40   19   20 am   BACKBONE|DICT|INTERRES
    41   19  144 1    
    42   20   21 2    
    43   20   22 1    
    44   22   23 1    
    45   22   24 1    
    46   22  145 1    
    47   23  146 1    
    48   23  147 1    
    49   23  148 1    
    50   24   25 am   BACKBONE|DICT|INTERRES
    51   24  149 1    
    52   25   26 2    
    53   25   27 1    
    54   27   28 1    
    55   27   29 1    
    56   27  150 1    
    57   28  151 1    
    58   28  152 1    
    59   28  153 1    
    60   29   30 am   BACKBONE|DICT|INTERRES
    61   29  154 1    
    62   30   31 2    
    63   30   32 1    
    64   32   33 1    
    65   32   34 1    
    66   32  155 1    
    67   33  156 1    
    68   33  157 1    
    69   33  158 1    
    70   34   35 am   BACKBONE|DICT|INTERRES
    71   34  159 1    
    72   35   36 2    
    73   35   37 1    
    74   37   38 1    
    75   37   39 1    
    76   37  160 1    
    77   38  161 1    
    78   38  162 1    
    79   38  163 1    
    80   39   40 am   BACKBONE|DICT|INTERRES
    81   39  164 1    
    82   40   41 2    
    83   40   42 1    
    84   42   43 1    
    85   42   44 1    
    86   42  165 1    
    87   43  166 1    
    88   43  167 1    
    89   43  168 1    
    90   44   45 am   BACKBONE|DICT|INTERRES
    91   44  169 1    
    92   45   46 2    
    93   45   47 1    
    94   47   48 1    
    95   47   49 1    
    96   47  170 1    
    97   48  171 1    
    98   48  172 1    
    99   48  173 1    
   100   49   50 am   BACKBONE|DICT|INTERRES
   101   49  174 1    
   102   50   51 2    
   103   50   52 1    
   104   52   53 1    
   105   52   54 1    
   106   52  175 1    
   107   53  176 1    
   108   53  177 1    
   109   53  178 1    
   110   54   55 am   BACKBONE|DICT|INTERRES
   111   54  179 1    
   112   55   56 2    
   113   55   57 1    
   114   57   58 1    
   115   57   59 1    
   116   57  180 1    
   117   58  181 1    
   118   58  182 1    
   119   58  183 1    
   120   59   60 am   BACKBONE|DICT|INTERRES
   121   59  184 1    
   122   60   61 2    
   123   60   62 1    
   124   62   63 1    
   125   62   64 1    
   126   62  185 1    
   127   63  186 1    
   128   63  187 1    
   129   63  188 1    
   130   64   65 am   BACKBONE|DICT|INTERRES
   131   64  189 1    
   132   65   66 2    
   133   67   68 2    
   134   67   69 am   BACKBONE|DICT|INTERRES
   135   69   70 1    
   136   69  190 1    
   137   70   71 1    
   138   70   72 1    
   139   70  191 1    
   140   71  192 1    
   141   71  193 1    
   142   71  194 1    
   143   72   73 2    
   144   72   74 am   BACKBONE|DICT|INTERRES
   145   74   75 1    
   146   74  195 1    
   147   75   76 1    
   148   75   77 1    
   149   75  196 1    
   150   76  197 1    
   151   76  198 1    
   152   76  199 1    
   153   77   78 2    
   154   77   79 am   BACKBONE|DICT|INTERRES
   155   79   80 1    
   156   79  200 1    
   157   80   81 1    
   158   80   82 1    
   159   80  201 1    
   160   81  202 1    
   161   81  203 1    
   162   81  204 1    
   163   82   83 2    
   164   82   84 am   BACKBONE|DICT|INTERRES
   165   84   85 1    
   166   84  205 1    
   167   85   86 1    
   168   85   87 1    
   169   85  206 1    
   170   86  207 1    
   171   86  208 1    
   172   86  209 1    
   173   87   88 2    
   174   87   89 am   BACKBONE|DICT|INTERRES
   175   89   90 1    
   176   89  210 1    
   177   90   91 1    
   178   90   92 1    
   179   90  211 1    
   180   91  212 1    
   181   91  213 1    
   182   91  214 1    
   183   92   93 2    
   184   92   94 am   BACKBONE|DICT|INTERRES
   185   94   95 1    
   186   94  215 1    
   187   95   96 1    
   188   95   97 1    
   189   95  216 1    
   190   96  217 1    
   191   96  218 1    
   192   96  219 1    
   193   97   98 2    
   194   97   99 am   BACKBONE|DICT|INTERRES
   195   99  100 1    
   196   99  220 1    
   197  100  101 1    
   198  100  102 1    
   199  100  221 1    
   200  101  222 1    
   201  101  223 1    
   202  101  224 1    
   203  102  103 2    
   204  102  104 am   BACKBONE|DICT|INTERRES
   205  104  105 1    
   206  104  225 1    
   207  105  106 1    
   208  105  107 1    
   209  105  226 1    
   210  106  227 1    
   211  106  228 1    
   212  106  229 1    
   213  107  108 2    
   214  107  109 am   BACKBONE|DICT|INTERRES
   215  109  110 1    
   216  109  230 1    
   217  110  111 1    
   218  110  112 1    
   219  110  231 1    
   220  111  232 1    
   221  111  233 1    
   222  111  234 1    
   223  112  113 2    
   224  112  114 am   BACKBONE|DICT|INTERRES
   225  114  115 1    
   226  114  235 1    
   227  115  116 1    
   228  115  117 1    
   229  115  236 1    
   230  116  237 1    
   231  116  238 1    
   232  116  239 1    
   233  117  118 2    
   234  117  119 am   BACKBONE|DICT|INTERRES
   235  119  120 1    
   236  119  240 1    
   237  120  121 1    
   238  120  124 1    
   239  120  241 1    
   240  121  122 am   BACKBONE|DICT|INTERRES
   241  121  123 2    
   242  122  242 1    
   243  122  243 1    
   244  124  125 1    
   245  124  244 1    
   246  124  245 1    
   247  125  126 1    
   248  126  246 1    
   249  126  247 1    
@<TRIPOS>SUBSTRUCTURE
     1 UNK         1 GROUP             0       ****    0 ROOT    
