@<TRIPOS>MOLECULE
3R540
247   249    1
SMALL
USER_CHARGES


@<TRIPOS>ATOM
      1 CA          7.9354  -12.4793  -47.1185 C.3       0 UNK        -0.1800 
      2 C           6.7343  -13.2707  -46.6226 C.2       0 UNK         0.5000 
      3 O           6.6075  -13.5036  -45.4203 O.2       0 UNK        -0.5000 
      4 N           5.8410  -13.6696  -47.5397 N.am      1 UNK        -0.5000 
      5 CA          4.6449  -14.4883  -47.2757 C.3       1 UNK         0.1400 
      6 C6          3.9221  -14.9158  -48.5804 C.3       23 UNK        -0.0398 
      7 S7          5.0513  -15.7023  -49.7813 S.3       23 UNK        -0.2404 
      8 C8          3.9548  -15.9308  -51.2263 C.3       23 UNK        -0.0205 
      9 C9          3.0478  -17.1640  -51.1976 C.ar      23 UNK        -0.0193 
     10 C10         2.0444  -17.2713  -52.1662 C.ar      23 UNK        -0.1150 
     11 C11         1.2036  -18.3885  -52.2179 C.ar      23 UNK        -0.0193 
     12 C12         1.3740  -19.4143  -51.2832 C.ar      23 UNK        -0.1150 
     13 C13         2.3774  -19.3303  -50.3122 C.ar      23 UNK        -0.0193 
     14 C14         3.2097  -18.2082  -50.2779 C.ar      23 UNK        -0.1150 
     15 C15         2.5994  -20.4703  -49.3288 C.3       23 UNK        -0.0205 
     16 S16         2.3388  -19.9474  -47.6037 S.3       23 UNK        -0.2404 
     17 C17         2.4156  -21.5548  -46.7403 C.3       23 UNK        -0.0398 
     18 CA          1.0411  -22.1542  -46.3481 C.3       11 UNK         0.1400 
     19 N           0.2298  -21.2535  -45.5265 N.am      11 UNK        -0.5000 
     20 C          -0.7470  -21.6738  -44.7116 C.2       10 UNK         0.5000 
     21 O          -1.0489  -22.8588  -44.5593 O.2       10 UNK        -0.5000 
     22 CA         -1.5251  -20.5870  -43.9499 C.3       10 UNK         0.1400 
     23 CB         -0.6632  -19.9964  -42.8235 C.3       10 UNK        -0.1800 
     24 N          -2.0215  -19.5141  -44.8148 N.am      10 UNK        -0.5000 
     25 C          -2.9030  -19.6934  -45.8103 C.2       9 UNK         0.5000 
     26 O          -3.3753  -20.7878  -46.1164 O.2       9 UNK        -0.5000 
     27 CA         -3.3083  -18.4531  -46.6299 C.3       9 UNK         0.1400 
     28 CB         -4.4614  -17.7085  -45.9435 C.3       9 UNK        -0.1800 
     29 N          -2.2171  -17.5155  -46.9004 N.am      9 UNK        -0.5000 
     30 C          -1.0503  -17.8338  -47.4802 C.2       8 UNK         0.5000 
     31 O          -0.7437  -18.9814  -47.7923 O.2       8 UNK        -0.5000 
     32 CA         -0.0453  -16.6987  -47.7583 C.3       8 UNK         0.1400 
     33 CB         -0.0586  -16.3340  -49.2502 C.3       8 UNK        -0.1800 
     34 N          -0.2559  -15.4775  -46.9790 N.am      8 UNK        -0.5000 
     35 C          -0.2247  -15.3908  -45.6430 C.2       7 UNK         0.5000 
     36 O          -0.0718  -16.3641  -44.9033 O.2       7 UNK        -0.5000 
     37 CA         -0.3957  -13.9870  -45.0262 C.3       7 UNK         0.1400 
     38 CB         -0.7657  -12.8766  -46.0382 C.3       7 UNK        -0.1800 
     39 N          -1.3349  -14.0093  -43.9074 N.am      7 UNK        -0.5000 
     40 C          -2.6333  -14.3462  -43.9402 C.2       6 UNK         0.5000 
     41 O          -3.2500  -14.6038  -44.9761 O.2       6 UNK        -0.5000 
     42 CA         -3.3495  -14.3996  -42.5708 C.3       6 UNK         0.1400 
     43 CB         -4.6617  -15.2121  -42.5968 C.3       6 UNK        -0.1800 
     44 N          -2.4664  -14.8525  -41.4869 N.am      6 UNK        -0.5000 
     45 C          -1.8433  -16.0377  -41.4096 C.2       5 UNK         0.5000 
     46 O          -2.0186  -16.9656  -42.1998 O.2       5 UNK        -0.5000 
     47 CA         -0.8244  -16.1964  -40.2651 C.3       5 UNK         0.1400 
     48 CB         -1.1910  -17.3803  -39.3556 C.3       5 UNK        -0.1800 
     49 N           0.5395  -16.3788  -40.7675 N.am      5 UNK        -0.5000 
     50 C           1.2203  -15.4887  -41.5032 C.2       4 UNK         0.5000 
     51 O           0.7651  -14.3915  -41.8399 O.2       4 UNK        -0.5000 
     52 CA          2.6521  -15.8984  -41.9077 C.3       4 UNK         0.1400 
     53 CB          2.6531  -16.9562  -43.0222 C.3       4 UNK        -0.1800 
     54 N           3.4469  -14.7518  -42.3486 N.am      4 UNK        -0.5000 
     55 C           4.0188  -13.8644  -41.5221 C.2       3 UNK         0.5000 
     56 O           3.9863  -13.9616  -40.2939 O.2       3 UNK        -0.5000 
     57 CA          4.7700  -12.6766  -42.1583 C.3       3 UNK         0.1400 
     58 CB          6.2860  -12.9271  -42.1315 C.3       3 UNK        -0.1800 
     59 N           4.3563  -12.3917  -43.5346 N.am      3 UNK        -0.5000 
     60 C           3.1974  -11.8023  -43.8674 C.2       2 UNK         0.5000 
     61 O           2.3804  -11.4000  -43.0389 O.2       2 UNK        -0.5000 
     62 CA          2.8861  -11.6169  -45.3684 C.3       2 UNK         0.1400 
     63 CB          3.0863  -10.1503  -45.7808 C.3       2 UNK        -0.1800 
     64 N           3.6710  -12.4660  -46.2666 N.am      2 UNK        -0.5000 
     65 C           3.6514  -13.8066  -46.3078 C.2       1 UNK         0.5000 
     66 O           2.9263  -14.4962  -45.5934 O.2       1 UNK        -0.5000 
     67 C           0.2510  -22.6694  -47.5654 C.2       11 UNK         0.5000 
     68 O           0.3845  -23.8398  -47.9208 O.2       11 UNK        -0.5000 
     69 N          -0.5774  -21.8060  -48.1678 N.am      12 UNK        -0.5000 
     70 CA         -1.3857  -22.1175  -49.3419 C.3       12 UNK         0.1400 
     71 CB         -2.0260  -20.8357  -49.8694 C.3       12 UNK        -0.1800 
     72 C          -2.4607  -23.1805  -49.0815 C.2       12 UNK         0.5000 
     73 O          -2.6939  -24.0123  -49.9567 O.2       12 UNK        -0.5000 
     74 N          -3.0702  -23.1644  -47.8880 N.am      13 UNK        -0.5000 
     75 CA         -4.0261  -24.1817  -47.4486 C.3       13 UNK         0.1400 
     76 CB         -4.7088  -23.7233  -46.1520 C.3       13 UNK        -0.1800 
     77 C          -3.3740  -25.5645  -47.2604 C.2       13 UNK         0.5000 
     78 O          -3.9949  -26.5751  -47.5902 O.2       13 UNK        -0.5000 
     79 N          -2.1283  -25.5836  -46.7641 N.am      14 UNK        -0.5000 
     80 CA         -1.3240  -26.7953  -46.5982 C.3       14 UNK         0.1400 
     81 CB         -0.1550  -26.5077  -45.6427 C.3       14 UNK        -0.1800 
     82 C          -0.8168  -27.3442  -47.9451 C.2       14 UNK         0.5000 
     83 O          -0.8482  -28.5565  -48.1603 O.2       14 UNK        -0.5000 
     84 N          -0.3794  -26.4406  -48.8331 N.am      15 UNK        -0.5000 
     85 CA          0.0936  -26.7475  -50.1853 C.3       15 UNK         0.1400 
     86 CB          0.8713  -25.5339  -50.7203 C.3       15 UNK        -0.1800 
     87 C          -1.0337  -27.1244  -51.1680 C.2       15 UNK         0.5000 
     88 O          -0.7459  -27.7142  -52.2101 O.2       15 UNK        -0.5000 
     89 N          -2.2780  -26.7549  -50.8313 N.am      16 UNK        -0.5000 
     90 CA         -3.4931  -26.8394  -51.6468 C.3       16 UNK         0.1400 
     91 CB         -3.8615  -28.3042  -51.9616 C.3       16 UNK        -0.1800 
     92 C          -3.4110  -25.9405  -52.8990 C.2       16 UNK         0.5000 
     93 O          -3.8211  -26.3435  -53.9903 O.2       16 UNK        -0.5000 
     94 N          -2.8825  -24.7229  -52.7150 N.am      17 UNK        -0.5000 
     95 CA         -2.7485  -23.6862  -53.7380 C.3       17 UNK         0.1400 
     96 CB         -1.6020  -22.7375  -53.3492 C.3       17 UNK        -0.1800 
     97 C          -4.0924  -22.9614  -53.9509 C.2       17 UNK         0.5000 
     98 O          -4.2527  -21.8044  -53.5509 O.2       17 UNK        -0.5000 
     99 N          -5.0305  -23.7000  -54.5607 N.am      18 UNK        -0.5000 
    100 CA        -6.4383  -23.3865  -54.8212 C.3       18 UNK         0.1400 
    101 CB        -6.5878  -22.0639  -55.6019 C.3       18 UNK        -0.1800 
    102 C         -7.3000  -23.3779  -53.5445 C.2       18 UNK         0.5000 
    103 O         -6.7912  -23.2173  -52.4330 O.2       18 UNK        -0.5000 
    104 N         -8.6208  -23.5044  -53.7326 N.am      19 UNK        -0.5000 
    105 CA        -9.6278  -23.4152  -52.6669 C.3       19 UNK         0.1400 
    106 CB       -10.9979  -23.8140  -53.2362 C.3       19 UNK        -0.1800 
    107 C         -9.6979  -22.0186  -52.0138 C.2       19 UNK         0.5000 
    108 O        -10.1198  -21.9001  -50.8633 O.2       19 UNK        -0.5000 
    109 N         -9.2516  -20.9954  -52.7549 N.am      20 UNK        -0.5000 
    110 CA        -9.0838  -19.6195  -52.2943 C.3       20 UNK         0.1400 
    111 CB        -8.9926  -18.7049  -53.5271 C.3       20 UNK        -0.1800 
    112 C         -7.8513  -19.4158  -51.3877 C.2       20 UNK         0.5000 
    113 O         -7.7316  -18.3391  -50.8029 O.2       20 UNK        -0.5000 
    114 N         -6.9493  -20.4114  -51.3106 N.am      21 UNK        -0.5000 
    115 CA        -5.6922  -20.4191  -50.5515 C.3       21 UNK         0.1400 
    116 CB        -5.9759  -20.5408  -49.0401 C.3       21 UNK        -0.1800 
    117 C         -4.8052  -19.2087  -50.9085 C.2       21 UNK         0.5000 
    118 O         -4.5556  -18.3427  -50.0695 O.2       21 UNK        -0.5000 
    119 N         -4.3965  -19.1540  -52.1815 N.am      22 UNK        -0.5000 
    120 CA        -3.6821  -18.0360  -52.8239 C.3       22 UNK         0.1400 
    121 C         -4.5407  -16.7506  -53.0607 C.2       22 UNK         0.5000 
    122 N         -5.7813  -16.6628  -52.5947 N.am      22 UNK        -0.7600 
    123 O         -4.0904  -15.8193  -53.7215 O.2       22 UNK        -0.5000 
    124 C124       -2.3145  -17.7224  -52.1442 C.3       23 UNK        -0.0398 
    125 S125       -1.0441  -17.1404  -53.3189 S.3       23 UNK        -0.2404 
    126 C126        0.1594  -18.5109  -53.3227 C.3       23 UNK        -0.0205 
    127 H127        7.9118  -12.3418  -48.2002 H         1 UNK         0.0600 
    128 H128        8.8583  -12.9998  -46.8612 H         1 UNK         0.0600 
    129 H129        7.9553  -11.4950  -46.6497 H         1 UNK         0.0600 
    130 H130        6.0098  -13.4603  -48.5140 H         1 UNK         0.3000 
    131 H131        4.9904  -15.3967  -46.7764 H         1 UNK         0.0600 
    132 H132        3.1180  -15.6198  -48.3565 H         1 UNK         0.0800 
    133 H133        3.4556  -14.0526  -49.0602 H         1 UNK         0.0800 
    134 H134        4.5860  -16.0030  -52.1137 H         1 UNK         0.0800 
    135 H135        3.3472  -15.0334  -51.3570 H         1 UNK         0.0800 
    136 H136        1.9225  -16.4840  -52.8972 H         1 UNK         0.1150 
    137 H137        0.7435  -20.2906  -51.3278 H         1 UNK         0.1150 
    138 H138        3.9892  -18.1704  -49.5317 H         1 UNK         0.1150 
    139 H139        1.9358  -21.3035  -49.5619 H         1 UNK         0.0800 
    140 H140        3.6176  -20.8451  -49.4408 H         1 UNK         0.0800 
    141 H141        3.0041  -21.4033  -45.8347 H         1 UNK         0.0800 
    142 H142        2.9877  -22.2676  -47.3372 H         1 UNK         0.0800 
    143 H143        1.2614  -23.0357  -45.7413 H         1 UNK         0.0600 
    144 H144        0.3858  -20.2627  -45.6504 H         1 UNK         0.3000 
    145 H145       -2.3905  -21.0704  -43.4918 H         1 UNK         0.0600 
    146 H146       -1.2742  -19.4248  -42.1272 H         1 UNK         0.0600 
    147 H147        0.1136  -19.3367  -43.2115 H         1 UNK         0.0600 
    148 H148       -0.1739  -20.7813  -42.2451 H         1 UNK         0.0600 
    149 H149       -1.6723  -18.5811  -44.6359 H         1 UNK         0.3000 
    150 H150       -3.6670  -18.8079  -47.5962 H         1 UNK         0.0600 
    151 H151       -4.1528  -17.2991  -44.9815 H         1 UNK         0.0600 
    152 H152       -5.3060  -18.3749  -45.7642 H         1 UNK         0.0600 
    153 H153       -4.8222  -16.8845  -46.5593 H         1 UNK         0.0600 
    154 H154       -2.3731  -16.5528  -46.6363 H         1 UNK         0.3000 
    155 H155        0.9458  -17.0834  -47.5085 H         1 UNK         0.0600 
    156 H156        0.0602  -17.2240  -49.8681 H         1 UNK         0.0600 
    157 H157        0.7566  -15.6558  -49.5022 H         1 UNK         0.0600 
    158 H158       -0.9968  -15.8604  -49.5413 H         1 UNK         0.0600 
    159 H159       -0.4139  -14.6327  -47.5079 H         1 UNK         0.3000 
    160 H160        0.5711  -13.7324  -44.5917 H         1 UNK         0.0600 
    161 H161       -1.7132  -13.0746  -46.5408 H         1 UNK         0.0600 
    162 H162        0.0008  -12.7667  -46.8062 H         1 UNK         0.0600 
    163 H163       -0.8541  -11.9115  -45.5388 H         1 UNK         0.0600 
    164 H164       -0.8940  -13.9175  -42.9982 H         1 UNK         0.3000 
    165 H165       -3.6132  -13.3673  -42.3363 H         1 UNK         0.0600 
    166 H166       -5.1596  -15.1844  -41.6277 H         1 UNK         0.0600 
    167 H167       -5.3597  -14.8067  -43.3303 H         1 UNK         0.0600 
    168 H168       -4.4901  -16.2572  -42.8534 H         1 UNK         0.0600 
    169 H169       -2.2427  -14.1519  -40.7934 H         1 UNK         0.3000 
    170 H170       -0.8338  -15.2903  -39.6555 H         1 UNK         0.0600 
    171 H171       -1.1467  -18.3299  -39.8902 H         1 UNK         0.0600 
    172 H172       -0.5176  -17.4450  -38.5006 H         1 UNK         0.0600 
    173 H173       -2.2033  -17.2718  -38.9641 H         1 UNK         0.0600 
    174 H174        0.9720  -17.2660  -40.5565 H         1 UNK         0.3000 
    175 H175        3.1294  -16.3379  -41.0289 H         1 UNK         0.0600 
    176 H176        2.3005  -16.5450  -43.9667 H         1 UNK         0.0600 
    177 H177        3.6571  -17.3464  -43.1892 H         1 UNK         0.0600 
    178 H178        2.0138  -17.8032  -42.7722 H         1 UNK         0.0600 
    179 H179        3.4621  -14.5717  -43.3443 H         1 UNK         0.3000 
    180 H180        4.5643  -11.7940  -41.5482 H         1 UNK         0.0600 
    181 H181        6.8343  -12.0835  -42.5517 H         1 UNK         0.0600 
    182 H182        6.5554  -13.8195  -42.6987 H         1 UNK         0.0600 
    183 H183        6.6410  -13.0693  -41.1095 H         1 UNK         0.0600 
    184 H184        4.9862  -12.6986  -44.2680 H         1 UNK         0.3000 
    185 H185        1.8349  -11.8655  -45.5104 H         1 UNK         0.0600 
    186 H186        4.1288   -9.8447  -45.6828 H         1 UNK         0.0600 
    187 H187        2.7820   -9.9852  -46.8150 H         1 UNK         0.0600 
    188 H188        2.4886   -9.4823  -45.1585 H         1 UNK         0.0600 
    189 H189        4.3199  -11.9897  -46.8761 H         1 UNK         0.3000 
    190 H190       -0.6095  -20.8398  -47.8462 H         1 UNK         0.3000 
    191 H191       -0.7153  -22.5032  -50.1119 H         1 UNK         0.0600 
    192 H192       -1.2645  -20.1040  -50.1305 H         1 UNK         0.0600 
    193 H193       -2.6799  -20.3832  -49.1248 H         1 UNK         0.0600 
    194 H194       -2.6204  -21.0291  -50.7601 H         1 UNK         0.0600 
    195 H195       -2.8731  -22.4113  -47.2355 H         1 UNK         0.3000 
    196 H196       -4.7937  -24.2790  -48.2197 H         1 UNK         0.0600 
    197 H197       -5.2663  -22.7994  -46.3081 H         1 UNK         0.0600 
    198 H198       -3.9831  -23.5465  -45.3565 H         1 UNK         0.0600 
    199 H199       -5.4162  -24.4726  -45.7944 H         1 UNK         0.0600 
    200 H200       -1.6859  -24.7060  -46.5283 H         1 UNK         0.3000 
    201 H201       -1.9510  -27.5633  -46.1396 H         1 UNK         0.0600 
    202 H202       -0.5147  -26.1630  -44.6728 H         1 UNK         0.0600 
    203 H203        0.5167  -25.7456  -46.0385 H         1 UNK         0.0600 
    204 H204        0.4365  -27.4077  -45.4696 H         1 UNK         0.0600 
    205 H205       -0.3122  -25.4680  -48.5423 H         1 UNK         0.3000 
    206 H206        0.7783  -27.5960  -50.1262 H         1 UNK         0.0600 
    207 H207        1.7055  -25.2789  -50.0662 H         1 UNK         0.0600 
    208 H208        0.2314  -24.6551  -50.8056 H         1 UNK         0.0600 
    209 H209        1.2836  -25.7366  -51.7096 H         1 UNK         0.0600 
    210 H210       -2.3756  -26.2154  -49.9808 H         1 UNK         0.3000 
    211 H211       -4.2945  -26.4263  -51.0325 H         1 UNK         0.0600 
    212 H212       -3.1434  -28.7708  -52.6361 H         1 UNK         0.0600 
    213 H213       -4.8406  -28.3643  -52.4381 H         1 UNK         0.0600 
    214 H214       -3.9062  -28.9027  -51.0516 H         1 UNK         0.0600 
    215 H215       -2.6575  -24.4499  -51.7611 H         1 UNK         0.3000 
    216 H216       -2.4733  -24.1548  -54.6854 H         1 UNK         0.0600 
    217 H217       -1.4852  -21.9411  -54.0852 H         1 UNK         0.0600 
    218 H218       -0.6532  -23.2712  -53.2916 H         1 UNK         0.0600 
    219 H219       -1.7775  -22.2700  -52.3843 H         1 UNK         0.0600 
    220 H220       -4.7714  -24.6621  -54.7529 H         1 UNK         0.3000 
    221 H221       -6.8063  -24.1957  -55.4539 H         1 UNK         0.0600 
    222 H222       -6.3457  -21.1952  -54.9888 H         1 UNK         0.0600 
    223 H223       -5.9390  -22.0473  -56.4776 H         1 UNK         0.0600 
    224 H224       -7.6102  -21.9318  -55.9571 H         1 UNK         0.0600 
    225 H225       -8.9730  -23.6394  -54.6699 H         1 UNK         0.3000 
    226 H226       -9.3585  -24.1293  -51.8857 H         1 UNK         0.0600 
    227 H227      -10.9798  -24.8286  -53.6348 H         1 UNK         0.0600 
    228 H228      -11.7660  -23.7844  -52.4622 H         1 UNK         0.0600 
    229 H229      -11.3125  -23.1428  -54.0366 H         1 UNK         0.0600 
    230 H230       -8.9438  -21.1937  -53.6949 H         1 UNK         0.3000 
    231 H231       -9.9664  -19.3344  -51.7179 H         1 UNK         0.0600 
    232 H232       -8.9146  -17.6571  -53.2338 H         1 UNK         0.0600 
    233 H233       -8.1199  -18.9393  -54.1384 H         1 UNK         0.0600 
    234 H234       -9.8788  -18.7982  -54.1552 H         1 UNK         0.0600 
    235 H235       -7.1260  -21.2620  -51.8335 H         1 UNK         0.3000 
    236 H236       -5.1491  -21.3153  -50.8571 H         1 UNK         0.0600 
    237 H237       -6.4939  -19.6638  -48.6505 H         1 UNK         0.0600 
    238 H238       -6.5896  -21.4157  -48.8254 H         1 UNK         0.0600 
    239 H239       -5.0492  -20.6530  -48.4768 H         1 UNK         0.0600 
    240 H240       -4.6096  -19.9411  -52.7877 H         1 UNK         0.3000 
    241 H241       -3.4728  -18.4169  -53.8242 H         1 UNK         0.0600 
    242 H242       -6.3124  -15.8263  -52.7775 H         1 UNK         0.3800 
    243 H243       -6.1676  -17.3760  -51.9909 H         1 UNK         0.3800 
    244 H244       -1.9272  -18.6130  -51.6559 H         1 UNK         0.0800 
    245 H245       -2.4320  -16.9850  -51.3488 H         1 UNK         0.0800 
    246 H246        0.6780  -18.5087  -54.2820 H         1 UNK         0.0800 
    247 H247       -0.3677  -19.4648  -53.2682 H         1 UNK         0.0800 
@<TRIPOS>BOND
     1    1    2 1    
     2    1  127 1    
     3    1  128 1    
     4    1  129 1    
     5    2    3 2    
     6    2    4 am   BACKBONE|DICT|INTERRES
     7    4    5 1    
     8    4  130 1    
     9    5    6 1    
    10    5   65 1    
    11    5  131 1    
    12    6    7 1    
    13    6  132 1    
    14    6  133 1    
    15    7    8 1    
    16    8    9 1    
    17    8  134 1    
    18    8  135 1    
    19    9   10 ar   
    20    9   14 ar   
    21   10   11 ar   
    22   10  136 1    
    23   11   12 ar   
    24   11  126 1    
    25   12   13 ar   
    26   12  137 1    
    27   13   14 ar   
    28   13   15 1    
    29   14  138 1    
    30   15   16 1    
    31   15  139 1    
    32   15  140 1    
    33   16   17 1    
    34   17   18 1    
    35   17  141 1    
    36   17  142 1    
    37   18   19 1    
    38   18   67 1    
    39   18  143 1    
    40   19   20 am   BACKBONE|DICT|INTERRES
    41   19  144 1    
    42   20   21 2    
    43   20   22 1    
    44   22   23 1    
    45   22   24 1    
    46   22  145 1    
    47   23  146 1    
    48   23  147 1    
    49   23  148 1    
    50   24   25 am   BACKBONE|DICT|INTERRES
    51   24  149 1    
    52   25   26 2    
    53   25   27 1    
    54   27   28 1    
    55   27   29 1    
    56   27  150 1    
    57   28  151 1    
    58   28  152 1    
    59   28  153 1    
    60   29   30 am   BACKBONE|DICT|INTERRES
    61   29  154 1    
    62   30   31 2    
    63   30   32 1    
    64   32   33 1    
    65   32   34 1    
    66   32  155 1    
    67   33  156 1    
    68   33  157 1    
    69   33  158 1    
    70   34   35 am   BACKBONE|DICT|INTERRES
    71   34  159 1    
    72   35   36 2    
    73   35   37 1    
    74   37   38 1    
    75   37   39 1    
    76   37  160 1    
    77   38  161 1    
    78   38  162 1    
    79   38  163 1    
    80   39   40 am   BACKBONE|DICT|INTERRES
    81   39  164 1    
    82   40   41 2    
    83   40   42 1    
    84   42   43 1    
    85   42   44 1    
    86   42  165 1    
    87   43  166 1    
    88   43  167 1    
    89   43  168 1    
    90   44   45 am   BACKBONE|DICT|INTERRES
    91   44  169 1    
    92   45   46 2    
    93   45   47 1    
    94   47   48 1    
    95   47   49 1    
    96   47  170 1    
    97   48  171 1    
    98   48  172 1    
    99   48  173 1    
   100   49   50 am   BACKBONE|DICT|INTERRES
   101   49  174 1    
   102   50   51 2    
   103   50   52 1    
   104   52   53 1    
   105   52   54 1    
   106   52  175 1    
   107   53  176 1    
   108   53  177 1    
   109   53  178 1    
   110   54   55 am   BACKBONE|DICT|INTERRES
   111   54  179 1    
   112   55   56 2    
   113   55   57 1    
   114   57   58 1    
   115   57   59 1    
   116   57  180 1    
   117   58  181 1    
   118   58  182 1    
   119   58  183 1    
   120   59   60 am   BACKBONE|DICT|INTERRES
   121   59  184 1    
   122   60   61 2    
   123   60   62 1    
   124   62   63 1    
   125   62   64 1    
   126   62  185 1    
   127   63  186 1    
   128   63  187 1    
   129   63  188 1    
   130   64   65 am   BACKBONE|DICT|INTERRES
   131   64  189 1    
   132   65   66 2    
   133   67   68 2    
   134   67   69 am   BACKBONE|DICT|INTERRES
   135   69   70 1    
   136   69  190 1    
   137   70   71 1    
   138   70   72 1    
   139   70  191 1    
   140   71  192 1    
   141   71  193 1    
   142   71  194 1    
   143   72   73 2    
   144   72   74 am   BACKBONE|DICT|INTERRES
   145   74   75 1    
   146   74  195 1    
   147   75   76 1    
   148   75   77 1    
   149   75  196 1    
   150   76  197 1    
   151   76  198 1    
   152   76  199 1    
   153   77   78 2    
   154   77   79 am   BACKBONE|DICT|INTERRES
   155   79   80 1    
   156   79  200 1    
   157   80   81 1    
   158   80   82 1    
   159   80  201 1    
   160   81  202 1    
   161   81  203 1    
   162   81  204 1    
   163   82   83 2    
   164   82   84 am   BACKBONE|DICT|INTERRES
   165   84   85 1    
   166   84  205 1    
   167   85   86 1    
   168   85   87 1    
   169   85  206 1    
   170   86  207 1    
   171   86  208 1    
   172   86  209 1    
   173   87   88 2    
   174   87   89 am   BACKBONE|DICT|INTERRES
   175   89   90 1    
   176   89  210 1    
   177   90   91 1    
   178   90   92 1    
   179   90  211 1    
   180   91  212 1    
   181   91  213 1    
   182   91  214 1    
   183   92   93 2    
   184   92   94 am   BACKBONE|DICT|INTERRES
   185   94   95 1    
   186   94  215 1    
   187   95   96 1    
   188   95   97 1    
   189   95  216 1    
   190   96  217 1    
   191   96  218 1    
   192   96  219 1    
   193   97   98 2    
   194   97   99 am   BACKBONE|DICT|INTERRES
   195   99  100 1    
   196   99  220 1    
   197  100  101 1    
   198  100  102 1    
   199  100  221 1    
   200  101  222 1    
   201  101  223 1    
   202  101  224 1    
   203  102  103 2    
   204  102  104 am   BACKBONE|DICT|INTERRES
   205  104  105 1    
   206  104  225 1    
   207  105  106 1    
   208  105  107 1    
   209  105  226 1    
   210  106  227 1    
   211  106  228 1    
   212  106  229 1    
   213  107  108 2    
   214  107  109 am   BACKBONE|DICT|INTERRES
   215  109  110 1    
   216  109  230 1    
   217  110  111 1    
   218  110  112 1    
   219  110  231 1    
   220  111  232 1    
   221  111  233 1    
   222  111  234 1    
   223  112  113 2    
   224  112  114 am   BACKBONE|DICT|INTERRES
   225  114  115 1    
   226  114  235 1    
   227  115  116 1    
   228  115  117 1    
   229  115  236 1    
   230  116  237 1    
   231  116  238 1    
   232  116  239 1    
   233  117  118 2    
   234  117  119 am   BACKBONE|DICT|INTERRES
   235  119  120 1    
   236  119  240 1    
   237  120  121 1    
   238  120  124 1    
   239  120  241 1    
   240  121  122 am   BACKBONE|DICT|INTERRES
   241  121  123 2    
   242  122  242 1    
   243  122  243 1    
   244  124  125 1    
   245  124  244 1    
   246  124  245 1    
   247  125  126 1    
   248  126  246 1    
   249  126  247 1    
@<TRIPOS>SUBSTRUCTURE
     1 UNK         1 GROUP             0       ****    0 ROOT    
