@<TRIPOS>MOLECULE
3R540
247   249    1
SMALL
USER_CHARGES


@<TRIPOS>ATOM
      1 CA          0.5856  -12.2403  -42.3104 C.3       0 UNK        -0.1800 
      2 C          -0.8125  -12.2846  -42.9108 C.2       0 UNK         0.5000 
      3 O          -1.7813  -11.9487  -42.2298 O.2       0 UNK        -0.5000 
      4 N          -0.9204  -12.6848  -44.1838 N.am      1 UNK        -0.5000 
      5 CA         -2.1804  -12.7395  -44.9404 C.3       1 UNK         0.1400 
      6 C6         -2.1039  -13.7495  -46.1095 C.3       23 UNK        -0.0398 
      7 S7         -1.9584  -15.4572  -45.4876 S.3       23 UNK        -0.2404 
      8 C8         -3.5370  -16.1987  -46.0121 C.3       23 UNK        -0.0205 
      9 C9         -3.4454  -16.7899  -47.4116 C.ar      23 UNK        -0.0193 
     10 C10        -3.7092  -16.0047  -48.5387 C.ar      23 UNK        -0.1150 
     11 C11        -3.6230  -16.5468  -49.8255 C.ar      23 UNK        -0.0193 
     12 C12        -3.2923  -17.8986  -49.9669 C.ar      23 UNK        -0.1150 
     13 C13        -3.0017  -18.6901  -48.8551 C.ar      23 UNK        -0.0193 
     14 C14        -3.0928  -18.1319  -47.5792 C.ar      23 UNK        -0.1150 
     15 C15        -2.5417  -20.1267  -49.0487 C.3       23 UNK        -0.0205 
     16 S16        -3.8557  -21.3333  -48.6983 S.3       23 UNK        -0.2404 
     17 C17        -3.3992  -21.8954  -47.0244 C.3       23 UNK        -0.0398 
     18 CA         -2.4355  -23.1129  -47.0721 C.3       11 UNK         0.1400 
     19 N          -1.0398  -22.7415  -46.8159 N.am      11 UNK        -0.5000 
     20 C           0.0084  -23.5631  -46.9704 C.2       10 UNK         0.5000 
     21 O          -0.0818  -24.7107  -47.3986 O.2       10 UNK        -0.5000 
     22 CA          1.3784  -23.0440  -46.5091 C.3       10 UNK         0.1400 
     23 CB          2.0219  -22.1467  -47.5780 C.3       10 UNK        -0.1800 
     24 N           1.2792  -22.3301  -45.2367 N.am      10 UNK        -0.5000 
     25 C           1.0310  -22.9219  -44.0595 C.2       9 UNK         0.5000 
     26 O           0.9051  -24.1391  -43.9215 O.2       9 UNK        -0.5000 
     27 CA          0.8569  -21.9964  -42.8401 C.3       9 UNK         0.1400 
     28 CB          2.2214  -21.6392  -42.2327 C.3       9 UNK        -0.1800 
     29 N           0.1349  -20.7643  -43.1611 N.am      9 UNK        -0.5000 
     30 C          -1.1569  -20.7142  -43.5166 C.2       8 UNK         0.5000 
     31 O          -1.8889  -21.7013  -43.5776 O.2       8 UNK        -0.5000 
     32 CA         -1.7060  -19.3386  -43.9409 C.3       8 UNK         0.1400 
     33 CB         -2.1634  -18.5348  -42.7153 C.3       8 UNK        -0.1800 
     34 N          -0.7524  -18.5358  -44.7113 N.am      8 UNK        -0.5000 
     35 C          -0.1124  -18.9246  -45.8228 C.2       7 UNK         0.5000 
     36 O          -0.2884  -20.0245  -46.3424 O.2       7 UNK        -0.5000 
     37 CA          0.9036  -17.9545  -46.4587 C.3       7 UNK         0.1400 
     38 CB          0.4443  -17.5154  -47.8582 C.3       7 UNK        -0.1800 
     39 N           1.1981  -16.7605  -45.6629 N.am      7 UNK        -0.5000 
     40 C           1.8347  -16.7359  -44.4851 C.2       6 UNK         0.5000 
     41 O           2.2187  -17.7470  -43.8946 O.2       6 UNK        -0.5000 
     42 CA          2.1101  -15.3338  -43.9152 C.3       6 UNK         0.1400 
     43 CB          2.7978  -15.3692  -42.5389 C.3       6 UNK        -0.1800 
     44 N           2.9658  -14.6214  -44.8612 N.am      6 UNK        -0.5000 
     45 C           2.5717  -13.6567  -45.6976 C.2       5 UNK         0.5000 
     46 O           1.4466  -13.1485  -45.6934 O.2       5 UNK        -0.5000 
     47 CA          3.5973  -13.2411  -46.7571 C.3       5 UNK         0.1400 
     48 CB          3.5296  -14.1959  -47.9647 C.3       5 UNK        -0.1800 
     49 N           3.3387  -11.8711  -47.1861 N.am      5 UNK        -0.5000 
     50 C           4.2374  -11.0773  -47.7804 C.2       4 UNK         0.5000 
     51 O           5.3941  -11.4224  -48.0271 O.2       4 UNK        -0.5000 
     52 CA          3.7800   -9.6603  -48.1760 C.3       4 UNK         0.1400 
     53 CB          3.2516   -9.6550  -49.6191 C.3       4 UNK        -0.1800 
     54 N           2.7639   -9.0756  -47.2968 N.am      4 UNK        -0.5000 
     55 C           2.9652   -8.7269  -46.0164 C.2       3 UNK         0.5000 
     56 O           4.0054   -8.9512  -45.3975 O.2       3 UNK        -0.5000 
     57 CA          1.8117   -7.9921  -45.3168 C.3       3 UNK         0.1400 
     58 CB          1.9119   -6.4792  -45.6049 C.3       3 UNK        -0.1800 
     59 N           0.5235   -8.5410  -45.7466 N.am      3 UNK        -0.5000 
     60 C          -0.6817   -8.2037  -45.2697 C.2       2 UNK         0.5000 
     61 O          -0.8753   -7.3592  -44.3952 O.2       2 UNK        -0.5000 
     62 CA         -1.8637   -9.0007  -45.8309 C.3       2 UNK         0.1400 
     63 CB         -2.0395   -8.7915  -47.3477 C.3       2 UNK        -0.1800 
     64 N          -1.6548  -10.4088  -45.5140 N.am      2 UNK        -0.5000 
     65 C          -2.6079  -11.3447  -45.4455 C.2       1 UNK         0.5000 
     66 O          -3.7861  -11.1426  -45.7424 O.2       1 UNK        -0.5000 
     67 C          -2.9062  -24.2583  -46.1545 C.2       11 UNK         0.5000 
     68 O          -3.5669  -25.1750  -46.6412 O.2       11 UNK        -0.5000 
     69 N          -2.5282  -24.2220  -44.8691 N.am      12 UNK        -0.5000 
     70 CA         -2.7960  -25.2928  -43.9076 C.3       12 UNK         0.1400 
     71 CB         -2.3903  -24.8403  -42.4968 C.3       12 UNK        -0.1800 
     72 C          -2.1022  -26.6154  -44.2851 C.2       12 UNK         0.5000 
     73 O          -2.7431  -27.6661  -44.2467 O.2       12 UNK        -0.5000 
     74 N          -0.8226  -26.5365  -44.6779 N.am      13 UNK        -0.5000 
     75 CA         -0.0199  -27.6779  -45.1228 C.3       13 UNK         0.1400 
     76 CB          1.4525  -27.2530  -45.2305 C.3       13 UNK        -0.1800 
     77 C          -0.5105  -28.2831  -46.4527 C.2       13 UNK         0.5000 
     78 O          -0.5534  -29.5065  -46.5863 O.2       13 UNK        -0.5000 
     79 N          -0.8823  -27.4179  -47.4046 N.am      14 UNK        -0.5000 
     80 CA         -1.3640  -27.7840  -48.7378 C.3       14 UNK         0.1400 
     81 CB         -1.1468  -26.5894  -49.6814 C.3       14 UNK        -0.1800 
     82 C          -2.8412  -28.2216  -48.7715 C.2       14 UNK         0.5000 
     83 O          -3.3065  -28.6467  -49.8285 O.2       14 UNK        -0.5000 
     84 N          -3.5633  -28.0744  -47.6505 N.am      15 UNK        -0.5000 
     85 CA         -5.0041  -28.3078  -47.4926 C.3       15 UNK         0.1400 
     86 CB         -5.3417  -29.8064  -47.6365 C.3       15 UNK        -0.1800 
     87 C          -5.8369  -27.3986  -48.4226 C.2       15 UNK         0.5000 
     88 O          -6.7268  -27.8679  -49.1333 O.2       15 UNK        -0.5000 
     89 N          -5.4857  -26.1057  -48.4089 N.am      16 UNK        -0.5000 
     90 CA         -6.0468  -24.9860  -49.1704 C.3       16 UNK         0.1400 
     91 CB         -7.5543  -24.8150  -48.8956 C.3       16 UNK        -0.1800 
     92 C          -5.7292  -24.9955  -50.6798 C.2       16 UNK         0.5000 
     93 O          -6.1712  -24.0871  -51.3818 O.2       16 UNK        -0.5000 
     94 N          -4.9360  -25.9605  -51.1707 N.am      17 UNK        -0.5000 
     95 CA         -4.5326  -26.0450  -52.5812 C.3       17 UNK         0.1400 
     96 CB         -3.8895  -27.4121  -52.8536 C.3       17 UNK        -0.1800 
     97 C          -3.5951  -24.9014  -53.0239 C.2       17 UNK         0.5000 
     98 O          -3.5461  -24.5787  -54.2111 O.2       17 UNK        -0.5000 
     99 N          -2.8952  -24.2859  -52.0603 N.am      18 UNK        -0.5000 
    100 CA        -2.0205  -23.1292  -52.2601 C.3       18 UNK         0.1400 
    101 CB        -1.0493  -23.0266  -51.0726 C.3       18 UNK        -0.1800 
    102 C         -2.7794  -21.8001  -52.4570 C.2       18 UNK         0.5000 
    103 O         -2.1397  -20.7961  -52.7761 O.2       18 UNK        -0.5000 
    104 N         -4.1100  -21.7917  -52.2721 N.am      19 UNK        -0.5000 
    105 CA        -4.9699  -20.6041  -52.3570 C.3       19 UNK         0.1400 
    106 CB        -6.3971  -20.9721  -51.9282 C.3       19 UNK        -0.1800 
    107 C         -4.9834  -19.9170  -53.7370 C.2       19 UNK         0.5000 
    108 O         -5.3098  -18.7336  -53.8211 O.2       19 UNK        -0.5000 
    109 N         -4.6231  -20.6621  -54.7894 N.am      20 UNK        -0.5000 
    110 CA        -4.4579  -20.1514  -56.1490 C.3       20 UNK         0.1400 
    111 CB        -4.5938  -21.3266  -57.1300 C.3       20 UNK        -0.1800 
    112 C         -3.1135  -19.4256  -56.3666 C.2       20 UNK         0.5000 
    113 O         -2.9952  -18.6747  -57.3361 O.2       20 UNK        -0.5000 
    114 N         -2.1235  -19.6771  -55.4984 N.am      21 UNK        -0.5000 
    115 CA        -0.7589  -19.1643  -55.6182 C.3       21 UNK         0.1400 
    116 CB         0.2299  -20.3284  -55.4382 C.3       21 UNK        -0.1800 
    117 C         -0.4713  -18.0527  -54.5974 C.2       21 UNK         0.5000 
    118 O          0.0992  -17.0274  -54.9720 O.2       21 UNK        -0.5000 
    119 N         -0.8557  -18.2785  -53.3331 N.am      22 UNK        -0.5000 
    120 CA        -0.6122  -17.3838  -52.1834 C.3       22 UNK         0.1400 
    121 C          0.8913  -17.2146  -51.8004 C.2       22 UNK         0.5000 
    122 N          1.7670  -18.1477  -52.1548 N.am      22 UNK        -0.7600 
    123 O          1.2729  -16.2425  -51.1549 O.2       22 UNK        -0.5000 
    124 C124       -1.3619  -16.0201  -52.2790 C.3       23 UNK        -0.0398 
    125 S125       -3.1522  -16.1826  -52.6127 S.3       23 UNK        -0.2404 
    126 C126       -3.9071  -15.6500  -51.0321 C.3       23 UNK        -0.0205 
    127 H127        0.7050  -13.0399  -41.5796 H         1 UNK         0.0600 
    128 H128        0.7480  -11.2881  -41.8055 H         1 UNK         0.0600 
    129 H129        1.3584  -12.3515  -43.0705 H         1 UNK         0.0600 
    130 H130       -0.0827  -12.9334  -44.7072 H         1 UNK         0.3000 
    131 H131       -2.9722  -13.0739  -44.2662 H         1 UNK         0.0600 
    132 H132       -1.2479  -13.5361  -46.7520 H         1 UNK         0.0800 
    133 H133       -2.9867  -13.6726  -46.7450 H         1 UNK         0.0800 
    134 H134       -4.3409  -15.4633  -45.9567 H         1 UNK         0.0800 
    135 H135       -3.8016  -16.9834  -45.3019 H         1 UNK         0.0800 
    136 H136       -3.9815  -14.9665  -48.4156 H         1 UNK         0.1150 
    137 H137       -3.2267  -18.3347  -50.9509 H         1 UNK         0.1150 
    138 H138       -2.8760  -18.7405  -46.7165 H         1 UNK         0.1150 
    139 H139       -2.2063  -20.2685  -50.0750 H         1 UNK         0.0800 
    140 H140       -1.6664  -20.3277  -48.4341 H         1 UNK         0.0800 
    141 H141       -4.3372  -22.1368  -46.5204 H         1 UNK         0.0800 
    142 H142       -2.9725  -21.0718  -46.4524 H         1 UNK         0.0800 
    143 H143       -2.4583  -23.5389  -48.0768 H         1 UNK         0.0600 
    144 H144       -0.8607  -21.7936  -46.4938 H         1 UNK         0.3000 
    145 H145        2.0303  -23.9079  -46.3627 H         1 UNK         0.0600 
    146 H146        2.9988  -21.7869  -47.2551 H         1 UNK         0.0600 
    147 H147        2.1701  -22.7001  -48.5061 H         1 UNK         0.0600 
    148 H148        1.4064  -21.2796  -47.8154 H         1 UNK         0.0600 
    149 H149        1.2835  -21.3215  -45.2831 H         1 UNK         0.3000 
    150 H150        0.2810  -22.5416  -42.0893 H         1 UNK         0.0600 
    151 H151        2.7812  -22.5388  -41.9732 H         1 UNK         0.0600 
    152 H152        2.1052  -21.0548  -41.3198 H         1 UNK         0.0600 
    153 H153        2.8323  -21.0595  -42.9261 H         1 UNK         0.0600 
    154 H154        0.6693  -19.9062  -43.1620 H         1 UNK         0.3000 
    155 H155       -2.5775  -19.5166  -44.5717 H         1 UNK         0.0600 
    156 H156       -1.3272  -18.2912  -42.0587 H         1 UNK         0.0600 
    157 H157       -2.8905  -19.0972  -42.1281 H         1 UNK         0.0600 
    158 H158       -2.6399  -17.6000  -43.0116 H         1 UNK         0.0600 
    159 H159       -0.5708  -17.6034  -44.3716 H         1 UNK         0.3000 
    160 H160        1.8342  -18.5138  -46.5726 H         1 UNK         0.0600 
    161 H161       -0.4551  -16.9011  -47.8146 H         1 UNK         0.0600 
    162 H162        0.2233  -18.3755  -48.4918 H         1 UNK         0.0600 
    163 H163        1.2182  -16.9360  -48.3618 H         1 UNK         0.0600 
    164 H164        0.9006  -15.8816  -46.0622 H         1 UNK         0.3000 
    165 H165        1.1474  -14.8323  -43.8017 H         1 UNK         0.0600 
    166 H166        2.9743  -14.3616  -42.1624 H         1 UNK         0.0600 
    167 H167        2.1772  -15.8860  -41.8059 H         1 UNK         0.0600 
    168 H168        3.7591  -15.8829  -42.5790 H         1 UNK         0.0600 
    169 H169        3.8981  -14.9969  -44.9667 H         1 UNK         0.3000 
    170 H170        4.5913  -13.2914  -46.3072 H         1 UNK         0.0600 
    171 H171        3.6963  -15.2302  -47.6609 H         1 UNK         0.0600 
    172 H172        2.5565  -14.1524  -48.4559 H         1 UNK         0.0600 
    173 H173        4.2890  -13.9537  -48.7081 H         1 UNK         0.0600 
    174 H174        2.4116  -11.5257  -46.9789 H         1 UNK         0.3000 
    175 H175        4.6603   -9.0149  -48.1377 H         1 UNK         0.0600 
    176 H176        2.3483  -10.2582  -49.7191 H         1 UNK         0.0600 
    177 H177        3.0200   -8.6431  -49.9520 H         1 UNK         0.0600 
    178 H178        3.9937  -10.0596  -50.3089 H         1 UNK         0.0600 
    179 H179        1.9047   -8.7950  -47.7449 H         1 UNK         0.3000 
    180 H180        1.9142   -8.1577  -44.2424 H         1 UNK         0.0600 
    181 H181        1.2151   -5.9030  -44.9973 H         1 UNK         0.0600 
    182 H182        1.7069   -6.2556  -46.6524 H         1 UNK         0.0600 
    183 H183        2.9108   -6.1033  -45.3788 H         1 UNK         0.0600 
    184 H184        0.5759   -9.2773  -46.4349 H         1 UNK         0.3000 
    185 H185       -2.7663   -8.6531  -45.3233 H         1 UNK         0.0600 
    186 H186       -2.9522   -9.2669  -47.7071 H         1 UNK         0.0600 
    187 H187       -2.1125   -7.7303  -47.5889 H         1 UNK         0.0600 
    188 H188       -1.2062   -9.2036  -47.9172 H         1 UNK         0.0600 
    189 H189       -0.7312  -10.6577  -45.1890 H         1 UNK         0.3000 
    190 H190       -2.0433  -23.4023  -44.5161 H         1 UNK         0.3000 
    191 H191       -3.8729  -25.4740  -43.9052 H         1 UNK         0.0600 
    192 H192       -2.5990  -25.6188  -41.7620 H         1 UNK         0.0600 
    193 H193       -2.9440  -23.9513  -42.1946 H         1 UNK         0.0600 
    194 H194       -1.3273  -24.6078  -42.4360 H         1 UNK         0.0600 
    195 H195       -0.3560  -25.6362  -44.6495 H         1 UNK         0.3000 
    196 H196       -0.0916  -28.4553  -44.3593 H         1 UNK         0.0600 
    197 H197        1.5890  -26.4540  -45.9599 H         1 UNK         0.0600 
    198 H198        1.8308  -26.8973  -44.2720 H         1 UNK         0.0600 
    199 H199        2.0801  -28.0904  -45.5381 H         1 UNK         0.0600 
    200 H200       -0.7504  -26.4224  -47.2371 H         1 UNK         0.3000 
    201 H201       -0.7679  -28.6211  -49.1065 H         1 UNK         0.0600 
    202 H202       -1.7485  -25.7301  -49.3831 H         1 UNK         0.0600 
    203 H203       -1.4128  -26.8401  -50.7077 H         1 UNK         0.0600 
    204 H204       -0.1017  -26.2794  -49.6903 H         1 UNK         0.0600 
    205 H205       -3.0960  -27.6741  -46.8478 H         1 UNK         0.3000 
    206 H206       -5.2512  -28.0114  -46.4720 H         1 UNK         0.0600 
    207 H207       -4.7442  -30.4109  -46.9541 H         1 UNK         0.0600 
    208 H208       -6.3903  -29.9926  -47.4020 H         1 UNK         0.0600 
    209 H209       -5.1651  -30.1700  -48.6490 H         1 UNK         0.0600 
    210 H210       -4.7308  -25.8431  -47.7741 H         1 UNK         0.3000 
    211 H211       -5.5487  -24.0984  -48.7777 H         1 UNK         0.0600 
    212 H212       -7.9263  -23.8848  -49.3267 H         1 UNK         0.0600 
    213 H213       -7.7589  -24.7789  -47.8256 H         1 UNK         0.0600 
    214 H214       -8.1414  -25.6274  -49.3244 H         1 UNK         0.0600 
    215 H215       -4.6223  -26.7006  -50.5571 H         1 UNK         0.3000 
    216 H216       -5.4366  -25.9750  -53.1899 H         1 UNK         0.0600 
    217 H217       -2.9561  -27.5373  -52.3064 H         1 UNK         0.0600 
    218 H218       -3.6639  -27.5318  -53.9139 H         1 UNK         0.0600 
    219 H219       -4.5562  -28.2266  -52.5692 H         1 UNK         0.0600 
    220 H220       -3.0076  -24.6115  -51.1127 H         1 UNK         0.3000 
    221 H221       -1.4300  -23.2947  -53.1637 H         1 UNK         0.0600 
    222 H222       -0.4467  -23.9295  -50.9748 H         1 UNK         0.0600 
    223 H223       -1.5764  -22.8722  -50.1324 H         1 UNK         0.0600 
    224 H224       -0.3585  -22.1919  -51.1993 H         1 UNK         0.0600 
    225 H225       -4.5738  -22.6544  -52.0163 H         1 UNK         0.3000 
    226 H226       -4.5920  -19.8791  -51.6388 H         1 UNK         0.0600 
    227 H227       -6.8351  -21.7192  -52.5909 H         1 UNK         0.0600 
    228 H228       -6.4128  -21.3688  -50.9128 H         1 UNK         0.0600 
    229 H229       -7.0486  -20.0974  -51.9423 H         1 UNK         0.0600 
    230 H230       -4.3889  -21.6321  -54.6333 H         1 UNK         0.3000 
    231 H231       -5.2569  -19.4377  -56.3606 H         1 UNK         0.0600 
    232 H232       -3.8238  -22.0812  -56.9633 H         1 UNK         0.0600 
    233 H233       -4.5036  -20.9875  -58.1628 H         1 UNK         0.0600 
    234 H234       -5.5655  -21.8113  -57.0326 H         1 UNK         0.0600 
    235 H235       -2.3185  -20.2455  -54.6825 H         1 UNK         0.3000 
    236 H236       -0.5955  -18.7465  -56.6138 H         1 UNK         0.0600 
    237 H237        0.0840  -21.0879  -56.2064 H         1 UNK         0.0600 
    238 H238        1.2609  -19.9813  -55.5171 H         1 UNK         0.0600 
    239 H239        0.1182  -20.8121  -54.4670 H         1 UNK         0.0600 
    240 H240       -1.3158  -19.1584  -53.1145 H         1 UNK         0.3000 
    241 H241       -1.0172  -17.9163  -51.3266 H         1 UNK         0.0600 
    242 H242        2.7358  -18.0368  -51.9012 H         1 UNK         0.3800 
    243 H243        1.4737  -18.9571  -52.6767 H         1 UNK         0.3800 
    244 H244       -0.9271  -15.4055  -53.0680 H         1 UNK         0.0800 
    245 H245       -1.2329  -15.4533  -51.3556 H         1 UNK         0.0800 
    246 H246       -3.5789  -14.6309  -50.8217 H         1 UNK         0.0800 
    247 H247       -4.9878  -15.6026  -51.1707 H         1 UNK         0.0800 
@<TRIPOS>BOND
     1    1    2 1    
     2    1  127 1    
     3    1  128 1    
     4    1  129 1    
     5    2    3 2    
     6    2    4 am   BACKBONE|DICT|INTERRES
     7    4    5 1    
     8    4  130 1    
     9    5    6 1    
    10    5   65 1    
    11    5  131 1    
    12    6    7 1    
    13    6  132 1    
    14    6  133 1    
    15    7    8 1    
    16    8    9 1    
    17    8  134 1    
    18    8  135 1    
    19    9   10 ar   
    20    9   14 ar   
    21   10   11 ar   
    22   10  136 1    
    23   11   12 ar   
    24   11  126 1    
    25   12   13 ar   
    26   12  137 1    
    27   13   14 ar   
    28   13   15 1    
    29   14  138 1    
    30   15   16 1    
    31   15  139 1    
    32   15  140 1    
    33   16   17 1    
    34   17   18 1    
    35   17  141 1    
    36   17  142 1    
    37   18   19 1    
    38   18   67 1    
    39   18  143 1    
    40   19   20 am   BACKBONE|DICT|INTERRES
    41   19  144 1    
    42   20   21 2    
    43   20   22 1    
    44   22   23 1    
    45   22   24 1    
    46   22  145 1    
    47   23  146 1    
    48   23  147 1    
    49   23  148 1    
    50   24   25 am   BACKBONE|DICT|INTERRES
    51   24  149 1    
    52   25   26 2    
    53   25   27 1    
    54   27   28 1    
    55   27   29 1    
    56   27  150 1    
    57   28  151 1    
    58   28  152 1    
    59   28  153 1    
    60   29   30 am   BACKBONE|DICT|INTERRES
    61   29  154 1    
    62   30   31 2    
    63   30   32 1    
    64   32   33 1    
    65   32   34 1    
    66   32  155 1    
    67   33  156 1    
    68   33  157 1    
    69   33  158 1    
    70   34   35 am   BACKBONE|DICT|INTERRES
    71   34  159 1    
    72   35   36 2    
    73   35   37 1    
    74   37   38 1    
    75   37   39 1    
    76   37  160 1    
    77   38  161 1    
    78   38  162 1    
    79   38  163 1    
    80   39   40 am   BACKBONE|DICT|INTERRES
    81   39  164 1    
    82   40   41 2    
    83   40   42 1    
    84   42   43 1    
    85   42   44 1    
    86   42  165 1    
    87   43  166 1    
    88   43  167 1    
    89   43  168 1    
    90   44   45 am   BACKBONE|DICT|INTERRES
    91   44  169 1    
    92   45   46 2    
    93   45   47 1    
    94   47   48 1    
    95   47   49 1    
    96   47  170 1    
    97   48  171 1    
    98   48  172 1    
    99   48  173 1    
   100   49   50 am   BACKBONE|DICT|INTERRES
   101   49  174 1    
   102   50   51 2    
   103   50   52 1    
   104   52   53 1    
   105   52   54 1    
   106   52  175 1    
   107   53  176 1    
   108   53  177 1    
   109   53  178 1    
   110   54   55 am   BACKBONE|DICT|INTERRES
   111   54  179 1    
   112   55   56 2    
   113   55   57 1    
   114   57   58 1    
   115   57   59 1    
   116   57  180 1    
   117   58  181 1    
   118   58  182 1    
   119   58  183 1    
   120   59   60 am   BACKBONE|DICT|INTERRES
   121   59  184 1    
   122   60   61 2    
   123   60   62 1    
   124   62   63 1    
   125   62   64 1    
   126   62  185 1    
   127   63  186 1    
   128   63  187 1    
   129   63  188 1    
   130   64   65 am   BACKBONE|DICT|INTERRES
   131   64  189 1    
   132   65   66 2    
   133   67   68 2    
   134   67   69 am   BACKBONE|DICT|INTERRES
   135   69   70 1    
   136   69  190 1    
   137   70   71 1    
   138   70   72 1    
   139   70  191 1    
   140   71  192 1    
   141   71  193 1    
   142   71  194 1    
   143   72   73 2    
   144   72   74 am   BACKBONE|DICT|INTERRES
   145   74   75 1    
   146   74  195 1    
   147   75   76 1    
   148   75   77 1    
   149   75  196 1    
   150   76  197 1    
   151   76  198 1    
   152   76  199 1    
   153   77   78 2    
   154   77   79 am   BACKBONE|DICT|INTERRES
   155   79   80 1    
   156   79  200 1    
   157   80   81 1    
   158   80   82 1    
   159   80  201 1    
   160   81  202 1    
   161   81  203 1    
   162   81  204 1    
   163   82   83 2    
   164   82   84 am   BACKBONE|DICT|INTERRES
   165   84   85 1    
   166   84  205 1    
   167   85   86 1    
   168   85   87 1    
   169   85  206 1    
   170   86  207 1    
   171   86  208 1    
   172   86  209 1    
   173   87   88 2    
   174   87   89 am   BACKBONE|DICT|INTERRES
   175   89   90 1    
   176   89  210 1    
   177   90   91 1    
   178   90   92 1    
   179   90  211 1    
   180   91  212 1    
   181   91  213 1    
   182   91  214 1    
   183   92   93 2    
   184   92   94 am   BACKBONE|DICT|INTERRES
   185   94   95 1    
   186   94  215 1    
   187   95   96 1    
   188   95   97 1    
   189   95  216 1    
   190   96  217 1    
   191   96  218 1    
   192   96  219 1    
   193   97   98 2    
   194   97   99 am   BACKBONE|DICT|INTERRES
   195   99  100 1    
   196   99  220 1    
   197  100  101 1    
   198  100  102 1    
   199  100  221 1    
   200  101  222 1    
   201  101  223 1    
   202  101  224 1    
   203  102  103 2    
   204  102  104 am   BACKBONE|DICT|INTERRES
   205  104  105 1    
   206  104  225 1    
   207  105  106 1    
   208  105  107 1    
   209  105  226 1    
   210  106  227 1    
   211  106  228 1    
   212  106  229 1    
   213  107  108 2    
   214  107  109 am   BACKBONE|DICT|INTERRES
   215  109  110 1    
   216  109  230 1    
   217  110  111 1    
   218  110  112 1    
   219  110  231 1    
   220  111  232 1    
   221  111  233 1    
   222  111  234 1    
   223  112  113 2    
   224  112  114 am   BACKBONE|DICT|INTERRES
   225  114  115 1    
   226  114  235 1    
   227  115  116 1    
   228  115  117 1    
   229  115  236 1    
   230  116  237 1    
   231  116  238 1    
   232  116  239 1    
   233  117  118 2    
   234  117  119 am   BACKBONE|DICT|INTERRES
   235  119  120 1    
   236  119  240 1    
   237  120  121 1    
   238  120  124 1    
   239  120  241 1    
   240  121  122 am   BACKBONE|DICT|INTERRES
   241  121  123 2    
   242  122  242 1    
   243  122  243 1    
   244  124  125 1    
   245  124  244 1    
   246  124  245 1    
   247  125  126 1    
   248  126  246 1    
   249  126  247 1    
@<TRIPOS>SUBSTRUCTURE
     1 UNK         1 GROUP             0       ****    0 ROOT    
