@<TRIPOS>MOLECULE
3R540
247   249    1
SMALL
USER_CHARGES


@<TRIPOS>ATOM
      1 CA         -6.1686  -17.2729  -46.2912 C.3       0 UNK        -0.1800 
      2 C          -4.7005  -16.9509  -46.0530 C.2       0 UNK         0.5000 
      3 O          -3.9857  -17.7644  -45.4730 O.2       0 UNK        -0.5000 
      4 N          -4.2599  -15.7604  -46.4838 N.am      1 UNK        -0.5000 
      5 CA         -2.8707  -15.2675  -46.4729 C.3       1 UNK         0.1400 
      6 C6         -1.8930  -16.1433  -47.3035 C.3       23 UNK        -0.0398 
      7 S7         -2.3992  -16.2423  -49.0566 S.3       23 UNK        -0.2404 
      8 C8         -0.8040  -16.1518  -49.9395 C.3       23 UNK        -0.0205 
      9 C9         -0.2218  -17.5175  -50.2923 C.ar      23 UNK        -0.0193 
     10 C10        -1.0034  -18.4653  -50.9581 C.ar      23 UNK        -0.1150 
     11 C11        -0.4647  -19.6799  -51.3873 C.ar      23 UNK        -0.0193 
     12 C12         0.8888  -19.9399  -51.1427 C.ar      23 UNK        -0.1150 
     13 C13         1.6847  -19.0147  -50.4600 C.ar      23 UNK        -0.0193 
     14 C14         1.1215  -17.8064  -50.0338 C.ar      23 UNK        -0.1150 
     15 C15         3.1668  -19.2937  -50.2324 C.3       23 UNK        -0.0205 
     16 S16         3.4936  -20.9023  -49.4355 S.3       23 UNK        -0.2404 
     17 C17         2.7742  -20.6368  -47.7830 C.3       23 UNK        -0.0398 
     18 CA          1.9480  -21.8430  -47.2751 C.3       11 UNK         0.1400 
     19 N           1.7235  -21.7654  -45.8315 N.am      11 UNK        -0.5000 
     20 C           1.2720  -22.7699  -45.0686 C.2       10 UNK         0.5000 
     21 O           1.1133  -23.9203  -45.4757 O.2       10 UNK        -0.5000 
     22 CA          0.9059  -22.4248  -43.6123 C.3       10 UNK         0.1400 
     23 CB          2.1186  -22.6130  -42.6888 C.3       10 UNK        -0.1800 
     24 N           0.3868  -21.0634  -43.4630 N.am      10 UNK        -0.5000 
     25 C          -0.7631  -20.6221  -43.9929 C.2       9 UNK         0.5000 
     26 O          -1.5439  -21.3418  -44.6138 O.2       9 UNK        -0.5000 
     27 CA         -1.0600  -19.1164  -43.8528 C.3       9 UNK         0.1400 
     28 CB         -1.6517  -18.8001  -42.4724 C.3       9 UNK        -0.1800 
     29 N           0.1259  -18.2906  -44.0971 N.am      9 UNK        -0.5000 
     30 C           0.7462  -18.2156  -45.2839 C.2       8 UNK         0.5000 
     31 O           0.3336  -18.7710  -46.2998 O.2       8 UNK        -0.5000 
     32 CA          2.0801  -17.4538  -45.3428 C.3       8 UNK         0.1400 
     33 CB          1.8605  -15.9719  -45.6502 C.3       8 UNK        -0.1800 
     34 N           2.8408  -17.5884  -44.1037 N.am      8 UNK        -0.5000 
     35 C           3.5182  -18.6928  -43.7636 C.2       7 UNK         0.5000 
     36 O           3.5942  -19.6921  -44.4784 O.2       7 UNK        -0.5000 
     37 CA          4.1830  -18.6955  -42.3747 C.3       7 UNK         0.1400 
     38 CB          5.5438  -17.9850  -42.4227 C.3       7 UNK        -0.1800 
     39 N           3.3458  -18.0710  -41.3491 N.am      7 UNK        -0.5000 
     40 C           2.1566  -18.5451  -40.9529 C.2       6 UNK         0.5000 
     41 O           1.6635  -19.5870  -41.3808 O.2       6 UNK        -0.5000 
     42 CA          1.3636  -17.7010  -39.9393 C.3       6 UNK         0.1400 
     43 CB          1.6516  -18.1755  -38.5074 C.3       6 UNK        -0.1800 
     44 N           1.6144  -16.2606  -40.0282 N.am      6 UNK        -0.5000 
     45 C           1.3745  -15.4894  -41.0979 C.2       5 UNK         0.5000 
     46 O           0.9579  -15.9282  -42.1733 O.2       5 UNK        -0.5000 
     47 CA          1.6280  -13.9835  -40.8898 C.3       5 UNK         0.1400 
     48 CB          3.0614  -13.6895  -40.3938 C.3       5 UNK        -0.1800 
     49 N           1.2805  -13.1610  -42.0516 N.am      5 UNK        -0.5000 
     50 C           1.9375  -13.0164  -43.2127 C.2       4 UNK         0.5000 
     51 O           2.9941  -13.5903  -43.4806 O.2       4 UNK        -0.5000 
     52 CA          1.3187  -12.0315  -44.2317 C.3       4 UNK         0.1400 
     53 CB          1.5954  -12.4183  -45.6954 C.3       4 UNK        -0.1800 
     54 N          -0.1269  -11.9041  -44.0439 N.am      4 UNK        -0.5000 
     55 C          -0.7502  -10.8941  -43.4199 C.2       3 UNK         0.5000 
     56 O          -0.1725   -9.8921  -42.9982 O.2       3 UNK        -0.5000 
     57 CA         -2.2711  -11.0386  -43.1924 C.3       3 UNK         0.1400 
     58 CB         -3.0504  -10.2587  -44.2620 C.3       3 UNK        -0.1800 
     59 N          -2.7304  -12.4299  -43.1923 N.am      3 UNK        -0.5000 
     60 C          -2.3657  -13.3662  -42.3046 C.2       2 UNK         0.5000 
     61 O          -1.6910  -13.1240  -41.3034 O.2       2 UNK        -0.5000 
     62 CA         -2.7697  -14.8226  -42.6121 C.3       2 UNK         0.1400 
     63 CB         -3.9257  -15.2724  -41.7072 C.3       2 UNK        -0.1800 
     64 N          -3.1341  -15.0734  -44.0123 N.am      2 UNK        -0.5000 
     65 C          -2.3109  -14.9551  -45.0647 C.2       1 UNK         0.5000 
     66 O          -1.1571  -14.5414  -44.9595 O.2       1 UNK        -0.5000 
     67 C           0.6093  -22.0179  -48.0256 C.2       11 UNK         0.5000 
     68 O           0.4635  -22.9714  -48.7898 O.2       11 UNK        -0.5000 
     69 N          -0.3633  -21.1404  -47.7367 N.am      12 UNK        -0.5000 
     70 CA         -1.7120  -21.1486  -48.3093 C.3       12 UNK         0.1400 
     71 CB         -2.4844  -19.9278  -47.8019 C.3       12 UNK        -0.1800 
     72 C          -2.5034  -22.4396  -48.0524 C.2       12 UNK         0.5000 
     73 O          -3.2606  -22.8723  -48.9224 O.2       12 UNK        -0.5000 
     74 N          -2.2762  -23.0650  -46.8901 N.am      13 UNK        -0.5000 
     75 CA         -2.8491  -24.3483  -46.4807 C.3       13 UNK         0.1400 
     76 CB         -2.4364  -24.6434  -45.0306 C.3       13 UNK        -0.1800 
     77 C          -2.5017  -25.5397  -47.4001 C.2       13 UNK         0.5000 
     78 O          -3.1783  -26.5649  -47.3144 O.2       13 UNK        -0.5000 
     79 N          -1.4914  -25.3967  -48.2739 N.am      14 UNK        -0.5000 
     80 CA         -1.1593  -26.3728  -49.3143 C.3       14 UNK         0.1400 
     81 CB          0.1744  -25.9940  -49.9748 C.3       14 UNK        -0.1800 
     82 C          -2.2689  -26.5088  -50.3761 C.2       14 UNK         0.5000 
     83 O          -2.5428  -27.6246  -50.8201 O.2       14 UNK        -0.5000 
     84 N          -2.8988  -25.3834  -50.7415 N.am      15 UNK        -0.5000 
     85 CA         -4.0601  -25.3401  -51.6333 C.3       15 UNK         0.1400 
     86 CB         -3.9149  -24.1524  -52.5969 C.3       15 UNK        -0.1800 
     87 C          -5.3791  -25.2134  -50.8525 C.2       15 UNK         0.5000 
     88 O          -6.4209  -25.6162  -51.3707 O.2       15 UNK        -0.5000 
     89 N          -5.3113  -24.6290  -49.6457 N.am      16 UNK        -0.5000 
     90 CA         -6.4256  -24.1579  -48.8174 C.3       16 UNK         0.1400 
     91 CB         -7.3148  -25.3254  -48.3422 C.3       16 UNK        -0.1800 
     92 C          -7.1995  -23.0313  -49.5329 C.2       16 UNK         0.5000 
     93 O          -8.4317  -23.0346  -49.5632 O.2       16 UNK        -0.5000 
     94 N          -6.4418  -22.1040  -50.1296 N.am      17 UNK        -0.5000 
     95 CA         -6.9186  -21.0261  -50.9865 C.3       17 UNK         0.1400 
     96 CB         -7.1708  -21.5793  -52.4026 C.3       17 UNK        -0.1800 
     97 C          -5.8864  -19.8872  -50.9977 C.2       17 UNK         0.5000 
     98 O          -4.8010  -20.0319  -50.4312 O.2       17 UNK        -0.5000 
     99 N          -6.2570  -18.7716  -51.6369 N.am      18 UNK        -0.5000 
    100 CA        -5.4366  -17.5708  -51.8055 C.3       18 UNK         0.1400 
    101 CB        -6.3621  -16.4193  -52.2405 C.3       18 UNK        -0.1800 
    102 C         -4.2623  -17.7616  -52.7929 C.2       18 UNK         0.5000 
    103 O         -4.0278  -18.8648  -53.2909 O.2       18 UNK        -0.5000 
    104 N         -3.5300  -16.6672  -53.0446 N.am      19 UNK        -0.5000 
    105 CA        -2.3523  -16.5910  -53.9135 C.3       19 UNK         0.1400 
    106 CB        -1.8986  -15.1256  -54.0001 C.3       19 UNK        -0.1800 
    107 C         -2.5697  -17.1649  -55.3290 C.2       19 UNK         0.5000 
    108 O         -3.6658  -17.0545  -55.8819 O.2       19 UNK        -0.5000 
    109 N         -1.5021  -17.7625  -55.8743 N.am      20 UNK        -0.5000 
    110 CA        -1.3820  -18.4320  -57.1773 C.3       20 UNK         0.1400 
    111 CB        -1.8326  -17.5283  -58.3422 C.3       20 UNK        -0.1800 
    112 C         -2.0356  -19.8271  -57.2550 C.2       20 UNK         0.5000 
    113 O         -1.6190  -20.6229  -58.0983 O.2       20 UNK        -0.5000 
    114 N         -2.9869  -20.1466  -56.3630 N.am      21 UNK        -0.5000 
    115 CA        -3.6413  -21.4610  -56.2814 C.3       21 UNK         0.1400 
    116 CB        -4.8152  -21.3866  -55.2948 C.3       21 UNK        -0.1800 
    117 C         -2.6795  -22.5964  -55.8752 C.2       21 UNK         0.5000 
    118 O         -2.9131  -23.7535  -56.2248 O.2       21 UNK        -0.5000 
    119 N         -1.6081  -22.2288  -55.1646 N.am      22 UNK        -0.5000 
    120 CA        -0.4929  -23.0980  -54.7648 C.3       22 UNK         0.1400 
    121 C          0.5217  -23.3933  -55.9110 C.2       22 UNK         0.5000 
    122 N          0.3983  -22.8017  -57.0949 N.am      22 UNK        -0.7600 
    123 O          1.4404  -24.1864  -55.7256 O.2       22 UNK        -0.5000 
    124 C124        0.2292  -22.5377  -53.5107 C.3       23 UNK        -0.0398 
    125 S125       -0.8743  -22.4135  -52.0609 S.3       23 UNK        -0.2404 
    126 C126       -1.3829  -20.6594  -52.1197 C.3       23 UNK        -0.0205 
    127 H127       -6.6891  -16.4544  -46.7890 H         1 UNK         0.0600 
    128 H128       -6.6690  -17.4689  -45.3429 H         1 UNK         0.0600 
    129 H129       -6.2578  -18.1620  -46.9156 H         1 UNK         0.0600 
    130 H130       -4.9191  -15.1406  -46.9335 H         1 UNK         0.3000 
    131 H131       -2.9147  -14.2938  -46.9633 H         1 UNK         0.0600 
    132 H132       -0.8862  -15.7298  -47.2590 H         1 UNK         0.0800 
    133 H133       -1.8211  -17.1470  -46.8863 H         1 UNK         0.0800 
    134 H134       -0.0898  -15.5537  -49.3724 H         1 UNK         0.0800 
    135 H135       -0.9674  -15.6117  -50.8719 H         1 UNK         0.0800 
    136 H136       -2.0433  -18.2510  -51.1508 H         1 UNK         0.1150 
    137 H137        1.3358  -20.8652  -51.4735 H         1 UNK         0.1150 
    138 H138        1.7380  -17.0757  -49.5296 H         1 UNK         0.1150 
    139 H139        3.6732  -19.2748  -51.1981 H         1 UNK         0.0800 
    140 H140        3.6235  -18.5053  -49.6319 H         1 UNK         0.0800 
    141 H141        2.1770  -19.7261  -47.7820 H         1 UNK         0.0800 
    142 H142        3.6075  -20.4478  -47.1051 H         1 UNK         0.0800 
    143 H143        2.5391  -22.7445  -47.4518 H         1 UNK         0.0600 
    144 H144        1.8764  -20.8655  -45.3959 H         1 UNK         0.3000 
    145 H145        0.1240  -23.1178  -43.2951 H         1 UNK         0.0600 
    146 H146        1.8487  -22.4467  -41.6458 H         1 UNK         0.0600 
    147 H147        2.5151  -23.6261  -42.7651 H         1 UNK         0.0600 
    148 H148        2.9255  -21.9235  -42.9389 H         1 UNK         0.0600 
    149 H149        0.9416  -20.4267  -42.8963 H         1 UNK         0.3000 
    150 H150       -1.8029  -18.8533  -44.6062 H         1 UNK         0.0600 
    151 H151       -2.5990  -19.3218  -42.3319 H         1 UNK         0.0600 
    152 H152       -1.8490  -17.7358  -42.3606 H         1 UNK         0.0600 
    153 H153       -0.9880  -19.1088  -41.6660 H         1 UNK         0.0600 
    154 H154        0.5024  -17.7664  -43.3168 H         1 UNK         0.3000 
    155 H155        2.6694  -17.8757  -46.1597 H         1 UNK         0.0600 
    156 H156        1.3407  -15.8413  -46.5988 H         1 UNK         0.0600 
    157 H157        2.8082  -15.4384  -45.7229 H         1 UNK         0.0600 
    158 H158        1.2665  -15.4930  -44.8727 H         1 UNK         0.0600 
    159 H159        2.7704  -16.8248  -43.4441 H         1 UNK         0.3000 
    160 H160        4.3494  -19.7361  -42.0880 H         1 UNK         0.0600 
    161 H161        5.4394  -16.9292  -42.6765 H         1 UNK         0.0600 
    162 H162        6.1948  -18.4399  -43.1705 H         1 UNK         0.0600 
    163 H163        6.0571  -18.0509  -41.4633 H         1 UNK         0.0600 
    164 H164        3.6768  -17.2059  -40.9489 H         1 UNK         0.3000 
    165 H165        0.3030  -17.8585  -40.1409 H         1 UNK         0.0600 
    166 H166        1.0236  -17.6546  -37.7844 H         1 UNK         0.0600 
    167 H167        1.4492  -19.2423  -38.4012 H         1 UNK         0.0600 
    168 H168        2.6934  -18.0099  -38.2301 H         1 UNK         0.0600 
    169 H169        1.9511  -15.8207  -39.1840 H         1 UNK         0.3000 
    170 H170        0.9387  -13.6675  -40.1054 H         1 UNK         0.0600 
    171 H171        3.2308  -14.1031  -39.3995 H         1 UNK         0.0600 
    172 H172        3.8177  -14.1157  -41.0536 H         1 UNK         0.0600 
    173 H173        3.2430  -12.6168  -40.3257 H         1 UNK         0.0600 
    174 H174        0.3846  -12.6977  -41.9720 H         1 UNK         0.3000 
    175 H175        1.8055  -11.0708  -44.0539 H         1 UNK         0.0600 
    176 H176        1.0760  -13.3332  -45.9756 H         1 UNK         0.0600 
    177 H177        1.2619  -11.6324  -46.3729 H         1 UNK         0.0600 
    178 H178        2.6601  -12.5688  -45.8773 H         1 UNK         0.0600 
    179 H179       -0.6673  -12.7156  -44.3300 H         1 UNK         0.3000 
    180 H180       -2.5003  -10.6082  -42.2154 H         1 UNK         0.0600 
    181 H181       -2.7554   -9.2085  -44.2723 H         1 UNK         0.0600 
    182 H182       -4.1233  -10.2911  -44.0715 H         1 UNK         0.0600 
    183 H183       -2.8730  -10.6592  -45.2610 H         1 UNK         0.0600 
    184 H184       -3.2918  -12.7199  -43.9789 H         1 UNK         0.3000 
    185 H185       -1.8962  -15.4362  -42.3856 H         1 UNK         0.0600 
    186 H186       -3.6759  -15.1335  -40.6544 H         1 UNK         0.0600 
    187 H187       -4.8360  -14.7060  -41.9072 H         1 UNK         0.0600 
    188 H188       -4.1486  -16.3302  -41.8494 H         1 UNK         0.0600 
    189 H189       -4.0682  -15.4154  -44.1838 H         1 UNK         0.3000 
    190 H190       -0.1523  -20.3656  -47.1120 H         1 UNK         0.3000 
    191 H191       -1.6102  -21.0605  -49.3878 H         1 UNK         0.0600 
    192 H192       -2.0148  -19.0144  -48.1589 H         1 UNK         0.0600 
    193 H193       -3.5130  -19.9254  -48.1612 H         1 UNK         0.0600 
    194 H194       -2.5180  -19.8902  -46.7137 H         1 UNK         0.0600 
    195 H195       -1.6934  -22.5924  -46.2066 H         1 UNK         0.3000 
    196 H196       -3.9346  -24.2371  -46.5046 H         1 UNK         0.0600 
    197 H197       -2.8970  -25.5646  -44.6717 H         1 UNK         0.0600 
    198 H198       -2.7486  -23.8435  -44.3591 H         1 UNK         0.0600 
    199 H199       -1.3572  -24.7597  -44.9367 H         1 UNK         0.0600 
    200 H200       -0.9670  -24.5286  -48.2846 H         1 UNK         0.3000 
    201 H201       -1.0348  -27.3451  -48.8331 H         1 UNK         0.0600 
    202 H202        0.9727  -25.9121  -49.2369 H         1 UNK         0.0600 
    203 H203        0.1064  -25.0413  -50.5015 H         1 UNK         0.0600 
    204 H204        0.4771  -26.7482  -50.7020 H         1 UNK         0.0600 
    205 H205       -2.6136  -24.5065  -50.3231 H         1 UNK         0.3000 
    206 H206       -4.1151  -26.2516  -52.2320 H         1 UNK         0.0600 
    207 H207       -3.0169  -24.2518  -53.2050 H         1 UNK         0.0600 
    208 H208       -4.7617  -24.0963  -53.2820 H         1 UNK         0.0600 
    209 H209       -3.8598  -23.2016  -52.0644 H         1 UNK         0.0600 
    210 H210       -4.4069  -24.2619  -49.3639 H         1 UNK         0.3000 
    211 H211       -5.9781  -23.7052  -47.9316 H         1 UNK         0.0600 
    212 H212       -7.8600  -25.7873  -49.1655 H         1 UNK         0.0600 
    213 H213       -8.0530  -24.9799  -47.6179 H         1 UNK         0.0600 
    214 H214       -6.7201  -26.0992  -47.8567 H         1 UNK         0.0600 
    215 H215       -5.4362  -22.1155  -49.9991 H         1 UNK         0.3000 
    216 H216       -7.8489  -20.6256  -50.5785 H         1 UNK         0.0600 
    217 H217       -7.4979  -20.7985  -53.0895 H         1 UNK         0.0600 
    218 H218       -7.9459  -22.3458  -52.3952 H         1 UNK         0.0600 
    219 H219       -6.2680  -22.0272  -52.8172 H         1 UNK         0.0600 
    220 H220       -7.1539  -18.7575  -52.0987 H         1 UNK         0.3000 
    221 H221       -5.0048  -17.3193  -50.8343 H         1 UNK         0.0600 
    222 H222       -6.7718  -16.5898  -53.2370 H         1 UNK         0.0600 
    223 H223       -7.1982  -16.3035  -51.5503 H         1 UNK         0.0600 
    224 H224       -5.8362  -15.4644  -52.2597 H         1 UNK         0.0600 
    225 H225       -3.8063  -15.8005  -52.6088 H         1 UNK         0.3000 
    226 H226       -1.5621  -17.1673  -53.4299 H         1 UNK         0.0600 
    227 H227       -1.6731  -14.7185  -53.0148 H         1 UNK         0.0600 
    228 H228       -0.9949  -15.0294  -54.6034 H         1 UNK         0.0600 
    229 H229       -2.6647  -14.4964  -54.4553 H         1 UNK         0.0600 
    230 H230       -0.6564  -17.7885  -55.3214 H         1 UNK         0.3000 
    231 H231       -0.3119  -18.6021  -57.3064 H         1 UNK         0.0600 
    232 H232       -1.5680  -17.9749  -59.3015 H         1 UNK         0.0600 
    233 H233       -1.3509  -16.5517  -58.2954 H         1 UNK         0.0600 
    234 H234       -2.9116  -17.3735  -58.3485 H         1 UNK         0.0600 
    235 H235       -3.2948  -19.4435  -55.7031 H         1 UNK         0.3000 
    236 H236       -4.0387  -21.6987  -57.2702 H         1 UNK         0.0600 
    237 H237       -5.4942  -20.5697  -55.5397 H         1 UNK         0.0600 
    238 H238       -5.3951  -22.3102  -55.3105 H         1 UNK         0.0600 
    239 H239       -4.4661  -21.2404  -54.2723 H         1 UNK         0.0600 
    240 H240       -1.5133  -21.2523  -54.9365 H         1 UNK         0.3000 
    241 H241       -0.9123  -24.0685  -54.4934 H         1 UNK         0.0600 
    242 H242        1.0644  -23.0145  -57.8207 H         1 UNK         0.3800 
    243 H243       -0.3595  -22.1599  -57.2895 H         1 UNK         0.3800 
    244 H244        1.0558  -23.1898  -53.2235 H         1 UNK         0.0800 
    245 H245        0.6727  -21.5640  -53.7244 H         1 UNK         0.0800 
    246 H246       -2.3809  -20.6036  -51.6813 H         1 UNK         0.0800 
    247 H247       -1.4954  -20.3314  -53.1521 H         1 UNK         0.0800 
@<TRIPOS>BOND
     1    1    2 1    
     2    1  127 1    
     3    1  128 1    
     4    1  129 1    
     5    2    3 2    
     6    2    4 am   BACKBONE|DICT|INTERRES
     7    4    5 1    
     8    4  130 1    
     9    5    6 1    
    10    5   65 1    
    11    5  131 1    
    12    6    7 1    
    13    6  132 1    
    14    6  133 1    
    15    7    8 1    
    16    8    9 1    
    17    8  134 1    
    18    8  135 1    
    19    9   10 ar   
    20    9   14 ar   
    21   10   11 ar   
    22   10  136 1    
    23   11   12 ar   
    24   11  126 1    
    25   12   13 ar   
    26   12  137 1    
    27   13   14 ar   
    28   13   15 1    
    29   14  138 1    
    30   15   16 1    
    31   15  139 1    
    32   15  140 1    
    33   16   17 1    
    34   17   18 1    
    35   17  141 1    
    36   17  142 1    
    37   18   19 1    
    38   18   67 1    
    39   18  143 1    
    40   19   20 am   BACKBONE|DICT|INTERRES
    41   19  144 1    
    42   20   21 2    
    43   20   22 1    
    44   22   23 1    
    45   22   24 1    
    46   22  145 1    
    47   23  146 1    
    48   23  147 1    
    49   23  148 1    
    50   24   25 am   BACKBONE|DICT|INTERRES
    51   24  149 1    
    52   25   26 2    
    53   25   27 1    
    54   27   28 1    
    55   27   29 1    
    56   27  150 1    
    57   28  151 1    
    58   28  152 1    
    59   28  153 1    
    60   29   30 am   BACKBONE|DICT|INTERRES
    61   29  154 1    
    62   30   31 2    
    63   30   32 1    
    64   32   33 1    
    65   32   34 1    
    66   32  155 1    
    67   33  156 1    
    68   33  157 1    
    69   33  158 1    
    70   34   35 am   BACKBONE|DICT|INTERRES
    71   34  159 1    
    72   35   36 2    
    73   35   37 1    
    74   37   38 1    
    75   37   39 1    
    76   37  160 1    
    77   38  161 1    
    78   38  162 1    
    79   38  163 1    
    80   39   40 am   BACKBONE|DICT|INTERRES
    81   39  164 1    
    82   40   41 2    
    83   40   42 1    
    84   42   43 1    
    85   42   44 1    
    86   42  165 1    
    87   43  166 1    
    88   43  167 1    
    89   43  168 1    
    90   44   45 am   BACKBONE|DICT|INTERRES
    91   44  169 1    
    92   45   46 2    
    93   45   47 1    
    94   47   48 1    
    95   47   49 1    
    96   47  170 1    
    97   48  171 1    
    98   48  172 1    
    99   48  173 1    
   100   49   50 am   BACKBONE|DICT|INTERRES
   101   49  174 1    
   102   50   51 2    
   103   50   52 1    
   104   52   53 1    
   105   52   54 1    
   106   52  175 1    
   107   53  176 1    
   108   53  177 1    
   109   53  178 1    
   110   54   55 am   BACKBONE|DICT|INTERRES
   111   54  179 1    
   112   55   56 2    
   113   55   57 1    
   114   57   58 1    
   115   57   59 1    
   116   57  180 1    
   117   58  181 1    
   118   58  182 1    
   119   58  183 1    
   120   59   60 am   BACKBONE|DICT|INTERRES
   121   59  184 1    
   122   60   61 2    
   123   60   62 1    
   124   62   63 1    
   125   62   64 1    
   126   62  185 1    
   127   63  186 1    
   128   63  187 1    
   129   63  188 1    
   130   64   65 am   BACKBONE|DICT|INTERRES
   131   64  189 1    
   132   65   66 2    
   133   67   68 2    
   134   67   69 am   BACKBONE|DICT|INTERRES
   135   69   70 1    
   136   69  190 1    
   137   70   71 1    
   138   70   72 1    
   139   70  191 1    
   140   71  192 1    
   141   71  193 1    
   142   71  194 1    
   143   72   73 2    
   144   72   74 am   BACKBONE|DICT|INTERRES
   145   74   75 1    
   146   74  195 1    
   147   75   76 1    
   148   75   77 1    
   149   75  196 1    
   150   76  197 1    
   151   76  198 1    
   152   76  199 1    
   153   77   78 2    
   154   77   79 am   BACKBONE|DICT|INTERRES
   155   79   80 1    
   156   79  200 1    
   157   80   81 1    
   158   80   82 1    
   159   80  201 1    
   160   81  202 1    
   161   81  203 1    
   162   81  204 1    
   163   82   83 2    
   164   82   84 am   BACKBONE|DICT|INTERRES
   165   84   85 1    
   166   84  205 1    
   167   85   86 1    
   168   85   87 1    
   169   85  206 1    
   170   86  207 1    
   171   86  208 1    
   172   86  209 1    
   173   87   88 2    
   174   87   89 am   BACKBONE|DICT|INTERRES
   175   89   90 1    
   176   89  210 1    
   177   90   91 1    
   178   90   92 1    
   179   90  211 1    
   180   91  212 1    
   181   91  213 1    
   182   91  214 1    
   183   92   93 2    
   184   92   94 am   BACKBONE|DICT|INTERRES
   185   94   95 1    
   186   94  215 1    
   187   95   96 1    
   188   95   97 1    
   189   95  216 1    
   190   96  217 1    
   191   96  218 1    
   192   96  219 1    
   193   97   98 2    
   194   97   99 am   BACKBONE|DICT|INTERRES
   195   99  100 1    
   196   99  220 1    
   197  100  101 1    
   198  100  102 1    
   199  100  221 1    
   200  101  222 1    
   201  101  223 1    
   202  101  224 1    
   203  102  103 2    
   204  102  104 am   BACKBONE|DICT|INTERRES
   205  104  105 1    
   206  104  225 1    
   207  105  106 1    
   208  105  107 1    
   209  105  226 1    
   210  106  227 1    
   211  106  228 1    
   212  106  229 1    
   213  107  108 2    
   214  107  109 am   BACKBONE|DICT|INTERRES
   215  109  110 1    
   216  109  230 1    
   217  110  111 1    
   218  110  112 1    
   219  110  231 1    
   220  111  232 1    
   221  111  233 1    
   222  111  234 1    
   223  112  113 2    
   224  112  114 am   BACKBONE|DICT|INTERRES
   225  114  115 1    
   226  114  235 1    
   227  115  116 1    
   228  115  117 1    
   229  115  236 1    
   230  116  237 1    
   231  116  238 1    
   232  116  239 1    
   233  117  118 2    
   234  117  119 am   BACKBONE|DICT|INTERRES
   235  119  120 1    
   236  119  240 1    
   237  120  121 1    
   238  120  124 1    
   239  120  241 1    
   240  121  122 am   BACKBONE|DICT|INTERRES
   241  121  123 2    
   242  122  242 1    
   243  122  243 1    
   244  124  125 1    
   245  124  244 1    
   246  124  245 1    
   247  125  126 1    
   248  126  246 1    
   249  126  247 1    
@<TRIPOS>SUBSTRUCTURE
     1 UNK         1 GROUP             0       ****    0 ROOT    
