@<TRIPOS>MOLECULE
3R540
247   249    1
SMALL
USER_CHARGES


@<TRIPOS>ATOM
      1 CA          0.7901  -11.4859  -54.6246 C.3       0 UNK        -0.1800 
      2 C           1.3959  -11.4154  -53.2296 C.2       0 UNK         0.5000 
      3 O           1.4605  -10.3343  -52.6431 O.2       0 UNK        -0.5000 
      4 N           1.8478  -12.5592  -52.7028 N.am      1 UNK        -0.5000 
      5 CA          2.3880  -12.7079  -51.3482 C.3       1 UNK         0.1400 
      6 C6          3.2705  -13.9764  -51.2225 C.3       23 UNK        -0.0398 
      7 S7          2.4409  -15.5443  -51.6670 S.3       23 UNK        -0.2404 
      8 C8          2.0611  -16.1706  -50.0060 C.3       23 UNK        -0.0205 
      9 C9          1.3693  -17.5209  -50.0413 C.ar      23 UNK        -0.0193 
     10 C10         0.0032  -17.6026  -50.3266 C.ar      23 UNK        -0.1150 
     11 C11        -0.6686  -18.8243  -50.2271 C.ar      23 UNK        -0.0193 
     12 C12         0.0382  -19.9711  -49.8534 C.ar      23 UNK        -0.1150 
     13 C13         1.4067  -19.9003  -49.5758 C.ar      23 UNK        -0.0193 
     14 C14         2.0709  -18.6766  -49.6878 C.ar      23 UNK        -0.1150 
     15 C15         2.1571  -21.1335  -49.1068 C.3       23 UNK        -0.0205 
     16 S16         2.3743  -21.1124  -47.2954 S.3       23 UNK        -0.2404 
     17 C17         2.2882  -22.8963  -46.9193 C.3       23 UNK        -0.0398 
     18 CA          0.9570  -23.3726  -46.2852 C.3       11 UNK         0.1400 
     19 N           0.8617  -23.0657  -44.8561 N.am      11 UNK        -0.5000 
     20 C           0.0128  -23.6568  -44.0020 C.2       10 UNK         0.5000 
     21 O          -0.7917  -24.5227  -44.3554 O.2       10 UNK        -0.5000 
     22 CA          0.0014  -23.1689  -42.5383 C.3       10 UNK         0.1400 
     23 CB          0.0907  -24.3386  -41.5387 C.3       10 UNK        -0.1800 
     24 N           0.9871  -22.1221  -42.2430 N.am      10 UNK        -0.5000 
     25 C           2.3226  -22.2123  -42.1653 C.2       9 UNK         0.5000 
     26 O           2.9509  -23.2641  -42.2819 O.2       9 UNK        -0.5000 
     27 CA          3.0960  -20.8913  -41.9712 C.3       9 UNK         0.1400 
     28 CB          3.7590  -20.4742  -43.2940 C.3       9 UNK        -0.1800 
     29 N           2.2578  -19.7853  -41.4996 N.am      9 UNK        -0.5000 
     30 C           1.7824  -19.6566  -40.2532 C.2       8 UNK         0.5000 
     31 O           2.0510  -20.4329  -39.3358 O.2       8 UNK        -0.5000 
     32 CA          0.8139  -18.4842  -40.0004 C.3       8 UNK         0.1400 
     33 CB          1.5838  -17.1812  -39.7374 C.3       8 UNK        -0.1800 
     34 N          -0.1308  -18.2825  -41.1020 N.am      8 UNK        -0.5000 
     35 C          -1.0865  -19.1560  -41.4527 C.2       7 UNK         0.5000 
     36 O          -1.3022  -20.2106  -40.8562 O.2       7 UNK        -0.5000 
     37 CA         -1.9070  -18.8239  -42.7104 C.3       7 UNK         0.1400 
     38 CB         -3.0416  -17.8400  -42.3906 C.3       7 UNK        -0.1800 
     39 N          -1.0751  -18.2843  -43.7832 N.am      7 UNK        -0.5000 
     40 C          -0.1471  -18.9820  -44.4512 C.2       6 UNK         0.5000 
     41 O           0.0462  -20.1872  -44.2948 O.2       6 UNK        -0.5000 
     42 CA          0.7115  -18.2023  -45.4592 C.3       6 UNK         0.1400 
     43 CB         -0.0252  -18.0931  -46.7931 C.3       6 UNK        -0.1800 
     44 N           1.0651  -16.8621  -44.9957 N.am      6 UNK        -0.5000 
     45 C           1.8293  -16.6063  -43.9258 C.2       5 UNK         0.5000 
     46 O           2.3544  -17.4779  -43.2348 O.2       5 UNK        -0.5000 
     47 CA          1.9791  -15.1286  -43.5286 C.3       5 UNK         0.1400 
     48 CB          3.0916  -14.4499  -44.3414 C.3       5 UNK        -0.1800 
     49 N           0.7232  -14.3975  -43.6987 N.am      5 UNK        -0.5000 
     50 C          -0.3652  -14.5900  -42.9389 C.2       4 UNK         0.5000 
     51 O          -0.4007  -15.3622  -41.9803 O.2       4 UNK        -0.5000 
     52 CA         -1.6380  -13.8284  -43.3534 C.3       4 UNK         0.1400 
     53 CB         -1.6216  -12.3987  -42.7926 C.3       4 UNK        -0.1800 
     54 N          -1.8109  -13.7790  -44.8070 N.am      4 UNK        -0.5000 
     55 C          -2.0596  -14.8489  -45.5768 C.2       3 UNK         0.5000 
     56 O          -2.2291  -15.9801  -45.1259 O.2       3 UNK        -0.5000 
     57 CA         -2.0854  -14.6288  -47.1027 C.3       3 UNK         0.1400 
     58 CB         -3.5233  -14.4111  -47.5945 C.3       3 UNK        -0.1800 
     59 N          -1.2531  -13.5040  -47.5369 N.am      3 UNK        -0.5000 
     60 C           0.0833  -13.4745  -47.4628 C.2       2 UNK         0.5000 
     61 O           0.7654  -14.4048  -47.0271 O.2       2 UNK        -0.5000 
     62 CA          0.7625  -12.1605  -47.8921 C.3       2 UNK         0.1400 
     63 CB          1.5457  -11.5496  -46.7186 C.3       2 UNK        -0.1800 
     64 N           1.6630  -12.3332  -49.0320 N.am      2 UNK        -0.5000 
     65 C           1.2731  -12.6427  -50.2763 C.2       1 UNK         0.5000 
     66 O           0.0980  -12.8592  -50.5857 O.2       1 UNK        -0.5000 
     67 C          -0.3009  -22.9370  -47.0681 C.2       11 UNK         0.5000 
     68 O          -0.5638  -23.4966  -48.1313 O.2       11 UNK        -0.5000 
     69 N          -1.0929  -22.0102  -46.5064 N.am      12 UNK        -0.5000 
     70 CA         -2.4268  -21.6411  -46.9872 C.3       12 UNK         0.1400 
     71 CB         -3.0111  -20.5516  -46.0766 C.3       12 UNK        -0.1800 
     72 C          -3.4053  -22.8294  -47.0525 C.2       12 UNK         0.5000 
     73 O          -4.2602  -22.8567  -47.9365 O.2       12 UNK        -0.5000 
     74 N          -3.2513  -23.7836  -46.1247 N.am      13 UNK        -0.5000 
     75 CA         -4.0270  -25.0180  -46.0696 C.3       13 UNK         0.1400 
     76 CB         -4.3827  -25.3224  -44.6054 C.3       13 UNK        -0.1800 
     77 C          -3.2487  -26.1888  -46.6896 C.2       13 UNK         0.5000 
     78 O          -3.8306  -26.9660  -47.4467 O.2       13 UNK        -0.5000 
     79 N          -1.9575  -26.3103  -46.3459 N.am      14 UNK        -0.5000 
     80 CA         -1.1226  -27.4576  -46.7093 C.3       14 UNK         0.1400 
     81 CB          0.1033  -27.5076  -45.7842 C.3       14 UNK        -0.1800 
     82 C          -0.6920  -27.4948  -48.1885 C.2       14 UNK         0.5000 
     83 O          -0.4352  -28.5859  -48.6997 O.2       14 UNK        -0.5000 
     84 N          -0.6098  -26.3298  -48.8446 N.am      15 UNK        -0.5000 
     85 CA         -0.2125  -26.1959  -50.2479 C.3       15 UNK         0.1400 
     86 CB          1.1649  -25.5154  -50.3332 C.3       15 UNK        -0.1800 
     87 C          -1.2587  -25.4157  -51.0572 C.2       15 UNK         0.5000 
     88 O          -1.6037  -25.8445  -52.1587 O.2       15 UNK        -0.5000 
     89 N          -1.7377  -24.2915  -50.5006 N.am      16 UNK        -0.5000 
     90 CA         -2.6873  -23.3412  -51.0939 C.3       16 UNK         0.1400 
     91 CB         -4.0864  -23.9767  -51.2295 C.3       16 UNK        -0.1800 
     92 C          -2.1640  -22.7396  -52.4165 C.2       16 UNK         0.5000 
     93 O          -2.8999  -22.6647  -53.4033 O.2       16 UNK        -0.5000 
     94 N          -0.8780  -22.3564  -52.4119 N.am      17 UNK        -0.5000 
     95 CA         -0.1291  -21.8358  -53.5570 C.3       17 UNK         0.1400 
     96 CB          1.2970  -21.4797  -53.1089 C.3       17 UNK        -0.1800 
     97 C          -0.8118  -20.6255  -54.2221 C.2       17 UNK         0.5000 
     98 O          -1.1417  -19.6572  -53.5375 O.2       17 UNK        -0.5000 
     99 N          -1.0283  -20.7316  -55.5404 N.am      18 UNK        -0.5000 
    100 CA        -1.7163  -19.7725  -56.4155 C.3       18 UNK         0.1400 
    101 CB        -0.9792  -18.4165  -56.4440 C.3       18 UNK        -0.1800 
    102 C         -3.2296  -19.6099  -56.1392 C.2       18 UNK         0.5000 
    103 O         -3.8494  -18.7278  -56.7362 O.2       18 UNK        -0.5000 
    104 N         -3.8069  -20.4729  -55.2867 N.am      19 UNK        -0.5000 
    105 CA        -5.2098  -20.5040  -54.8663 C.3       19 UNK         0.1400 
    106 CB        -6.1091  -20.9881  -56.0266 C.3       19 UNK        -0.1800 
    107 C         -5.6492  -19.1685  -54.2267 C.2       19 UNK         0.5000 
    108 O         -5.0601  -18.7695  -53.2211 O.2       19 UNK        -0.5000 
    109 N         -6.6714  -18.5179  -54.8068 N.am      20 UNK        -0.5000 
    110 CA        -7.2397  -17.2199  -54.4160 C.3       20 UNK         0.1400 
    111 CB        -6.2237  -16.0876  -54.6754 C.3       20 UNK        -0.1800 
    112 C         -7.7975  -17.2071  -52.9763 C.2       20 UNK         0.5000 
    113 O         -7.6687  -16.2051  -52.2698 O.2       20 UNK        -0.5000 
    114 N         -8.3798  -18.3431  -52.5623 N.am      21 UNK        -0.5000 
    115 CA        -8.9088  -18.6888  -51.2344 C.3       21 UNK         0.1400 
    116 CB       -10.0373  -17.7334  -50.8006 C.3       21 UNK        -0.1800 
    117 C         -7.8299  -18.8206  -50.1393 C.2       21 UNK         0.5000 
    118 O         -7.8516  -19.7997  -49.3925 O.2       21 UNK        -0.5000 
    119 N         -6.8979  -17.8624  -50.0861 N.am      22 UNK        -0.5000 
    120 CA        -5.7777  -17.7722  -49.1400 C.3       22 UNK         0.1400 
    121 C         -6.2237  -17.5485  -47.6587 C.2       22 UNK         0.5000 
    122 N         -5.3295  -17.7070  -46.6922 N.am      22 UNK        -0.7600 
    123 O         -7.3617  -17.1809  -47.3724 O.2       22 UNK        -0.5000 
    124 C124       -4.7681  -18.9415  -49.3349 C.3       23 UNK        -0.0398 
    125 S125       -3.0548  -18.4644  -48.9304 S.3       23 UNK        -0.2404 
    126 C126       -2.1682  -18.8929  -50.4587 C.3       23 UNK        -0.0205 
    127 H127       -0.2466  -11.1500  -54.6004 H         1 UNK         0.0600 
    128 H128        1.3431  -10.8409  -55.3074 H         1 UNK         0.0600 
    129 H129        0.8094  -12.5002  -55.0241 H         1 UNK         0.0600 
    130 H130        1.7350  -13.4229  -53.2144 H         1 UNK         0.3000 
    131 H131        3.0410  -11.8509  -51.1677 H         1 UNK         0.0600 
    132 H132        3.6959  -14.0517  -50.2205 H         1 UNK         0.0800 
    133 H133        4.1308  -13.8720  -51.8850 H         1 UNK         0.0800 
    134 H134        1.4177  -15.4608  -49.4860 H         1 UNK         0.0800 
    135 H135        2.9805  -16.2333  -49.4217 H         1 UNK         0.0800 
    136 H136       -0.5462  -16.7070  -50.5804 H         1 UNK         0.1150 
    137 H137       -0.4844  -20.9100  -49.7428 H         1 UNK         0.1150 
    138 H138        3.1226  -18.6170  -49.4458 H         1 UNK         0.1150 
    139 H139        1.6139  -22.0271  -49.4167 H         1 UNK         0.0800 
    140 H140        3.1342  -21.1847  -49.5891 H         1 UNK         0.0800 
    141 H141        3.1185  -23.1400  -46.2550 H         1 UNK         0.0800 
    142 H142        2.4825  -23.4653  -47.8297 H         1 UNK         0.0800 
    143 H143        0.9732  -24.4600  -46.3565 H         1 UNK         0.0600 
    144 H144        1.4239  -22.2989  -44.5160 H         1 UNK         0.3000 
    145 H145       -0.9709  -22.6951  -42.3966 H         1 UNK         0.0600 
    146 H146        0.0691  -23.9801  -40.5095 H         1 UNK         0.0600 
    147 H147       -0.7516  -25.0203  -41.6620 H         1 UNK         0.0600 
    148 H148        1.0006  -24.9233  -41.6740 H         1 UNK         0.0600 
    149 H149        0.5962  -21.1913  -42.1792 H         1 UNK         0.3000 
    150 H150        3.8806  -21.0723  -41.2338 H         1 UNK         0.0600 
    151 H151        4.4179  -21.2580  -43.6698 H         1 UNK         0.0600 
    152 H152        4.3636  -19.5762  -43.1658 H         1 UNK         0.0600 
    153 H153        3.0178  -20.2693  -44.0677 H         1 UNK         0.0600 
    154 H154        2.0566  -19.0516  -42.1744 H         1 UNK         0.3000 
    155 H155        0.2354  -18.7202  -39.1047 H         1 UNK         0.0600 
    156 H156        2.1802  -16.8823  -40.5993 H         1 UNK         0.0600 
    157 H157        2.2632  -17.2939  -38.8917 H         1 UNK         0.0600 
    158 H158        0.9037  -16.3623  -39.5023 H         1 UNK         0.0600 
    159 H159       -0.0480  -17.4157  -41.6218 H         1 UNK         0.3000 
    160 H160       -2.3567  -19.7528  -43.0647 H         1 UNK         0.0600 
    161 H161       -3.6610  -17.6570  -43.2689 H         1 UNK         0.0600 
    162 H162       -2.6592  -16.8792  -42.0462 H         1 UNK         0.0600 
    163 H163       -3.6920  -18.2348  -41.6093 H         1 UNK         0.0600 
    164 H164       -1.2447  -17.3201  -44.0512 H         1 UNK         0.3000 
    165 H165        1.6392  -18.7541  -45.6175 H         1 UNK         0.0600 
    166 H166       -0.1560  -19.0785  -47.2385 H         1 UNK         0.0600 
    167 H167        0.5321  -17.4756  -47.4931 H         1 UNK         0.0600 
    168 H168       -1.0159  -17.6564  -46.6835 H         1 UNK         0.0600 
    169 H169        0.7033  -16.0824  -45.5305 H         1 UNK         0.3000 
    170 H170        2.2576  -15.0900  -42.4733 H         1 UNK         0.0600 
    171 H171        4.0486  -14.9465  -44.1768 H         1 UNK         0.0600 
    172 H172        2.8894  -14.4807  -45.4122 H         1 UNK         0.0600 
    173 H173        3.2128  -13.4062  -44.0515 H         1 UNK         0.0600 
    174 H174        0.6599  -13.7827  -44.4961 H         1 UNK         0.3000 
    175 H175       -2.4947  -14.3541  -42.9262 H         1 UNK         0.0600 
    176 H176       -2.5519  -11.8767  -43.0174 H         1 UNK         0.0600 
    177 H177       -1.5091  -12.4072  -41.7076 H         1 UNK         0.0600 
    178 H178       -0.7991  -11.8119  -43.2035 H         1 UNK         0.0600 
    179 H179       -1.7016  -12.8802  -45.2521 H         1 UNK         0.3000 
    180 H180       -1.6999  -15.5353  -47.5739 H         1 UNK         0.0600 
    181 H181       -3.9506  -13.4892  -47.1986 H         1 UNK         0.0600 
    182 H182       -4.1700  -15.2309  -47.2828 H         1 UNK         0.0600 
    183 H183       -3.5645  -14.3635  -48.6828 H         1 UNK         0.0600 
    184 H184       -1.7399  -12.7085  -47.9244 H         1 UNK         0.3000 
    185 H185       -0.0096  -11.4452  -48.1835 H         1 UNK         0.0600 
    186 H186        2.3772  -12.1857  -46.4128 H         1 UNK         0.0600 
    187 H187        1.9520  -10.5729  -46.9822 H         1 UNK         0.0600 
    188 H188        0.9032  -11.4079  -45.8486 H         1 UNK         0.0600 
    189 H189        2.6447  -12.1918  -48.8438 H         1 UNK         0.3000 
    190 H190       -0.7729  -21.5632  -45.6541 H         1 UNK         0.3000 
    191 H191       -2.3217  -21.2402  -47.9966 H         1 UNK         0.0600 
    192 H192       -2.4273  -19.6351  -46.1286 H         1 UNK         0.0600 
    193 H193       -3.0452  -20.8751  -45.0364 H         1 UNK         0.0600 
    194 H194       -4.0299  -20.2993  -46.3725 H         1 UNK         0.0600 
    195 H195       -2.4993  -23.6943  -45.4538 H         1 UNK         0.3000 
    196 H196       -4.9612  -24.9040  -46.6238 H         1 UNK         0.0600 
    197 H197       -4.9624  -26.2430  -44.5279 H         1 UNK         0.0600 
    198 H198       -4.9844  -24.5224  -44.1739 H         1 UNK         0.0600 
    199 H199       -3.4923  -25.4412  -43.9865 H         1 UNK         0.0600 
    200 H200       -1.5578  -25.6531  -45.6818 H         1 UNK         0.3000 
    201 H201       -1.7061  -28.3623  -46.5248 H         1 UNK         0.0600 
    202 H202       -0.1931  -27.5232  -44.7351 H         1 UNK         0.0600 
    203 H203        0.7612  -26.6534  -45.9330 H         1 UNK         0.0600 
    204 H204        0.6924  -28.4069  -45.9681 H         1 UNK         0.0600 
    205 H205       -0.8463  -25.4723  -48.3598 H         1 UNK         0.3000 
    206 H206       -0.1254  -27.1786  -50.7159 H         1 UNK         0.0600 
    207 H207        1.9244  -26.1029  -49.8173 H         1 UNK         0.0600 
    208 H208        1.4842  -25.4105  -51.3709 H         1 UNK         0.0600 
    209 H209        1.1576  -24.5194  -49.8914 H         1 UNK         0.0600 
    210 H210       -1.3500  -24.0074  -49.6021 H         1 UNK         0.3000 
    211 H211       -2.7707  -22.5110  -50.3912 H         1 UNK         0.0600 
    212 H212       -4.0995  -24.7792  -51.9673 H         1 UNK         0.0600 
    213 H213       -4.8223  -23.2340  -51.5395 H         1 UNK         0.0600 
    214 H214       -4.4240  -24.3902  -50.2790 H         1 UNK         0.0600 
    215 H215       -0.3564  -22.4629  -51.5563 H         1 UNK         0.3000 
    216 H216       -0.0613  -22.6472  -54.2844 H         1 UNK         0.0600 
    217 H217        1.9034  -21.1647  -53.9588 H         1 UNK         0.0600 
    218 H218        1.7970  -22.3335  -52.6512 H         1 UNK         0.0600 
    219 H219        1.2989  -20.6612  -52.3887 H         1 UNK         0.0600 
    220 H220       -0.7350  -21.5834  -55.9987 H         1 UNK         0.3000 
    221 H221       -1.6492  -20.1950  -57.4189 H         1 UNK         0.0600 
    222 H222       -1.0762  -17.8808  -55.4994 H         1 UNK         0.0600 
    223 H223        0.0833  -18.5480  -56.6488 H         1 UNK         0.0600 
    224 H224       -1.3802  -17.7694  -57.2249 H         1 UNK         0.0600 
    225 H225       -3.2133  -21.1448  -54.8127 H         1 UNK         0.3000 
    226 H226       -5.2720  -21.2499  -54.0726 H         1 UNK         0.0600 
    227 H227       -5.7792  -21.9616  -56.3898 H         1 UNK         0.0600 
    228 H228       -7.1440  -21.1058  -55.7027 H         1 UNK         0.0600 
    229 H229       -6.0974  -20.3021  -56.8742 H         1 UNK         0.0600 
    230 H230       -7.0780  -18.9365  -55.6317 H         1 UNK         0.3000 
    231 H231       -8.0949  -17.0492  -55.0712 H         1 UNK         0.0600 
    232 H232       -5.8549  -16.1170  -55.7008 H         1 UNK         0.0600 
    233 H233       -5.3631  -16.1558  -54.0091 H         1 UNK         0.0600 
    234 H234       -6.6793  -15.1086  -54.5228 H         1 UNK         0.0600 
    235 H235       -8.3965  -19.1025  -53.2283 H         1 UNK         0.3000 
    236 H236       -9.3539  -19.6784  -51.3502 H         1 UNK         0.0600 
    237 H237      -10.4967  -18.0755  -49.8725 H         1 UNK         0.0600 
    238 H238       -9.6739  -16.7207  -50.6254 H         1 UNK         0.0600 
    239 H239      -10.8235  -17.6833  -51.5538 H         1 UNK         0.0600 
    240 H240       -6.9930  -17.0938  -50.7438 H         1 UNK         0.3000 
    241 H241       -5.2777  -16.8453  -49.4229 H         1 UNK         0.0600 
    242 H242       -5.6031  -17.5434  -45.7368 H         1 UNK         0.3800 
    243 H243       -4.3777  -17.9620  -46.9083 H         1 UNK         0.3800 
    244 H244       -5.0527  -19.8128  -48.7423 H         1 UNK         0.0800 
    245 H245       -4.7866  -19.2760  -50.3734 H         1 UNK         0.0800 
    246 H246       -2.4602  -18.2126  -51.2605 H         1 UNK         0.0800 
    247 H247       -2.4497  -19.8948  -50.7855 H         1 UNK         0.0800 
@<TRIPOS>BOND
     1    1    2 1    
     2    1  127 1    
     3    1  128 1    
     4    1  129 1    
     5    2    3 2    
     6    2    4 am   BACKBONE|DICT|INTERRES
     7    4    5 1    
     8    4  130 1    
     9    5    6 1    
    10    5   65 1    
    11    5  131 1    
    12    6    7 1    
    13    6  132 1    
    14    6  133 1    
    15    7    8 1    
    16    8    9 1    
    17    8  134 1    
    18    8  135 1    
    19    9   10 ar   
    20    9   14 ar   
    21   10   11 ar   
    22   10  136 1    
    23   11   12 ar   
    24   11  126 1    
    25   12   13 ar   
    26   12  137 1    
    27   13   14 ar   
    28   13   15 1    
    29   14  138 1    
    30   15   16 1    
    31   15  139 1    
    32   15  140 1    
    33   16   17 1    
    34   17   18 1    
    35   17  141 1    
    36   17  142 1    
    37   18   19 1    
    38   18   67 1    
    39   18  143 1    
    40   19   20 am   BACKBONE|DICT|INTERRES
    41   19  144 1    
    42   20   21 2    
    43   20   22 1    
    44   22   23 1    
    45   22   24 1    
    46   22  145 1    
    47   23  146 1    
    48   23  147 1    
    49   23  148 1    
    50   24   25 am   BACKBONE|DICT|INTERRES
    51   24  149 1    
    52   25   26 2    
    53   25   27 1    
    54   27   28 1    
    55   27   29 1    
    56   27  150 1    
    57   28  151 1    
    58   28  152 1    
    59   28  153 1    
    60   29   30 am   BACKBONE|DICT|INTERRES
    61   29  154 1    
    62   30   31 2    
    63   30   32 1    
    64   32   33 1    
    65   32   34 1    
    66   32  155 1    
    67   33  156 1    
    68   33  157 1    
    69   33  158 1    
    70   34   35 am   BACKBONE|DICT|INTERRES
    71   34  159 1    
    72   35   36 2    
    73   35   37 1    
    74   37   38 1    
    75   37   39 1    
    76   37  160 1    
    77   38  161 1    
    78   38  162 1    
    79   38  163 1    
    80   39   40 am   BACKBONE|DICT|INTERRES
    81   39  164 1    
    82   40   41 2    
    83   40   42 1    
    84   42   43 1    
    85   42   44 1    
    86   42  165 1    
    87   43  166 1    
    88   43  167 1    
    89   43  168 1    
    90   44   45 am   BACKBONE|DICT|INTERRES
    91   44  169 1    
    92   45   46 2    
    93   45   47 1    
    94   47   48 1    
    95   47   49 1    
    96   47  170 1    
    97   48  171 1    
    98   48  172 1    
    99   48  173 1    
   100   49   50 am   BACKBONE|DICT|INTERRES
   101   49  174 1    
   102   50   51 2    
   103   50   52 1    
   104   52   53 1    
   105   52   54 1    
   106   52  175 1    
   107   53  176 1    
   108   53  177 1    
   109   53  178 1    
   110   54   55 am   BACKBONE|DICT|INTERRES
   111   54  179 1    
   112   55   56 2    
   113   55   57 1    
   114   57   58 1    
   115   57   59 1    
   116   57  180 1    
   117   58  181 1    
   118   58  182 1    
   119   58  183 1    
   120   59   60 am   BACKBONE|DICT|INTERRES
   121   59  184 1    
   122   60   61 2    
   123   60   62 1    
   124   62   63 1    
   125   62   64 1    
   126   62  185 1    
   127   63  186 1    
   128   63  187 1    
   129   63  188 1    
   130   64   65 am   BACKBONE|DICT|INTERRES
   131   64  189 1    
   132   65   66 2    
   133   67   68 2    
   134   67   69 am   BACKBONE|DICT|INTERRES
   135   69   70 1    
   136   69  190 1    
   137   70   71 1    
   138   70   72 1    
   139   70  191 1    
   140   71  192 1    
   141   71  193 1    
   142   71  194 1    
   143   72   73 2    
   144   72   74 am   BACKBONE|DICT|INTERRES
   145   74   75 1    
   146   74  195 1    
   147   75   76 1    
   148   75   77 1    
   149   75  196 1    
   150   76  197 1    
   151   76  198 1    
   152   76  199 1    
   153   77   78 2    
   154   77   79 am   BACKBONE|DICT|INTERRES
   155   79   80 1    
   156   79  200 1    
   157   80   81 1    
   158   80   82 1    
   159   80  201 1    
   160   81  202 1    
   161   81  203 1    
   162   81  204 1    
   163   82   83 2    
   164   82   84 am   BACKBONE|DICT|INTERRES
   165   84   85 1    
   166   84  205 1    
   167   85   86 1    
   168   85   87 1    
   169   85  206 1    
   170   86  207 1    
   171   86  208 1    
   172   86  209 1    
   173   87   88 2    
   174   87   89 am   BACKBONE|DICT|INTERRES
   175   89   90 1    
   176   89  210 1    
   177   90   91 1    
   178   90   92 1    
   179   90  211 1    
   180   91  212 1    
   181   91  213 1    
   182   91  214 1    
   183   92   93 2    
   184   92   94 am   BACKBONE|DICT|INTERRES
   185   94   95 1    
   186   94  215 1    
   187   95   96 1    
   188   95   97 1    
   189   95  216 1    
   190   96  217 1    
   191   96  218 1    
   192   96  219 1    
   193   97   98 2    
   194   97   99 am   BACKBONE|DICT|INTERRES
   195   99  100 1    
   196   99  220 1    
   197  100  101 1    
   198  100  102 1    
   199  100  221 1    
   200  101  222 1    
   201  101  223 1    
   202  101  224 1    
   203  102  103 2    
   204  102  104 am   BACKBONE|DICT|INTERRES
   205  104  105 1    
   206  104  225 1    
   207  105  106 1    
   208  105  107 1    
   209  105  226 1    
   210  106  227 1    
   211  106  228 1    
   212  106  229 1    
   213  107  108 2    
   214  107  109 am   BACKBONE|DICT|INTERRES
   215  109  110 1    
   216  109  230 1    
   217  110  111 1    
   218  110  112 1    
   219  110  231 1    
   220  111  232 1    
   221  111  233 1    
   222  111  234 1    
   223  112  113 2    
   224  112  114 am   BACKBONE|DICT|INTERRES
   225  114  115 1    
   226  114  235 1    
   227  115  116 1    
   228  115  117 1    
   229  115  236 1    
   230  116  237 1    
   231  116  238 1    
   232  116  239 1    
   233  117  118 2    
   234  117  119 am   BACKBONE|DICT|INTERRES
   235  119  120 1    
   236  119  240 1    
   237  120  121 1    
   238  120  124 1    
   239  120  241 1    
   240  121  122 am   BACKBONE|DICT|INTERRES
   241  121  123 2    
   242  122  242 1    
   243  122  243 1    
   244  124  125 1    
   245  124  244 1    
   246  124  245 1    
   247  125  126 1    
   248  126  246 1    
   249  126  247 1    
@<TRIPOS>SUBSTRUCTURE
     1 UNK         1 GROUP             0       ****    0 ROOT    
