@<TRIPOS>MOLECULE
3R540
247   249    1
SMALL
USER_CHARGES


@<TRIPOS>ATOM
      1 CA          4.2821  -13.0819  -48.4548 C.3       0 UNK        -0.1800 
      2 C           3.3721  -14.0410  -47.7028 C.2       0 UNK         0.5000 
      3 O           2.3930  -13.6044  -47.0968 O.2       0 UNK        -0.5000 
      4 N           3.6935  -15.3414  -47.7738 N.am      1 UNK        -0.5000 
      5 CA          3.0895  -16.4818  -47.0640 C.3       1 UNK         0.1400 
      6 C6          3.6313  -17.8147  -47.6435 C.3       23 UNK        -0.0398 
      7 S7          3.1480  -19.3097  -46.7125 S.3       23 UNK        -0.2404 
      8 C8          1.8415  -19.9807  -47.7917 C.3       23 UNK        -0.0205 
      9 C9          2.3722  -20.5662  -49.0900 C.ar      23 UNK        -0.0193 
     10 C10         1.8077  -20.1889  -50.3115 C.ar      23 UNK        -0.1150 
     11 C11         2.2304  -20.7884  -51.5009 C.ar      23 UNK        -0.0193 
     12 C12         3.2253  -21.7690  -51.4625 C.ar      23 UNK        -0.1150 
     13 C13         3.7923  -22.1613  -50.2468 C.ar      23 UNK        -0.0193 
     14 C14         3.3753  -21.5391  -49.0672 C.ar      23 UNK        -0.1150 
     15 C15         4.8075  -23.2997  -50.2140 C.3       23 UNK        -0.0205 
     16 S16         4.4441  -24.5966  -48.9722 S.3       23 UNK        -0.2404 
     17 C17         2.6430  -24.8778  -49.1540 C.3       23 UNK        -0.0398 
     18 CA          1.9087  -25.0476  -47.7938 C.3       11 UNK         0.1400 
     19 N           2.2236  -24.0001  -46.8166 N.am      11 UNK        -0.5000 
     20 C           2.6929  -24.2216  -45.5821 C.2       10 UNK         0.5000 
     21 O           2.9551  -25.3408  -45.1400 O.2       10 UNK        -0.5000 
     22 CA          2.8754  -22.9942  -44.6682 C.3       10 UNK         0.1400 
     23 CB          4.2795  -22.3953  -44.8410 C.3       10 UNK        -0.1800 
     24 N           1.8749  -21.9387  -44.8527 N.am      10 UNK        -0.5000 
     25 C           0.5595  -22.0708  -44.6216 C.2       9 UNK         0.5000 
     26 O           0.0267  -23.1418  -44.3315 O.2       9 UNK        -0.5000 
     27 CA         -0.2895  -20.7791  -44.7076 C.3       9 UNK         0.1400 
     28 CB         -1.6925  -20.9447  -44.0871 C.3       9 UNK        -0.1800 
     29 N           0.3820  -19.5991  -44.1429 N.am      9 UNK        -0.5000 
     30 C           0.8739  -19.4689  -42.8977 C.2       8 UNK         0.5000 
     31 O           0.8404  -20.3525  -42.0409 O.2       8 UNK        -0.5000 
     32 CA          1.5032  -18.1112  -42.5450 C.3       8 UNK         0.1400 
     33 CB          2.9737  -18.0571  -42.9855 C.3       8 UNK        -0.1800 
     34 N           0.7736  -17.0050  -43.1594 N.am      8 UNK        -0.5000 
     35 C          -0.3243  -16.4463  -42.6425 C.2       7 UNK         0.5000 
     36 O          -0.8296  -16.7815  -41.5678 O.2       7 UNK        -0.5000 
     37 CA         -0.9797  -15.3424  -43.4925 C.3       7 UNK         0.1400 
     38 CB         -2.0550  -15.9447  -44.4086 C.3       7 UNK        -0.1800 
     39 N          -1.5846  -14.2914  -42.6748 N.am      7 UNK        -0.5000 
     40 C          -0.9175  -13.4746  -41.8496 C.2       6 UNK         0.5000 
     41 O           0.3071  -13.4903  -41.7106 O.2       6 UNK        -0.5000 
     42 CA         -1.7676  -12.4169  -41.1219 C.3       6 UNK         0.1400 
     43 CB         -0.9886  -11.6801  -40.0172 C.3       6 UNK        -0.1800 
     44 N          -2.2271  -11.4416  -42.1053 N.am      6 UNK        -0.5000 
     45 C          -3.3707  -11.5184  -42.7977 C.2       5 UNK         0.5000 
     46 O          -4.2572  -12.3427  -42.5719 O.2       5 UNK        -0.5000 
     47 CA         -3.5056  -10.5473  -43.9862 C.3       5 UNK         0.1400 
     48 CB         -4.0465   -9.1866  -43.5216 C.3       5 UNK        -0.1800 
     49 N          -2.2297  -10.3552  -44.6849 N.am      5 UNK        -0.5000 
     50 C          -1.6038  -11.3134  -45.3826 C.2       4 UNK         0.5000 
     51 O          -2.0693  -12.4398  -45.5708 O.2       4 UNK        -0.5000 
     52 CA         -0.2000  -10.9682  -45.9113 C.3       4 UNK         0.1400 
     53 CB          0.8648  -11.3490  -44.8704 C.3       4 UNK        -0.1800 
     54 N           0.0934  -11.6724  -47.1566 N.am      4 UNK        -0.5000 
     55 C          -0.4983  -11.4222  -48.3332 C.2       3 UNK         0.5000 
     56 O          -1.2871  -10.4946  -48.5200 O.2       3 UNK        -0.5000 
     57 CA         -0.1562  -12.3703  -49.4943 C.3       3 UNK         0.1400 
     58 CB          1.1032  -11.8871  -50.2291 C.3       3 UNK        -0.1800 
     59 N           0.0518  -13.7378  -49.0164 N.am      3 UNK        -0.5000 
     60 C          -0.9213  -14.6520  -48.8932 C.2       2 UNK         0.5000 
     61 O          -2.0859  -14.4501  -49.2366 O.2       2 UNK        -0.5000 
     62 CA         -0.5352  -16.0204  -48.2962 C.3       2 UNK         0.1400 
     63 CB         -1.0664  -17.1920  -49.1398 C.3       2 UNK        -0.1800 
     64 N           0.9147  -16.1620  -48.1552 N.am      2 UNK        -0.5000 
     65 C           1.5453  -16.4739  -47.0179 C.2       1 UNK         0.5000 
     66 O           0.9718  -16.7451  -45.9614 O.2       1 UNK        -0.5000 
     67 C           0.3786  -25.0666  -47.9529 C.2       11 UNK         0.5000 
     68 O          -0.1374  -24.7718  -49.0322 O.2       11 UNK        -0.5000 
     69 N          -0.3281  -25.3558  -46.8504 N.am      12 UNK        -0.5000 
     70 CA         -1.7833  -25.2410  -46.7053 C.3       12 UNK         0.1400 
     71 CB         -2.1991  -25.7200  -45.3066 C.3       12 UNK        -0.1800 
     72 C          -2.6123  -25.9711  -47.7773 C.2       12 UNK         0.5000 
     73 O          -3.6735  -25.4716  -48.1464 O.2       12 UNK        -0.5000 
     74 N          -2.1104  -27.1089  -48.2745 N.am      13 UNK        -0.5000 
     75 CA         -2.7377  -27.8924  -49.3403 C.3       13 UNK         0.1400 
     76 CB         -2.0879  -29.2837  -49.3871 C.3       13 UNK        -0.1800 
     77 C          -2.6630  -27.2171  -50.7248 C.2       13 UNK         0.5000 
     78 O          -3.5690  -27.4086  -51.5362 O.2       13 UNK        -0.5000 
     79 N          -1.5964  -26.4446  -50.9715 N.am      14 UNK        -0.5000 
     80 CA         -1.3812  -25.6998  -52.2133 C.3       14 UNK         0.1400 
     81 CB          0.1282  -25.5739  -52.4775 C.3       14 UNK        -0.1800 
     82 C          -2.0312  -24.3100  -52.1415 C.2       14 UNK         0.5000 
     83 O          -2.6631  -23.8743  -53.1043 O.2       14 UNK        -0.5000 
     84 N          -1.8758  -23.6494  -50.9871 N.am      15 UNK        -0.5000 
     85 CA         -2.3855  -22.3080  -50.7146 C.3       15 UNK         0.1400 
     86 CB         -1.5943  -21.7242  -49.5334 C.3       15 UNK        -0.1800 
     87 C          -3.9000  -22.2723  -50.4286 C.2       15 UNK         0.5000 
     88 O          -4.4758  -21.1821  -50.4076 O.2       15 UNK        -0.5000 
     89 N          -4.4991  -23.4450  -50.1701 N.am      16 UNK        -0.5000 
     90 CA         -5.8789  -23.6822  -49.7286 C.3       16 UNK         0.1400 
     91 CB         -6.8878  -23.3145  -50.8328 C.3       16 UNK        -0.1800 
     92 C          -6.1589  -22.9666  -48.3947 C.2       16 UNK         0.5000 
     93 O          -7.0809  -22.1578  -48.3010 O.2       16 UNK        -0.5000 
     94 N          -5.2801  -23.2113  -47.4120 N.am      17 UNK        -0.5000 
     95 CA         -5.2107  -22.5413  -46.1048 C.3       17 UNK         0.1400 
     96 CB         -6.4024  -22.9586  -45.2198 C.3       17 UNK        -0.1800 
     97 C          -5.0567  -21.0053  -46.2230 C.2       17 UNK         0.5000 
     98 O          -5.5847  -20.2619  -45.3958 O.2       17 UNK        -0.5000 
     99 N          -4.3488  -20.5765  -47.2793 N.am      18 UNK        -0.5000 
    100 CA        -4.1164  -19.1993  -47.7262 C.3       18 UNK         0.1400 
    101 CB        -3.4004  -18.3627  -46.6456 C.3       18 UNK        -0.1800 
    102 C         -5.3547  -18.4923  -48.3194 C.2       18 UNK         0.5000 
    103 O         -5.2901  -17.2861  -48.5579 O.2       18 UNK        -0.5000 
    104 N         -6.4429  -19.2292  -48.5928 N.am      19 UNK        -0.5000 
    105 CA        -7.6422  -18.6872  -49.2363 C.3       19 UNK         0.1400 
    106 CB        -8.8556  -19.5747  -48.9208 C.3       19 UNK        -0.1800 
    107 C         -7.4734  -18.5306  -50.7587 C.2       19 UNK         0.5000 
    108 O         -8.0099  -17.5775  -51.3253 O.2       19 UNK        -0.5000 
    109 N         -6.7401  -19.4569  -51.3932 N.am      20 UNK        -0.5000 
    110 CA        -6.4532  -19.4305  -52.8305 C.3       20 UNK         0.1400 
    111 CB        -6.4577  -20.8623  -53.3883 C.3       20 UNK        -0.1800 
    112 C         -5.1050  -18.7596  -53.1304 C.2       20 UNK         0.5000 
    113 O         -4.9329  -18.2163  -54.2225 O.2       20 UNK        -0.5000 
    114 N         -4.1636  -18.8414  -52.1762 N.am      21 UNK        -0.5000 
    115 CA        -2.8052  -18.2848  -52.2251 C.3       21 UNK         0.1400 
    116 CB        -2.8573  -16.7437  -52.1686 C.3       21 UNK        -0.1800 
    117 C         -1.9683  -18.8111  -53.4127 C.2       21 UNK         0.5000 
    118 O         -1.1135  -18.0940  -53.9342 O.2       21 UNK        -0.5000 
    119 N         -2.2530  -20.0554  -53.8195 N.am      22 UNK        -0.5000 
    120 CA        -1.6989  -20.7530  -54.9923 C.3       22 UNK         0.1400 
    121 C         -2.2034  -20.2041  -56.3634 C.2       22 UNK         0.5000 
    122 N         -3.2203  -19.3500  -56.4144 N.am      22 UNK        -0.7600 
    123 O         -1.6862  -20.5830  -57.4109 O.2       22 UNK        -0.5000 
    124 C124       -0.1525  -20.9231  -54.9578 C.3       23 UNK        -0.0398 
    125 S125        0.4574  -21.6862  -53.4150 S.3       23 UNK        -0.2404 
    126 C126        1.5992  -20.3981  -52.8267 C.3       23 UNK        -0.0205 
    127 H127        4.0205  -13.0615  -49.5125 H         1 UNK         0.0600 
    128 H128        5.3264  -13.3810  -48.3639 H         1 UNK         0.0600 
    129 H129        4.1858  -12.0715  -48.0567 H         1 UNK         0.0600 
    130 H130        4.5057  -15.5814  -48.3246 H         1 UNK         0.3000 
    131 H131        3.4308  -16.4039  -46.0301 H         1 UNK         0.0600 
    132 H132        3.3416  -17.9229  -48.6901 H         1 UNK         0.0800 
    133 H133        4.7218  -17.7918  -47.6452 H         1 UNK         0.0800 
    134 H134        1.1005  -19.2063  -47.9856 H         1 UNK         0.0800 
    135 H135        1.3157  -20.7764  -47.2704 H         1 UNK         0.0800 
    136 H136        1.0217  -19.4473  -50.3363 H         1 UNK         0.1150 
    137 H137        3.5335  -22.2474  -52.3817 H         1 UNK         0.1150 
    138 H138        3.8055  -21.8449  -48.1251 H         1 UNK         0.1150 
    139 H139        4.8709  -23.7789  -51.1921 H         1 UNK         0.0800 
    140 H140        5.7952  -22.8845  -50.0110 H         1 UNK         0.0800 
    141 H141        2.5043  -25.7729  -49.7622 H         1 UNK         0.0800 
    142 H142        2.1957  -24.0687  -49.7293 H         1 UNK         0.0800 
    143 H143        2.1914  -26.0272  -47.4036 H         1 UNK         0.0600 
    144 H144        2.0080  -23.0544  -47.0916 H         1 UNK         0.3000 
    145 H145        2.7859  -23.3440  -43.6376 H         1 UNK         0.0600 
    146 H146        4.4491  -21.5763  -44.1418 H         1 UNK         0.0600 
    147 H147        5.0491  -23.1455  -44.6549 H         1 UNK         0.0600 
    148 H148        4.4348  -22.0126  -45.8496 H         1 UNK         0.0600 
    149 H149        2.2332  -21.0200  -45.0733 H         1 UNK         0.3000 
    150 H150       -0.4344  -20.5744  -45.7682 H         1 UNK         0.0600 
    151 H151       -2.2515  -21.7353  -44.5885 H         1 UNK         0.0600 
    152 H152       -2.2767  -20.0289  -44.1761 H         1 UNK         0.0600 
    153 H153       -1.6373  -21.2032  -43.0292 H         1 UNK         0.0600 
    154 H154        0.4715  -18.8040  -44.7622 H         1 UNK         0.3000 
    155 H155        1.4757  -18.0021  -41.4586 H         1 UNK         0.0600 
    156 H156        3.0723  -18.0961  -44.0692 H         1 UNK         0.0600 
    157 H157        3.5388  -18.8937  -42.5723 H         1 UNK         0.0600 
    158 H158        3.4518  -17.1398  -42.6416 H         1 UNK         0.0600 
    159 H159        1.0577  -16.7322  -44.0970 H         1 UNK         0.3000 
    160 H160       -0.2132  -14.8782  -44.1171 H         1 UNK         0.0600 
    161 H161       -2.8792  -16.3730  -43.8370 H         1 UNK         0.0600 
    162 H162       -1.6356  -16.7411  -45.0233 H         1 UNK         0.0600 
    163 H163       -2.4655  -15.1944  -45.0847 H         1 UNK         0.0600 
    164 H164       -2.5871  -14.1871  -42.7461 H         1 UNK         0.3000 
    165 H165       -2.6169  -12.9222  -40.6569 H         1 UNK         0.0600 
    166 H166       -1.6255  -10.9615  -39.5012 H         1 UNK         0.0600 
    167 H167       -0.6174  -12.3814  -39.2689 H         1 UNK         0.0600 
    168 H168       -0.1300  -11.1387  -40.4165 H         1 UNK         0.0600 
    169 H169       -1.5491  -10.7512  -42.3913 H         1 UNK         0.3000 
    170 H170       -4.2205  -10.9778  -44.6907 H         1 UNK         0.0600 
    171 H171       -5.0049   -9.3016  -43.0135 H         1 UNK         0.0600 
    172 H172       -3.3639   -8.6951  -42.8272 H         1 UNK         0.0600 
    173 H173       -4.2065   -8.5167  -44.3666 H         1 UNK         0.0600 
    174 H174       -1.7901   -9.4516  -44.5829 H         1 UNK         0.3000 
    175 H175       -0.1430   -9.8940  -46.0994 H         1 UNK         0.0600 
    176 H176        0.8496  -12.4184  -44.6536 H         1 UNK         0.0600 
    177 H177        1.8660  -11.0946  -45.2187 H         1 UNK         0.0600 
    178 H178        0.7036  -10.8220  -43.9293 H         1 UNK         0.0600 
    179 H179        0.7438  -12.4475  -47.0879 H         1 UNK         0.3000 
    180 H180       -0.9859  -12.3520  -50.2044 H         1 UNK         0.0600 
    181 H181        1.9514  -11.7882  -49.5525 H         1 UNK         0.0600 
    182 H182        0.9346  -10.9095  -50.6823 H         1 UNK         0.0600 
    183 H183        1.3847  -12.5725  -51.0287 H         1 UNK         0.0600 
    184 H184        0.9559  -13.9422  -48.6113 H         1 UNK         0.3000 
    185 H185       -1.0189  -16.0590  -47.3189 H         1 UNK         0.0600 
    186 H186       -2.1413  -17.1059  -49.3003 H         1 UNK         0.0600 
    187 H187       -0.5834  -17.2315  -50.1162 H         1 UNK         0.0600 
    188 H188       -0.8955  -18.1450  -48.6409 H         1 UNK         0.0600 
    189 H189        1.4667  -15.9668  -48.9784 H         1 UNK         0.3000 
    190 H190        0.1831  -25.5469  -45.9999 H         1 UNK         0.3000 
    191 H191       -2.0241  -24.1790  -46.7828 H         1 UNK         0.0600 
    192 H192       -1.9383  -26.7669  -45.1469 H         1 UNK         0.0600 
    193 H193       -3.2764  -25.6238  -45.1629 H         1 UNK         0.0600 
    194 H194       -1.7184  -25.1329  -44.5249 H         1 UNK         0.0600 
    195 H195       -1.2319  -27.4479  -47.9113 H         1 UNK         0.3000 
    196 H196       -3.7939  -28.0195  -49.0930 H         1 UNK         0.0600 
    197 H197       -2.5503  -29.9052  -50.1552 H         1 UNK         0.0600 
    198 H198       -2.2029  -29.8051  -48.4367 H         1 UNK         0.0600 
    199 H199       -1.0221  -29.2233  -49.6113 H         1 UNK         0.0600 
    200 H200       -0.9352  -26.2726  -50.2243 H         1 UNK         0.3000 
    201 H201       -1.8265  -26.2421  -53.0502 H         1 UNK         0.0600 
    202 H202        0.5980  -26.5542  -52.5571 H         1 UNK         0.0600 
    203 H203        0.6358  -25.0218  -51.6857 H         1 UNK         0.0600 
    204 H204        0.3158  -25.0454  -53.4131 H         1 UNK         0.0600 
    205 H205       -1.3019  -24.0722  -50.2608 H         1 UNK         0.3000 
    206 H206       -2.1967  -21.6856  -51.5894 H         1 UNK         0.0600 
    207 H207       -0.5209  -21.8035  -49.7064 H         1 UNK         0.0600 
    208 H208       -1.8158  -20.6672  -49.3944 H         1 UNK         0.0600 
    209 H209       -1.8162  -22.2426  -48.5998 H         1 UNK         0.0600 
    210 H210       -3.9089  -24.2658  -50.1654 H         1 UNK         0.3000 
    211 H211       -5.9686  -24.7530  -49.5403 H         1 UNK         0.0600 
    212 H212       -6.9480  -22.2381  -50.9797 H         1 UNK         0.0600 
    213 H213       -7.8888  -23.6588  -50.5711 H         1 UNK         0.0600 
    214 H214       -6.6214  -23.7737  -51.7846 H         1 UNK         0.0600 
    215 H215       -4.5832  -23.9300  -47.5928 H         1 UNK         0.3000 
    216 H216       -4.3007  -22.9018  -45.6234 H         1 UNK         0.0600 
    217 H217       -6.2913  -22.5734  -44.2056 H         1 UNK         0.0600 
    218 H218       -6.4774  -24.0435  -45.1469 H         1 UNK         0.0600 
    219 H219       -7.3482  -22.5823  -45.6110 H         1 UNK         0.0600 
    220 H220       -4.0220  -21.2858  -47.9175 H         1 UNK         0.3000 
    221 H221       -3.4268  -19.2780  -48.5655 H         1 UNK         0.0600 
    222 H222       -4.0147  -18.2258  -45.7562 H         1 UNK         0.0600 
    223 H223       -3.1547  -17.3677  -47.0164 H         1 UNK         0.0600 
    224 H224       -2.4648  -18.8316  -46.3426 H         1 UNK         0.0600 
    225 H225       -6.4492  -20.2220  -48.3830 H         1 UNK         0.3000 
    226 H226       -7.8428  -17.6984  -48.8180 H         1 UNK         0.0600 
    227 H227       -8.9560  -19.7450  -47.8487 H         1 UNK         0.0600 
    228 H228       -9.7775  -19.1047  -49.2649 H         1 UNK         0.0600 
    229 H229       -8.7862  -20.5457  -49.4118 H         1 UNK         0.0600 
    230 H230       -6.2935  -20.1873  -50.8511 H         1 UNK         0.3000 
    231 H231       -7.2273  -18.8679  -53.3567 H         1 UNK         0.0600 
    232 H232       -7.4199  -21.3466  -53.2222 H         1 UNK         0.0600 
    233 H233       -5.6831  -21.4797  -52.9327 H         1 UNK         0.0600 
    234 H234       -6.2799  -20.8608  -54.4646 H         1 UNK         0.0600 
    235 H235       -4.3884  -19.3841  -51.3501 H         1 UNK         0.3000 
    236 H236       -2.3015  -18.6390  -51.3256 H         1 UNK         0.0600 
    237 H237       -3.3019  -16.3212  -53.0701 H         1 UNK         0.0600 
    238 H238       -3.4423  -16.3996  -51.3153 H         1 UNK         0.0600 
    239 H239       -1.8587  -16.3173  -52.0680 H         1 UNK         0.0600 
    240 H240       -2.9917  -20.5476  -53.3414 H         1 UNK         0.3000 
    241 H241       -2.1215  -21.7568  -54.9383 H         1 UNK         0.0600 
    242 H242       -3.5356  -19.0183  -57.3120 H         1 UNK         0.3800 
    243 H243       -3.6747  -19.0108  -55.5734 H         1 UNK         0.3800 
    244 H244        0.3399  -19.9635  -55.1198 H         1 UNK         0.0800 
    245 H245        0.1728  -21.5639  -55.7787 H         1 UNK         0.0800 
    246 H246        1.0629  -19.4529  -52.7313 H         1 UNK         0.0800 
    247 H247        2.3821  -20.2388  -53.5695 H         1 UNK         0.0800 
@<TRIPOS>BOND
     1    1    2 1    
     2    1  127 1    
     3    1  128 1    
     4    1  129 1    
     5    2    3 2    
     6    2    4 am   BACKBONE|DICT|INTERRES
     7    4    5 1    
     8    4  130 1    
     9    5    6 1    
    10    5   65 1    
    11    5  131 1    
    12    6    7 1    
    13    6  132 1    
    14    6  133 1    
    15    7    8 1    
    16    8    9 1    
    17    8  134 1    
    18    8  135 1    
    19    9   10 ar   
    20    9   14 ar   
    21   10   11 ar   
    22   10  136 1    
    23   11   12 ar   
    24   11  126 1    
    25   12   13 ar   
    26   12  137 1    
    27   13   14 ar   
    28   13   15 1    
    29   14  138 1    
    30   15   16 1    
    31   15  139 1    
    32   15  140 1    
    33   16   17 1    
    34   17   18 1    
    35   17  141 1    
    36   17  142 1    
    37   18   19 1    
    38   18   67 1    
    39   18  143 1    
    40   19   20 am   BACKBONE|DICT|INTERRES
    41   19  144 1    
    42   20   21 2    
    43   20   22 1    
    44   22   23 1    
    45   22   24 1    
    46   22  145 1    
    47   23  146 1    
    48   23  147 1    
    49   23  148 1    
    50   24   25 am   BACKBONE|DICT|INTERRES
    51   24  149 1    
    52   25   26 2    
    53   25   27 1    
    54   27   28 1    
    55   27   29 1    
    56   27  150 1    
    57   28  151 1    
    58   28  152 1    
    59   28  153 1    
    60   29   30 am   BACKBONE|DICT|INTERRES
    61   29  154 1    
    62   30   31 2    
    63   30   32 1    
    64   32   33 1    
    65   32   34 1    
    66   32  155 1    
    67   33  156 1    
    68   33  157 1    
    69   33  158 1    
    70   34   35 am   BACKBONE|DICT|INTERRES
    71   34  159 1    
    72   35   36 2    
    73   35   37 1    
    74   37   38 1    
    75   37   39 1    
    76   37  160 1    
    77   38  161 1    
    78   38  162 1    
    79   38  163 1    
    80   39   40 am   BACKBONE|DICT|INTERRES
    81   39  164 1    
    82   40   41 2    
    83   40   42 1    
    84   42   43 1    
    85   42   44 1    
    86   42  165 1    
    87   43  166 1    
    88   43  167 1    
    89   43  168 1    
    90   44   45 am   BACKBONE|DICT|INTERRES
    91   44  169 1    
    92   45   46 2    
    93   45   47 1    
    94   47   48 1    
    95   47   49 1    
    96   47  170 1    
    97   48  171 1    
    98   48  172 1    
    99   48  173 1    
   100   49   50 am   BACKBONE|DICT|INTERRES
   101   49  174 1    
   102   50   51 2    
   103   50   52 1    
   104   52   53 1    
   105   52   54 1    
   106   52  175 1    
   107   53  176 1    
   108   53  177 1    
   109   53  178 1    
   110   54   55 am   BACKBONE|DICT|INTERRES
   111   54  179 1    
   112   55   56 2    
   113   55   57 1    
   114   57   58 1    
   115   57   59 1    
   116   57  180 1    
   117   58  181 1    
   118   58  182 1    
   119   58  183 1    
   120   59   60 am   BACKBONE|DICT|INTERRES
   121   59  184 1    
   122   60   61 2    
   123   60   62 1    
   124   62   63 1    
   125   62   64 1    
   126   62  185 1    
   127   63  186 1    
   128   63  187 1    
   129   63  188 1    
   130   64   65 am   BACKBONE|DICT|INTERRES
   131   64  189 1    
   132   65   66 2    
   133   67   68 2    
   134   67   69 am   BACKBONE|DICT|INTERRES
   135   69   70 1    
   136   69  190 1    
   137   70   71 1    
   138   70   72 1    
   139   70  191 1    
   140   71  192 1    
   141   71  193 1    
   142   71  194 1    
   143   72   73 2    
   144   72   74 am   BACKBONE|DICT|INTERRES
   145   74   75 1    
   146   74  195 1    
   147   75   76 1    
   148   75   77 1    
   149   75  196 1    
   150   76  197 1    
   151   76  198 1    
   152   76  199 1    
   153   77   78 2    
   154   77   79 am   BACKBONE|DICT|INTERRES
   155   79   80 1    
   156   79  200 1    
   157   80   81 1    
   158   80   82 1    
   159   80  201 1    
   160   81  202 1    
   161   81  203 1    
   162   81  204 1    
   163   82   83 2    
   164   82   84 am   BACKBONE|DICT|INTERRES
   165   84   85 1    
   166   84  205 1    
   167   85   86 1    
   168   85   87 1    
   169   85  206 1    
   170   86  207 1    
   171   86  208 1    
   172   86  209 1    
   173   87   88 2    
   174   87   89 am   BACKBONE|DICT|INTERRES
   175   89   90 1    
   176   89  210 1    
   177   90   91 1    
   178   90   92 1    
   179   90  211 1    
   180   91  212 1    
   181   91  213 1    
   182   91  214 1    
   183   92   93 2    
   184   92   94 am   BACKBONE|DICT|INTERRES
   185   94   95 1    
   186   94  215 1    
   187   95   96 1    
   188   95   97 1    
   189   95  216 1    
   190   96  217 1    
   191   96  218 1    
   192   96  219 1    
   193   97   98 2    
   194   97   99 am   BACKBONE|DICT|INTERRES
   195   99  100 1    
   196   99  220 1    
   197  100  101 1    
   198  100  102 1    
   199  100  221 1    
   200  101  222 1    
   201  101  223 1    
   202  101  224 1    
   203  102  103 2    
   204  102  104 am   BACKBONE|DICT|INTERRES
   205  104  105 1    
   206  104  225 1    
   207  105  106 1    
   208  105  107 1    
   209  105  226 1    
   210  106  227 1    
   211  106  228 1    
   212  106  229 1    
   213  107  108 2    
   214  107  109 am   BACKBONE|DICT|INTERRES
   215  109  110 1    
   216  109  230 1    
   217  110  111 1    
   218  110  112 1    
   219  110  231 1    
   220  111  232 1    
   221  111  233 1    
   222  111  234 1    
   223  112  113 2    
   224  112  114 am   BACKBONE|DICT|INTERRES
   225  114  115 1    
   226  114  235 1    
   227  115  116 1    
   228  115  117 1    
   229  115  236 1    
   230  116  237 1    
   231  116  238 1    
   232  116  239 1    
   233  117  118 2    
   234  117  119 am   BACKBONE|DICT|INTERRES
   235  119  120 1    
   236  119  240 1    
   237  120  121 1    
   238  120  124 1    
   239  120  241 1    
   240  121  122 am   BACKBONE|DICT|INTERRES
   241  121  123 2    
   242  122  242 1    
   243  122  243 1    
   244  124  125 1    
   245  124  244 1    
   246  124  245 1    
   247  125  126 1    
   248  126  246 1    
   249  126  247 1    
@<TRIPOS>SUBSTRUCTURE
     1 UNK         1 GROUP             0       ****    0 ROOT    
