@<TRIPOS>MOLECULE
3R540
247   249    1
SMALL
USER_CHARGES


@<TRIPOS>ATOM
      1 CA          1.2365  -12.2893  -48.2590 C.3       0 UNK        -0.1800 
      2 C           2.6863  -12.2377  -48.7130 C.2       0 UNK         0.5000 
      3 O           3.4047  -11.2979  -48.3741 O.2       0 UNK        -0.5000 
      4 N           3.1153  -13.2487  -49.4790 N.am      1 UNK        -0.5000 
      5 CA          4.4858  -13.3778  -50.0004 C.3       1 UNK         0.1400 
      6 C6          4.5621  -14.2374  -51.2893 C.3       23 UNK        -0.0398 
      7 S7          3.3072  -13.7773  -52.5382 S.3       23 UNK        -0.2404 
      8 C8          2.3200  -15.3043  -52.6851 C.3       23 UNK        -0.0205 
      9 C9          1.7337  -15.7654  -51.3569 C.ar      23 UNK        -0.0193 
     10 C10         0.6334  -15.1085  -50.8020 C.ar      23 UNK        -0.1150 
     11 C11         0.0764  -15.5542  -49.6000 C.ar      23 UNK        -0.0193 
     12 C12         0.6509  -16.6404  -48.9345 C.ar      23 UNK        -0.1150 
     13 C13         1.7531  -17.3136  -49.4785 C.ar      23 UNK        -0.0193 
     14 C14         2.2806  -16.8672  -50.6930 C.ar      23 UNK        -0.1150 
     15 C15         2.4225  -18.5137  -48.8035 C.3       23 UNK        -0.0205 
     16 S16         1.5450  -19.2240  -47.3695 S.3       23 UNK        -0.2404 
     17 C17         0.1169  -20.0522  -48.1543 C.3       23 UNK        -0.0398 
     18 CA         -0.0979  -21.4806  -47.5978 C.3       11 UNK         0.1400 
     19 N          -0.3478  -21.4879  -46.1528 N.am      11 UNK        -0.5000 
     20 C          -0.3990  -22.5845  -45.3850 C.2       10 UNK         0.5000 
     21 O          -0.1918  -23.7224  -45.8026 O.2       10 UNK        -0.5000 
     22 CA         -0.8030  -22.3825  -43.9158 C.3       10 UNK         0.1400 
     23 CB          0.4091  -21.9890  -43.0577 C.3       10 UNK        -0.1800 
     24 N          -1.8569  -21.3774  -43.7823 N.am      10 UNK        -0.5000 
     25 C          -3.1346  -21.5734  -44.1342 C.2       9 UNK         0.5000 
     26 O          -3.5641  -22.6411  -44.5711 O.2       9 UNK        -0.5000 
     27 CA         -4.0831  -20.3656  -44.0112 C.3       9 UNK         0.1400 
     28 CB         -4.6058  -20.2321  -42.5733 C.3       9 UNK        -0.1800 
     29 N          -3.4610  -19.1044  -44.4183 N.am      9 UNK        -0.5000 
     30 C          -3.0827  -18.8198  -45.6722 C.2       8 UNK         0.5000 
     31 O          -3.2355  -19.5870  -46.6217 O.2       8 UNK        -0.5000 
     32 CA         -2.3723  -17.4715  -45.8991 C.3       8 UNK         0.1400 
     33 CB         -3.4151  -16.3566  -46.0657 C.3       8 UNK        -0.1800 
     34 N          -1.4156  -17.0849  -44.8543 N.am      8 UNK        -0.5000 
     35 C          -0.4576  -17.8630  -44.3221 C.2       7 UNK         0.5000 
     36 O          -0.3018  -19.0448  -44.6204 O.2       7 UNK        -0.5000 
     37 CA          0.4915  -17.2464  -43.2759 C.3       7 UNK         0.1400 
     38 CB          1.8864  -17.0633  -43.8887 C.3       7 UNK        -0.1800 
     39 N           0.0380  -15.9636  -42.7407 N.am      7 UNK        -0.5000 
     40 C          -1.0417  -15.7856  -41.9645 C.2       6 UNK         0.5000 
     41 O          -1.7406  -16.7117  -41.5519 O.2       6 UNK        -0.5000 
     42 CA         -1.4296  -14.3323  -41.6156 C.3       6 UNK         0.1400 
     43 CB         -1.0427  -14.0083  -40.1644 C.3       6 UNK        -0.1800 
     44 N          -0.8313  -13.3244  -42.4960 N.am      6 UNK        -0.5000 
     45 C          -1.0210  -13.2224  -43.8201 C.2       5 UNK         0.5000 
     46 O          -1.7819  -13.9512  -44.4555 O.2       5 UNK        -0.5000 
     47 CA         -0.1744  -12.1719  -44.5661 C.3       5 UNK         0.1400 
     48 CB         -1.0063  -10.9165  -44.8651 C.3       5 UNK        -0.1800 
     49 N           1.0457  -11.7846  -43.8474 N.am      5 UNK        -0.5000 
     50 C           2.0855  -12.5987  -43.6232 C.2       4 UNK         0.5000 
     51 O           2.1364  -13.7682  -44.0126 O.2       4 UNK        -0.5000 
     52 CA          3.2275  -12.0309  -42.7720 C.3       4 UNK         0.1400 
     53 CB          2.9088  -12.1686  -41.2722 C.3       4 UNK        -0.1800 
     54 N           4.4483  -12.7604  -43.0891 N.am      4 UNK        -0.5000 
     55 C           5.6950  -12.2965  -42.9474 C.2       3 UNK         0.5000 
     56 O           5.9624  -11.2030  -42.4468 O.2       3 UNK        -0.5000 
     57 CA          6.8433  -13.1935  -43.4584 C.3       3 UNK         0.1400 
     58 CB          7.4701  -13.9754  -42.2935 C.3       3 UNK        -0.1800 
     59 N           6.4483  -14.1407  -44.5073 N.am      3 UNK        -0.5000 
     60 C           6.0092  -13.7994  -45.7268 C.2       2 UNK         0.5000 
     61 O           5.9080  -12.6285  -46.1003 O.2       2 UNK        -0.5000 
     62 CA          5.6090  -14.9644  -46.6610 C.3       2 UNK         0.1400 
     63 CB          4.6922  -15.9752  -45.9483 C.3       2 UNK        -0.1800 
     64 N           4.9061  -14.4915  -47.8509 N.am      2 UNK        -0.5000 
     65 C           5.4599  -13.9231  -48.9305 C.2       1 UNK         0.5000 
     66 O           6.6757  -13.8283  -49.1068 O.2       1 UNK        -0.5000 
     67 C          -1.2122  -22.2237  -48.3656 C.2       11 UNK         0.5000 
     68 O          -0.9069  -23.0042  -49.2670 O.2       11 UNK        -0.5000 
     69 N          -2.4748  -22.0178  -47.9608 N.am      12 UNK        -0.5000 
     70 CA         -3.6347  -22.7522  -48.4638 C.3       12 UNK         0.1400 
     71 CB         -4.9315  -22.0985  -47.9668 C.3       12 UNK        -0.1800 
     72 C          -3.5946  -24.2435  -48.0990 C.2       12 UNK         0.5000 
     73 O          -3.8395  -25.0766  -48.9704 O.2       12 UNK        -0.5000 
     74 N          -3.2546  -24.5639  -46.8418 N.am      13 UNK        -0.5000 
     75 CA         -3.0989  -25.9367  -46.3520 C.3       13 UNK         0.1400 
     76 CB         -2.8619  -25.9303  -44.8352 C.3       13 UNK        -0.1800 
     77 C          -1.9833  -26.7093  -47.0804 C.2       13 UNK         0.5000 
     78 O          -2.1975  -27.8583  -47.4674 O.2       13 UNK        -0.5000 
     79 N          -0.8415  -26.0473  -47.3162 N.am      14 UNK        -0.5000 
     80 CA          0.2860  -26.5621  -48.0998 C.3       14 UNK         0.1400 
     81 CB          1.4677  -25.5873  -47.9890 C.3       14 UNK        -0.1800 
     82 C          -0.0654  -26.8204  -49.5790 C.2       14 UNK         0.5000 
     83 O           0.5059  -27.7229  -50.1911 O.2       14 UNK        -0.5000 
     84 N          -1.0292  -26.0569  -50.1090 N.am      15 UNK        -0.5000 
     85 CA         -1.6179  -26.2192  -51.4385 C.3       15 UNK         0.1400 
     86 CB         -2.0499  -24.8355  -51.9535 C.3       15 UNK        -0.1800 
     87 C          -2.7850  -27.2344  -51.4644 C.2       15 UNK         0.5000 
     88 O          -3.5020  -27.2944  -52.4630 O.2       15 UNK        -0.5000 
     89 N          -2.9554  -28.0144  -50.3849 N.am      16 UNK        -0.5000 
     90 CA         -3.9734  -29.0492  -50.1739 C.3       16 UNK         0.1400 
     91 CB         -3.8677  -30.1733  -51.2270 C.3       16 UNK        -0.1800 
     92 C          -5.3945  -28.4690  -50.0287 C.2       16 UNK         0.5000 
     93 O          -6.3495  -29.0162  -50.5827 O.2       16 UNK        -0.5000 
     94 N          -5.4958  -27.3737  -49.2623 N.am      17 UNK        -0.5000 
     95 CA         -6.7047  -26.6091  -48.9392 C.3       17 UNK         0.1400 
     96 CB         -7.7239  -27.4679  -48.1610 C.3       17 UNK        -0.1800 
     97 C          -7.3017  -25.9081  -50.1749 C.2       17 UNK         0.5000 
     98 O          -8.5206  -25.9012  -50.3594 O.2       17 UNK        -0.5000 
     99 N          -6.4228  -25.3335  -51.0065 N.am      18 UNK        -0.5000 
    100 CA        -6.7919  -24.5751  -52.1999 C.3       18 UNK         0.1400 
    101 CB        -5.5469  -24.3575  -53.0718 C.3       18 UNK        -0.1800 
    102 C         -7.4241  -23.2216  -51.8344 C.2       18 UNK         0.5000 
    103 O         -6.9088  -22.5210  -50.9598 O.2       18 UNK        -0.5000 
    104 N         -8.5044  -22.8625  -52.5362 N.am      19 UNK        -0.5000 
    105 CA        -9.1276  -21.5435  -52.4581 C.3       19 UNK         0.1400 
    106 CB       -10.5591  -21.6270  -53.0097 C.3       19 UNK        -0.1800 
    107 C         -8.2971  -20.5207  -53.2521 C.2       19 UNK         0.5000 
    108 O         -7.8339  -20.8409  -54.3498 O.2       19 UNK        -0.5000 
    109 N         -8.1378  -19.3154  -52.6866 N.am      20 UNK        -0.5000 
    110 CA        -7.3840  -18.1802  -53.2376 C.3       20 UNK         0.1400 
    111 CB        -8.0951  -17.6064  -54.4814 C.3       20 UNK        -0.1800 
    112 C         -5.8933  -18.5005  -53.4910 C.2       20 UNK         0.5000 
    113 O         -5.3136  -18.0277  -54.4712 O.2       20 UNK        -0.5000 
    114 N         -5.2934  -19.2910  -52.5871 N.am      21 UNK        -0.5000 
    115 CA        -3.9122  -19.7849  -52.6586 C.3       21 UNK         0.1400 
    116 CB        -3.6626  -20.7337  -51.4787 C.3       21 UNK        -0.1800 
    117 C         -2.8322  -18.6849  -52.7004 C.2       21 UNK         0.5000 
    118 O         -1.7387  -18.9323  -53.2098 O.2       21 UNK        -0.5000 
    119 N         -3.1663  -17.4918  -52.1938 N.am      22 UNK        -0.5000 
    120 CA        -2.3519  -16.2730  -52.3052 C.3       22 UNK         0.1400 
    121 C         -2.2722  -15.6760  -53.7432 C.2       22 UNK         0.5000 
    122 N         -3.0974  -16.0946  -54.6968 N.am      22 UNK        -0.7600 
    123 O         -1.4379  -14.8127  -53.9997 O.2       22 UNK        -0.5000 
    124 C124       -2.8082  -15.1865  -51.2973 C.3       23 UNK        -0.0398 
    125 S125       -2.6831  -15.7229  -49.5563 S.3       23 UNK        -0.2404 
    126 C126       -1.1589  -14.8809  -49.0230 C.3       23 UNK        -0.0205 
    127 H127        0.5698  -12.1446  -49.1089 H         1 UNK         0.0600 
    128 H128        1.0329  -11.5049  -47.5298 H         1 UNK         0.0600 
    129 H129        1.0146  -13.2504  -47.7955 H         1 UNK         0.0600 
    130 H130        2.4708  -13.9749  -49.7624 H         1 UNK         0.3000 
    131 H131        4.8379  -12.3777  -50.2627 H         1 UNK         0.0600 
    132 H132        5.5435  -14.1189  -51.7516 H         1 UNK         0.0800 
    133 H133        4.4802  -15.2985  -51.0557 H         1 UNK         0.0800 
    134 H134        1.5081  -15.1313  -53.3934 H         1 UNK         0.0800 
    135 H135        2.9406  -16.0876  -53.1231 H         1 UNK         0.0800 
    136 H136        0.1994  -14.2654  -51.3215 H         1 UNK         0.1150 
    137 H137        0.2187  -16.9599  -47.9985 H         1 UNK         0.1150 
    138 H138        3.1281  -17.3821  -51.1238 H         1 UNK         0.1150 
    139 H139        2.5846  -19.3029  -49.5392 H         1 UNK         0.0800 
    140 H140        3.4122  -18.2020  -48.4682 H         1 UNK         0.0800 
    141 H141        0.2741  -20.0865  -49.2339 H         1 UNK         0.0800 
    142 H142       -0.7702  -19.4380  -47.9956 H         1 UNK         0.0800 
    143 H143        0.8245  -22.0414  -47.7639 H         1 UNK         0.0600 
    144 H144       -0.4642  -20.5813  -45.7065 H         1 UNK         0.3000 
    145 H145       -1.1856  -23.3326  -43.5379 H         1 UNK         0.0600 
    146 H146        0.1287  -21.8672  -42.0115 H         1 UNK         0.0600 
    147 H147        1.1792  -22.7602  -43.1004 H         1 UNK         0.0600 
    148 H148        0.8637  -21.0572  -43.3942 H         1 UNK         0.0600 
    149 H149       -1.5562  -20.4419  -43.5426 H         1 UNK         0.3000 
    150 H150       -4.9365  -20.5480  -44.6678 H         1 UNK         0.0600 
    151 H151       -5.0874  -21.1544  -42.2459 H         1 UNK         0.0600 
    152 H152       -5.3453  -19.4349  -42.4952 H         1 UNK         0.0600 
    153 H153       -3.8010  -20.0136  -41.8701 H         1 UNK         0.0600 
    154 H154       -3.2767  -18.4262  -43.6929 H         1 UNK         0.3000 
    155 H155       -1.8129  -17.5535  -46.8318 H         1 UNK         0.0600 
    156 H156       -2.9499  -15.4236  -46.3816 H         1 UNK         0.0600 
    157 H157       -3.9513  -16.1641  -45.1358 H         1 UNK         0.0600 
    158 H158       -4.1534  -16.6189  -46.8249 H         1 UNK         0.0600 
    159 H159       -1.4639  -16.1189  -44.5529 H         1 UNK         0.3000 
    160 H160        0.5690  -17.9517  -42.4462 H         1 UNK         0.0600 
    161 H161        1.8460  -16.4102  -44.7605 H         1 UNK         0.0600 
    162 H162        2.3002  -18.0180  -44.2165 H         1 UNK         0.0600 
    163 H163        2.5863  -16.6315  -43.1731 H         1 UNK         0.0600 
    164 H164        0.5580  -15.1493  -43.0425 H         1 UNK         0.3000 
    165 H165       -2.5146  -14.2549  -41.7102 H         1 UNK         0.0600 
    166 H166        0.0377  -14.0462  -40.0187 H         1 UNK         0.0600 
    167 H167       -1.3866  -13.0148  -39.8759 H         1 UNK         0.0600 
    168 H168       -1.4928  -14.7197  -39.4706 H         1 UNK         0.0600 
    169 H169       -0.1875  -12.6796  -42.0633 H         1 UNK         0.3000 
    170 H170        0.1218  -12.6203  -45.5158 H         1 UNK         0.0600 
    171 H171       -1.9081  -11.1697  -45.4243 H         1 UNK         0.0600 
    172 H172       -1.3180  -10.4124  -43.9495 H         1 UNK         0.0600 
    173 H173       -0.4424  -10.2040  -45.4674 H         1 UNK         0.0600 
    174 H174        1.0743  -10.8404  -43.4894 H         1 UNK         0.3000 
    175 H175        3.3582  -10.9772  -43.0276 H         1 UNK         0.0600 
    176 H176        3.7115  -11.7608  -40.6577 H         1 UNK         0.0600 
    177 H177        1.9978  -11.6287  -41.0115 H         1 UNK         0.0600 
    178 H178        2.7671  -13.2119  -40.9868 H         1 UNK         0.0600 
    179 H179        4.2940  -13.6511  -43.5439 H         1 UNK         0.3000 
    180 H180        7.6072  -12.5345  -43.8764 H         1 UNK         0.0600 
    181 H181        6.7588  -14.6724  -41.8484 H         1 UNK         0.0600 
    182 H182        7.8050  -13.3004  -41.5047 H         1 UNK         0.0600 
    183 H183        8.3399  -14.5448  -42.6217 H         1 UNK         0.0600 
    184 H184        6.5072  -15.1198  -44.2680 H         1 UNK         0.3000 
    185 H185        6.5224  -15.4757  -46.9713 H         1 UNK         0.0600 
    186 H186        4.3485  -16.7517  -46.6319 H         1 UNK         0.0600 
    187 H187        5.2039  -16.4801  -45.1287 H         1 UNK         0.0600 
    188 H188        3.8124  -15.4814  -45.5362 H         1 UNK         0.0600 
    189 H189        3.8990  -14.4823  -47.7947 H         1 UNK         0.3000 
    190 H190       -2.6594  -21.3056  -47.2597 H         1 UNK         0.3000 
    191 H191       -3.6227  -22.6936  -49.5519 H         1 UNK         0.0600 
    192 H192       -5.0110  -21.0693  -48.3169 H         1 UNK         0.0600 
    193 H193       -5.8058  -22.6349  -48.3380 H         1 UNK         0.0600 
    194 H194       -4.9882  -22.0871  -46.8783 H         1 UNK         0.0600 
    195 H195       -3.1155  -23.8212  -46.1645 H         1 UNK         0.3000 
    196 H196       -4.0386  -26.4599  -46.5409 H         1 UNK         0.0600 
    197 H197       -2.7872  -26.9473  -44.4483 H         1 UNK         0.0600 
    198 H198       -3.6828  -25.4424  -44.3096 H         1 UNK         0.0600 
    199 H199       -1.9403  -25.4120  -44.5724 H         1 UNK         0.0600 
    200 H200       -0.7247  -25.1197  -46.9135 H         1 UNK         0.3000 
    201 H201        0.5871  -27.5160  -47.6621 H         1 UNK         0.0600 
    202 H202        1.7775  -25.4599  -46.9516 H         1 UNK         0.0600 
    203 H203        1.2146  -24.6036  -48.3855 H         1 UNK         0.0600 
    204 H204        2.3320  -25.9540  -48.5441 H         1 UNK         0.0600 
    205 H205       -1.4299  -25.3252  -49.5358 H         1 UNK         0.3000 
    206 H206       -0.8551  -26.6012  -52.1196 H         1 UNK         0.0600 
    207 H207       -1.2084  -24.1427  -51.9706 H         1 UNK         0.0600 
    208 H208       -2.4392  -24.8941  -52.9704 H         1 UNK         0.0600 
    209 H209       -2.8250  -24.3970  -51.3262 H         1 UNK         0.0600 
    210 H210       -2.3419  -27.8612  -49.5935 H         1 UNK         0.3000 
    211 H211       -3.7399  -29.4980  -49.2074 H         1 UNK         0.0600 
    212 H212       -4.1622  -29.8334  -52.2200 H         1 UNK         0.0600 
    213 H213       -4.5156  -31.0110  -50.9665 H         1 UNK         0.0600 
    214 H214       -2.8503  -30.5592  -51.2912 H         1 UNK         0.0600 
    215 H215       -4.6331  -26.9386  -48.9543 H         1 UNK         0.3000 
    216 H216       -6.3866  -25.8093  -48.2692 H         1 UNK         0.0600 
    217 H217       -7.2620  -27.9368  -47.2922 H         1 UNK         0.0600 
    218 H218       -8.1524  -28.2559  -48.7806 H         1 UNK         0.0600 
    219 H219       -8.5501  -26.8559  -47.7974 H         1 UNK         0.0600 
    220 H220       -5.4428  -25.3553  -50.7594 H         1 UNK         0.3000 
    221 H221       -7.5115  -25.1655  -52.7709 H         1 UNK         0.0600 
    222 H222       -4.7886  -23.7745  -52.5498 H         1 UNK         0.0600 
    223 H223       -5.1008  -25.3062  -53.3689 H         1 UNK         0.0600 
    224 H224       -5.8004  -23.8180  -53.9853 H         1 UNK         0.0600 
    225 H225       -8.8426  -23.4725  -53.2661 H         1 UNK         0.3000 
    226 H226       -9.1786  -21.2359  -51.4112 H         1 UNK         0.0600 
    227 H227      -11.1593  -22.3389  -52.4426 H         1 UNK         0.0600 
    228 H228      -11.0578  -20.6590  -52.9471 H         1 UNK         0.0600 
    229 H229      -10.5717  -21.9353  -54.0561 H         1 UNK         0.0600 
    230 H230       -8.5579  -19.1546  -51.7813 H         1 UNK         0.3000 
    231 H231       -7.3957  -17.4049  -52.4702 H         1 UNK         0.0600 
    232 H232       -7.6195  -16.6825  -54.8129 H         1 UNK         0.0600 
    233 H233       -9.1380  -17.3732  -54.2670 H         1 UNK         0.0600 
    234 H234       -8.0727  -18.3036  -55.3195 H         1 UNK         0.0600 
    235 H235       -5.8502  -19.6398  -51.8202 H         1 UNK         0.3000 
    236 H236       -3.8218  -20.3596  -53.5826 H         1 UNK         0.0600 
    237 H237       -2.6598  -21.1615  -51.5208 H         1 UNK         0.0600 
    238 H238       -3.7608  -20.2203  -50.5212 H         1 UNK         0.0600 
    239 H239       -4.3689  -21.5632  -51.4909 H         1 UNK         0.0600 
    240 H240       -4.0789  -17.3845  -51.7785 H         1 UNK         0.3000 
    241 H241       -1.3300  -16.5562  -52.0508 H         1 UNK         0.0600 
    242 H242       -3.0235  -15.6953  -55.6188 H         1 UNK         0.3800 
    243 H243       -3.8008  -16.8054  -54.5185 H         1 UNK         0.3800 
    244 H244       -2.2319  -14.2691  -51.4251 H         1 UNK         0.0800 
    245 H245       -3.8458  -14.9099  -51.4907 H         1 UNK         0.0800 
    246 H246       -1.1989  -13.8293  -49.3088 H         1 UNK         0.0800 
    247 H247       -1.1089  -14.8964  -47.9333 H         1 UNK         0.0800 
@<TRIPOS>BOND
     1    1    2 1    
     2    1  127 1    
     3    1  128 1    
     4    1  129 1    
     5    2    3 2    
     6    2    4 am   BACKBONE|DICT|INTERRES
     7    4    5 1    
     8    4  130 1    
     9    5    6 1    
    10    5   65 1    
    11    5  131 1    
    12    6    7 1    
    13    6  132 1    
    14    6  133 1    
    15    7    8 1    
    16    8    9 1    
    17    8  134 1    
    18    8  135 1    
    19    9   10 ar   
    20    9   14 ar   
    21   10   11 ar   
    22   10  136 1    
    23   11   12 ar   
    24   11  126 1    
    25   12   13 ar   
    26   12  137 1    
    27   13   14 ar   
    28   13   15 1    
    29   14  138 1    
    30   15   16 1    
    31   15  139 1    
    32   15  140 1    
    33   16   17 1    
    34   17   18 1    
    35   17  141 1    
    36   17  142 1    
    37   18   19 1    
    38   18   67 1    
    39   18  143 1    
    40   19   20 am   BACKBONE|DICT|INTERRES
    41   19  144 1    
    42   20   21 2    
    43   20   22 1    
    44   22   23 1    
    45   22   24 1    
    46   22  145 1    
    47   23  146 1    
    48   23  147 1    
    49   23  148 1    
    50   24   25 am   BACKBONE|DICT|INTERRES
    51   24  149 1    
    52   25   26 2    
    53   25   27 1    
    54   27   28 1    
    55   27   29 1    
    56   27  150 1    
    57   28  151 1    
    58   28  152 1    
    59   28  153 1    
    60   29   30 am   BACKBONE|DICT|INTERRES
    61   29  154 1    
    62   30   31 2    
    63   30   32 1    
    64   32   33 1    
    65   32   34 1    
    66   32  155 1    
    67   33  156 1    
    68   33  157 1    
    69   33  158 1    
    70   34   35 am   BACKBONE|DICT|INTERRES
    71   34  159 1    
    72   35   36 2    
    73   35   37 1    
    74   37   38 1    
    75   37   39 1    
    76   37  160 1    
    77   38  161 1    
    78   38  162 1    
    79   38  163 1    
    80   39   40 am   BACKBONE|DICT|INTERRES
    81   39  164 1    
    82   40   41 2    
    83   40   42 1    
    84   42   43 1    
    85   42   44 1    
    86   42  165 1    
    87   43  166 1    
    88   43  167 1    
    89   43  168 1    
    90   44   45 am   BACKBONE|DICT|INTERRES
    91   44  169 1    
    92   45   46 2    
    93   45   47 1    
    94   47   48 1    
    95   47   49 1    
    96   47  170 1    
    97   48  171 1    
    98   48  172 1    
    99   48  173 1    
   100   49   50 am   BACKBONE|DICT|INTERRES
   101   49  174 1    
   102   50   51 2    
   103   50   52 1    
   104   52   53 1    
   105   52   54 1    
   106   52  175 1    
   107   53  176 1    
   108   53  177 1    
   109   53  178 1    
   110   54   55 am   BACKBONE|DICT|INTERRES
   111   54  179 1    
   112   55   56 2    
   113   55   57 1    
   114   57   58 1    
   115   57   59 1    
   116   57  180 1    
   117   58  181 1    
   118   58  182 1    
   119   58  183 1    
   120   59   60 am   BACKBONE|DICT|INTERRES
   121   59  184 1    
   122   60   61 2    
   123   60   62 1    
   124   62   63 1    
   125   62   64 1    
   126   62  185 1    
   127   63  186 1    
   128   63  187 1    
   129   63  188 1    
   130   64   65 am   BACKBONE|DICT|INTERRES
   131   64  189 1    
   132   65   66 2    
   133   67   68 2    
   134   67   69 am   BACKBONE|DICT|INTERRES
   135   69   70 1    
   136   69  190 1    
   137   70   71 1    
   138   70   72 1    
   139   70  191 1    
   140   71  192 1    
   141   71  193 1    
   142   71  194 1    
   143   72   73 2    
   144   72   74 am   BACKBONE|DICT|INTERRES
   145   74   75 1    
   146   74  195 1    
   147   75   76 1    
   148   75   77 1    
   149   75  196 1    
   150   76  197 1    
   151   76  198 1    
   152   76  199 1    
   153   77   78 2    
   154   77   79 am   BACKBONE|DICT|INTERRES
   155   79   80 1    
   156   79  200 1    
   157   80   81 1    
   158   80   82 1    
   159   80  201 1    
   160   81  202 1    
   161   81  203 1    
   162   81  204 1    
   163   82   83 2    
   164   82   84 am   BACKBONE|DICT|INTERRES
   165   84   85 1    
   166   84  205 1    
   167   85   86 1    
   168   85   87 1    
   169   85  206 1    
   170   86  207 1    
   171   86  208 1    
   172   86  209 1    
   173   87   88 2    
   174   87   89 am   BACKBONE|DICT|INTERRES
   175   89   90 1    
   176   89  210 1    
   177   90   91 1    
   178   90   92 1    
   179   90  211 1    
   180   91  212 1    
   181   91  213 1    
   182   91  214 1    
   183   92   93 2    
   184   92   94 am   BACKBONE|DICT|INTERRES
   185   94   95 1    
   186   94  215 1    
   187   95   96 1    
   188   95   97 1    
   189   95  216 1    
   190   96  217 1    
   191   96  218 1    
   192   96  219 1    
   193   97   98 2    
   194   97   99 am   BACKBONE|DICT|INTERRES
   195   99  100 1    
   196   99  220 1    
   197  100  101 1    
   198  100  102 1    
   199  100  221 1    
   200  101  222 1    
   201  101  223 1    
   202  101  224 1    
   203  102  103 2    
   204  102  104 am   BACKBONE|DICT|INTERRES
   205  104  105 1    
   206  104  225 1    
   207  105  106 1    
   208  105  107 1    
   209  105  226 1    
   210  106  227 1    
   211  106  228 1    
   212  106  229 1    
   213  107  108 2    
   214  107  109 am   BACKBONE|DICT|INTERRES
   215  109  110 1    
   216  109  230 1    
   217  110  111 1    
   218  110  112 1    
   219  110  231 1    
   220  111  232 1    
   221  111  233 1    
   222  111  234 1    
   223  112  113 2    
   224  112  114 am   BACKBONE|DICT|INTERRES
   225  114  115 1    
   226  114  235 1    
   227  115  116 1    
   228  115  117 1    
   229  115  236 1    
   230  116  237 1    
   231  116  238 1    
   232  116  239 1    
   233  117  118 2    
   234  117  119 am   BACKBONE|DICT|INTERRES
   235  119  120 1    
   236  119  240 1    
   237  120  121 1    
   238  120  124 1    
   239  120  241 1    
   240  121  122 am   BACKBONE|DICT|INTERRES
   241  121  123 2    
   242  122  242 1    
   243  122  243 1    
   244  124  125 1    
   245  124  244 1    
   246  124  245 1    
   247  125  126 1    
   248  126  246 1    
   249  126  247 1    
@<TRIPOS>SUBSTRUCTURE
     1 UNK         1 GROUP             0       ****    0 ROOT    
