@<TRIPOS>MOLECULE
3R540
247   249    1
SMALL
USER_CHARGES


@<TRIPOS>ATOM
      1 CA         -2.2540  -16.8410  -42.1586 C.3       0 UNK        -0.1800 
      2 C          -1.9997  -15.3646  -41.8847 C.2       0 UNK         0.5000 
      3 O          -1.5648  -15.0083  -40.7893 O.2       0 UNK        -0.5000 
      4 N          -2.2790  -14.5077  -42.8736 N.am      1 UNK        -0.5000 
      5 CA         -1.9980  -13.0690  -42.8553 C.3       1 UNK         0.1400 
      6 C6         -2.8966  -12.3119  -43.8708 C.3       23 UNK        -0.0398 
      7 S7         -2.5771  -12.7367  -45.6185 S.3       23 UNK        -0.2404 
      8 C8         -3.9595  -13.8660  -46.0162 C.3       23 UNK        -0.0205 
      9 C9         -3.7017  -14.8372  -47.1733 C.ar      23 UNK        -0.0193 
     10 C10        -2.5780  -14.7514  -48.0047 C.ar      23 UNK        -0.1150 
     11 C11        -2.3504  -15.6841  -49.0178 C.ar      23 UNK        -0.0193 
     12 C12        -3.2828  -16.7091  -49.2179 C.ar      23 UNK        -0.1150 
     13 C13        -4.4238  -16.8077  -48.4116 C.ar      23 UNK        -0.0193 
     14 C14        -4.6207  -15.8663  -47.3963 C.ar      23 UNK        -0.1150 
     15 C15        -5.4606  -17.9168  -48.6058 C.3       23 UNK        -0.0205 
     16 S16        -4.7766  -19.5369  -49.0989 S.3       23 UNK        -0.2404 
     17 C17        -3.4677  -19.7680  -47.8542 C.3       23 UNK        -0.0398 
     18 CA         -3.3710  -21.2171  -47.3249 C.3       11 UNK         0.1400 
     19 N          -1.9871  -21.5704  -46.9935 N.am      11 UNK        -0.5000 
     20 C          -1.5470  -22.7771  -46.6133 C.2       10 UNK         0.5000 
     21 O          -2.2646  -23.7713  -46.5299 O.2       10 UNK        -0.5000 
     22 CA         -0.0673  -22.8770  -46.2007 C.3       10 UNK         0.1400 
     23 CB          0.8487  -23.0379  -47.4233 C.3       10 UNK        -0.1800 
     24 N           0.3533  -21.7210  -45.4087 N.am      10 UNK        -0.5000 
     25 C          -0.1087  -21.4513  -44.1787 C.2       9 UNK         0.5000 
     26 O          -0.8721  -22.1920  -43.5590 O.2       9 UNK        -0.5000 
     27 CA          0.3071  -20.1044  -43.5614 C.3       9 UNK         0.1400 
     28 CB          1.6994  -20.2075  -42.9224 C.3       9 UNK        -0.1800 
     29 N           0.2927  -19.0117  -44.5350 N.am      9 UNK        -0.5000 
     30 C          -0.8036  -18.5745  -45.1708 C.2       8 UNK         0.5000 
     31 O          -1.9334  -19.0107  -44.9558 O.2       8 UNK        -0.5000 
     32 CA         -0.6024  -17.5078  -46.2609 C.3       8 UNK         0.1400 
     33 CB         -0.5194  -16.1114  -45.6353 C.3       8 UNK        -0.1800 
     34 N           0.5835  -17.7507  -47.0824 N.am      8 UNK        -0.5000 
     35 C           0.7666  -18.8238  -47.8637 C.2       7 UNK         0.5000 
     36 O          -0.0515  -19.7337  -47.9765 O.2       7 UNK        -0.5000 
     37 CA          2.1048  -18.9243  -48.6098 C.3       7 UNK         0.1400 
     38 CB          2.0626  -18.1359  -49.9274 C.3       7 UNK        -0.1800 
     39 N           3.2092  -18.4495  -47.7793 N.am      7 UNK        -0.5000 
     40 C           3.7701  -19.1646  -46.7949 C.2       6 UNK         0.5000 
     41 O           3.4577  -20.3265  -46.5312 O.2       6 UNK        -0.5000 
     42 CA          4.8373  -18.4496  -45.9428 C.3       6 UNK         0.1400 
     43 CB          6.2127  -18.5251  -46.6223 C.3       6 UNK        -0.1800 
     44 N           4.5087  -17.0483  -45.6681 N.am      6 UNK        -0.5000 
     45 C           3.4704  -16.6535  -44.9186 C.2       5 UNK         0.5000 
     46 O           2.6986  -17.4343  -44.3638 O.2       5 UNK        -0.5000 
     47 CA          3.2248  -15.1380  -44.7915 C.3       5 UNK         0.1400 
     48 CB          4.0345  -14.5600  -43.6215 C.3       5 UNK        -0.1800 
     49 N           3.4802  -14.3396  -45.9951 N.am      5 UNK        -0.5000 
     50 C           3.0281  -14.5896  -47.2329 C.2       4 UNK         0.5000 
     51 O           2.4539  -15.6280  -47.5618 O.2       4 UNK        -0.5000 
     52 CA          3.2293  -13.4532  -48.2550 C.3       4 UNK         0.1400 
     53 CB          2.7123  -13.8089  -49.6654 C.3       4 UNK        -0.1800 
     54 N           2.6396  -12.1968  -47.7751 N.am      4 UNK        -0.5000 
     55 C           1.3534  -11.9866  -47.4548 C.2       3 UNK         0.5000 
     56 O           0.4560  -12.8153  -47.6047 O.2       3 UNK        -0.5000 
     57 CA          1.0201  -10.6192  -46.8329 C.3       3 UNK         0.1400 
     58 CB         -0.2251   -9.9902  -47.4804 C.3       3 UNK        -0.1800 
     59 N           0.7980  -10.7464  -45.3936 N.am      3 UNK        -0.5000 
     60 C           1.7552  -10.9810  -44.4852 C.2       2 UNK         0.5000 
     61 O           2.9493  -11.0920  -44.7678 O.2       2 UNK        -0.5000 
     62 CA          1.3152  -11.0911  -43.0103 C.3       2 UNK         0.1400 
     63 CB          1.5018   -9.7438  -42.2957 C.3       2 UNK        -0.1800 
     64 N          -0.0727  -11.5331  -42.8379 N.am      2 UNK        -0.5000 
     65 C          -0.4885  -12.7868  -43.0626 C.2       1 UNK         0.5000 
     66 O           0.2704  -13.6872  -43.4265 O.2       1 UNK        -0.5000 
     67 C          -4.3416  -21.4664  -46.1548 C.2       11 UNK         0.5000 
     68 O          -5.4118  -22.0395  -46.3596 O.2       11 UNK        -0.5000 
     69 N          -3.9263  -21.0699  -44.9446 N.am      12 UNK        -0.5000 
     70 CA         -4.6419  -21.3214  -43.6957 C.3       12 UNK         0.1400 
     71 CB         -3.9900  -20.5066  -42.5679 C.3       12 UNK        -0.1800 
     72 C          -4.7018  -22.8178  -43.3314 C.2       12 UNK         0.5000 
     73 O          -5.7164  -23.2668  -42.7964 O.2       12 UNK        -0.5000 
     74 N          -3.6267  -23.5607  -43.6302 N.am      13 UNK        -0.5000 
     75 CA         -3.5300  -25.0016  -43.4041 C.3       13 UNK         0.1400 
     76 CB         -2.0576  -25.4391  -43.4507 C.3       13 UNK        -0.1800 
     77 C          -4.3818  -25.8214  -44.3915 C.2       13 UNK         0.5000 
     78 O          -5.0928  -26.7286  -43.9557 O.2       13 UNK        -0.5000 
     79 N          -4.3023  -25.4998  -45.6901 N.am      14 UNK        -0.5000 
     80 CA         -5.0152  -26.2034  -46.7554 C.3       14 UNK         0.1400 
     81 CB         -4.3139  -27.5358  -47.0876 C.3       14 UNK        -0.1800 
     82 C          -5.1802  -25.3376  -48.0133 C.2       14 UNK         0.5000 
     83 O          -6.3121  -25.0928  -48.4326 O.2       14 UNK        -0.5000 
     84 N          -4.0599  -24.9186  -48.6125 N.am      15 UNK        -0.5000 
     85 CA         -3.9971  -24.1948  -49.8796 C.3       15 UNK         0.1400 
     86 CB         -4.3003  -25.1465  -51.0524 C.3       15 UNK        -0.1800 
     87 C          -2.6007  -23.5787  -50.0260 C.2       15 UNK         0.5000 
     88 O          -1.6181  -24.1964  -49.6080 O.2       15 UNK        -0.5000 
     89 N          -2.5320  -22.3791  -50.6160 N.am      16 UNK        -0.5000 
     90 CA         -1.3020  -21.6244  -50.8550 C.3       16 UNK         0.1400 
     91 CB         -1.6348  -20.2431  -51.4374 C.3       16 UNK        -0.1800 
     92 C          -0.3804  -22.4040  -51.8011 C.2       16 UNK         0.5000 
     93 O          -0.8064  -22.7481  -52.9071 O.2       16 UNK        -0.5000 
     94 N           0.8203  -22.7403  -51.3073 N.am      17 UNK        -0.5000 
     95 CA          1.8193  -23.6182  -51.9337 C.3       17 UNK         0.1400 
     96 CB          2.4190  -22.9385  -53.1823 C.3       17 UNK        -0.1800 
     97 C           1.2915  -25.0420  -52.2350 C.2       17 UNK         0.5000 
     98 O           1.8254  -25.7159  -53.1170 O.2       17 UNK        -0.5000 
     99 N           0.2288  -25.4537  -51.5223 N.am      18 UNK        -0.5000 
    100 CA        -0.5975  -26.6450  -51.7439 C.3       18 UNK         0.1400 
    101 CB         0.2156  -27.9341  -51.5041 C.3       18 UNK        -0.1800 
    102 C         -1.3332  -26.6469  -53.1058 C.2       18 UNK         0.5000 
    103 O         -1.7720  -27.7094  -53.5496 O.2       18 UNK        -0.5000 
    104 N         -1.4537  -25.4759  -53.7494 N.am      19 UNK        -0.5000 
    105 CA        -1.9849  -25.3200  -55.0997 C.3       19 UNK         0.1400 
    106 CB        -1.0221  -24.4510  -55.9278 C.3       19 UNK        -0.1800 
    107 C         -3.3995  -24.7245  -55.0856 C.2       19 UNK         0.5000 
    108 O         -4.3240  -25.3701  -55.5819 O.2       19 UNK        -0.5000 
    109 N         -3.5506  -23.5074  -54.5447 N.am      20 UNK        -0.5000 
    110 CA        -4.7963  -22.7394  -54.6032 C.3       20 UNK         0.1400 
    111 CB        -5.0063  -22.1729  -56.0281 C.3       20 UNK        -0.1800 
    112 C         -4.8180  -21.6731  -53.4942 C.2       20 UNK         0.5000 
    113 O         -4.7107  -22.0235  -52.3199 O.2       20 UNK        -0.5000 
    114 N         -4.9632  -20.3991  -53.8669 N.am      21 UNK        -0.5000 
    115 CA        -4.9655  -19.2415  -52.9808 C.3       21 UNK         0.1400 
    116 CB        -6.4088  -18.9002  -52.5755 C.3       21 UNK        -0.1800 
    117 C         -4.2952  -18.0714  -53.7125 C.2       21 UNK         0.5000 
    118 O         -4.2368  -18.0725  -54.9460 O.2       21 UNK        -0.5000 
    119 N         -3.7932  -17.1045  -52.9403 N.am      22 UNK        -0.5000 
    120 CA        -3.1061  -15.9058  -53.4426 C.3       22 UNK         0.1400 
    121 C         -4.0697  -14.9148  -54.1531 C.2       22 UNK         0.5000 
    122 N         -3.6055  -14.2205  -55.1832 N.am      22 UNK        -0.7600 
    123 O         -5.2192  -14.7384  -53.7549 O.2       22 UNK        -0.5000 
    124 C124       -2.3205  -15.1860  -52.3187 C.3       23 UNK        -0.0398 
    125 S125       -1.1076  -16.2826  -51.5044 S.3       23 UNK        -0.2404 
    126 C126       -1.0580  -15.5686  -49.8269 C.3       23 UNK        -0.0205 
    127 H127       -1.3098  -17.3849  -42.1861 H         1 UNK         0.0600 
    128 H128       -2.7628  -16.9950  -43.1106 H         1 UNK         0.0600 
    129 H129       -2.8738  -17.2708  -41.3718 H         1 UNK         0.0600 
    130 H130       -2.5873  -14.8669  -43.7637 H         1 UNK         0.3000 
    131 H131       -2.2516  -12.6971  -41.8603 H         1 UNK         0.0600 
    132 H132       -3.9475  -12.4939  -43.6415 H         1 UNK         0.0800 
    133 H133       -2.7651  -11.2347  -43.7604 H         1 UNK         0.0800 
    134 H134       -4.8411  -13.2668  -46.2475 H         1 UNK         0.0800 
    135 H135       -4.2056  -14.4498  -45.1286 H         1 UNK         0.0800 
    136 H136       -1.8470  -13.9712  -47.8576 H         1 UNK         0.1150 
    137 H137       -3.1107  -17.4457  -49.9870 H         1 UNK         0.1150 
    138 H138       -5.4952  -15.9396  -46.7647 H         1 UNK         0.1150 
    139 H139       -6.0296  -18.0624  -47.6862 H         1 UNK         0.0800 
    140 H140       -6.1766  -17.5950  -49.3625 H         1 UNK         0.0800 
    141 H141       -3.5875  -19.0555  -47.0368 H         1 UNK         0.0800 
    142 H142       -2.5422  -19.4847  -48.3526 H         1 UNK         0.0800 
    143 H143       -3.6766  -21.8920  -48.1209 H         1 UNK         0.0600 
    144 H144       -1.3016  -20.8263  -47.0909 H         1 UNK         0.3000 
    145 H145        0.0447  -23.7684  -45.5803 H         1 UNK         0.0600 
    146 H146        1.8908  -23.1467  -47.1223 H         1 UNK         0.0600 
    147 H147        0.5804  -23.9279  -47.9939 H         1 UNK         0.0600 
    148 H148        0.7844  -22.1850  -48.0965 H         1 UNK         0.0600 
    149 H149        0.9702  -21.0569  -45.8556 H         1 UNK         0.3000 
    150 H150       -0.4128  -19.8632  -42.7765 H         1 UNK         0.0600 
    151 H151        1.7402  -21.0239  -42.2002 H         1 UNK         0.0600 
    152 H152        1.9562  -19.2909  -42.3911 H         1 UNK         0.0600 
    153 H153        2.4729  -20.3879  -43.6702 H         1 UNK         0.0600 
    154 H154        1.1807  -18.5487  -44.7110 H         1 UNK         0.3000 
    155 H155       -1.4689  -17.5339  -46.9235 H         1 UNK         0.0600 
    156 H156        0.1948  -16.0798  -44.8139 H         1 UNK         0.0600 
    157 H157       -1.4882  -15.8168  -45.2352 H         1 UNK         0.0600 
    158 H158       -0.2270  -15.3554  -46.3646 H         1 UNK         0.0600 
    159 H159        1.2952  -17.0242  -47.0883 H         1 UNK         0.3000 
    160 H160        2.2721  -19.9754  -48.8544 H         1 UNK         0.0600 
    161 H161        1.9241  -17.0678  -49.7598 H         1 UNK         0.0600 
    162 H162        1.2411  -18.4757  -50.5592 H         1 UNK         0.0600 
    163 H163        2.9845  -18.2676  -50.4937 H         1 UNK         0.0600 
    164 H164        3.4424  -17.4677  -47.8632 H         1 UNK         0.3000 
    165 H165        4.9010  -18.9740  -44.9869 H         1 UNK         0.0600 
    166 H166        6.9895  -18.0964  -45.9889 H         1 UNK         0.0600 
    167 H167        6.4925  -19.5602  -46.8225 H         1 UNK         0.0600 
    168 H168        6.2224  -17.9923  -47.5740 H         1 UNK         0.0600 
    169 H169        5.0894  -16.3444  -46.0993 H         1 UNK         0.3000 
    170 H170        2.1695  -15.0083  -44.5585 H         1 UNK         0.0600 
    171 H171        3.8439  -15.1151  -42.7019 H         1 UNK         0.0600 
    172 H172        5.1069  -14.6005  -43.8155 H         1 UNK         0.0600 
    173 H173        3.7654  -13.5210  -43.4312 H         1 UNK         0.0600 
    174 H174        3.9098  -13.4400  -45.8313 H         1 UNK         0.3000 
    175 H175        4.3049  -13.2881  -48.3311 H         1 UNK         0.0600 
    176 H176        1.6453  -14.0307  -49.6660 H         1 UNK         0.0600 
    177 H177        2.8849  -12.9925  -50.3664 H         1 UNK         0.0600 
    178 H178        3.2252  -14.6882  -50.0567 H         1 UNK         0.0600 
    179 H179        3.2995  -11.4576  -47.5762 H         1 UNK         0.3000 
    180 H180        1.8594   -9.9400  -46.9968 H         1 UNK         0.0600 
    181 H181       -0.0901   -9.8818  -48.5572 H         1 UNK         0.0600 
    182 H182       -0.4215   -8.9975  -47.0753 H         1 UNK         0.0600 
    183 H183       -1.1163  -10.5987  -47.3222 H         1 UNK         0.0600 
    184 H184       -0.1618  -10.7235  -45.0841 H         1 UNK         0.3000 
    185 H185        1.9700  -11.8207  -42.5289 H         1 UNK         0.0600 
    186 H186        2.5327   -9.3969  -42.3791 H         1 UNK         0.0600 
    187 H187        0.8603   -8.9703  -42.7199 H         1 UNK         0.0600 
    188 H188        1.2737   -9.8255  -41.2328 H         1 UNK         0.0600 
    189 H189       -0.7328  -10.8349  -42.5273 H         1 UNK         0.3000 
    190 H190       -3.0610  -20.5399  -44.8769 H         1 UNK         0.3000 
    191 H191       -5.6678  -20.9688  -43.8206 H         1 UNK         0.0600 
    192 H192       -2.9518  -20.7983  -42.4079 H         1 UNK         0.0600 
    193 H193       -4.5209  -20.6484  -41.6258 H         1 UNK         0.0600 
    194 H194       -4.0052  -19.4402  -42.7936 H         1 UNK         0.0600 
    195 H195       -2.8146  -23.1054  -44.0288 H         1 UNK         0.3000 
    196 H196       -3.9008  -25.2084  -42.3978 H         1 UNK         0.0600 
    197 H197       -1.9613  -26.5031  -43.2313 H         1 UNK         0.0600 
    198 H198       -1.4626  -24.8996  -42.7135 H         1 UNK         0.0600 
    199 H199       -1.6120  -25.2668  -44.4299 H         1 UNK         0.0600 
    200 H200       -3.6813  -24.7441  -45.9774 H         1 UNK         0.3000 
    201 H201       -6.0233  -26.4313  -46.4018 H         1 UNK         0.0600 
    202 H202       -4.3448  -28.2228  -46.2420 H         1 UNK         0.0600 
    203 H203       -3.2675  -27.3850  -47.3554 H         1 UNK         0.0600 
    204 H204       -4.8001  -28.0360  -47.9262 H         1 UNK         0.0600 
    205 H205       -3.1580  -25.0803  -48.1776 H         1 UNK         0.3000 
    206 H206       -4.7335  -23.3883  -49.8654 H         1 UNK         0.0600 
    207 H207       -3.6824  -26.0430  -51.0139 H         1 UNK         0.0600 
    208 H208       -5.3434  -25.4619  -51.0463 H         1 UNK         0.0600 
    209 H209       -4.1182  -24.6628  -52.0114 H         1 UNK         0.0600 
    210 H210       -3.3775  -22.0158  -51.0507 H         1 UNK         0.3000 
    211 H211       -0.8058  -21.4816  -49.8938 H         1 UNK         0.0600 
    212 H212       -2.1331  -20.3229  -52.4037 H         1 UNK         0.0600 
    213 H213       -0.7287  -19.6551  -51.5863 H         1 UNK         0.0600 
    214 H214       -2.2784  -19.6741  -50.7692 H         1 UNK         0.0600 
    215 H215        1.0519  -22.4325  -50.3742 H         1 UNK         0.3000 
    216 H216        2.6211  -23.7414  -51.2044 H         1 UNK         0.0600 
    217 H217        3.2658  -23.5059  -53.5699 H         1 UNK         0.0600 
    218 H218        2.7812  -21.9369  -52.9507 H         1 UNK         0.0600 
    219 H219        1.6877  -22.8533  -53.9869 H         1 UNK         0.0600 
    220 H220       -0.1405  -24.8249  -50.8154 H         1 UNK         0.3000 
    221 H221       -1.3761  -26.6110  -50.9819 H         1 UNK         0.0600 
    222 H222        0.9648  -28.0929  -52.2799 H         1 UNK         0.0600 
    223 H223        0.7280  -27.9038  -50.5426 H         1 UNK         0.0600 
    224 H224       -0.4338  -28.8102  -51.4956 H         1 UNK         0.0600 
    225 H225       -1.0997  -24.6302  -53.3128 H         1 UNK         0.3000 
    226 H226       -2.0445  -26.2910  -55.5959 H         1 UNK         0.0600 
    227 H227       -0.0388  -24.9167  -55.9975 H         1 UNK         0.0600 
    228 H228       -1.3927  -24.3193  -56.9451 H         1 UNK         0.0600 
    229 H229       -0.8871  -23.4587  -55.4970 H         1 UNK         0.0600 
    230 H230       -2.7610  -23.0555  -54.0979 H         1 UNK         0.3000 
    231 H231       -5.6283  -23.4103  -54.3794 H         1 UNK         0.0600 
    232 H232       -5.0765  -22.9718  -56.7662 H         1 UNK         0.0600 
    233 H233       -4.1854  -21.5206  -56.3291 H         1 UNK         0.0600 
    234 H234       -5.9346  -21.6044  -56.0983 H         1 UNK         0.0600 
    235 H235       -4.9785  -20.1647  -54.8516 H         1 UNK         0.3000 
    236 H236       -4.3842  -19.4597  -52.0842 H         1 UNK         0.0600 
    237 H237       -7.0301  -18.6844  -53.4454 H         1 UNK         0.0600 
    238 H238       -6.8678  -19.7247  -52.0296 H         1 UNK         0.0600 
    239 H239       -6.4367  -18.0258  -51.9244 H         1 UNK         0.0600 
    240 H240       -3.9088  -17.1560  -51.9404 H         1 UNK         0.3000 
    241 H241       -2.3797  -16.2441  -54.1847 H         1 UNK         0.0600 
    242 H242       -2.6646  -14.3429  -55.5252 H         1 UNK         0.3800 
    243 H243       -4.2155  -13.5632  -55.6447 H         1 UNK         0.3800 
    244 H244       -1.7764  -14.3293  -52.7201 H         1 UNK         0.0800 
    245 H245       -3.0116  -14.7864  -51.5747 H         1 UNK         0.0800 
    246 H246       -0.7693  -14.5198  -49.9134 H         1 UNK         0.0800 
    247 H247       -0.2619  -16.0562  -49.2645 H         1 UNK         0.0800 
@<TRIPOS>BOND
     1    1    2 1    
     2    1  127 1    
     3    1  128 1    
     4    1  129 1    
     5    2    3 2    
     6    2    4 am   BACKBONE|DICT|INTERRES
     7    4    5 1    
     8    4  130 1    
     9    5    6 1    
    10    5   65 1    
    11    5  131 1    
    12    6    7 1    
    13    6  132 1    
    14    6  133 1    
    15    7    8 1    
    16    8    9 1    
    17    8  134 1    
    18    8  135 1    
    19    9   10 ar   
    20    9   14 ar   
    21   10   11 ar   
    22   10  136 1    
    23   11   12 ar   
    24   11  126 1    
    25   12   13 ar   
    26   12  137 1    
    27   13   14 ar   
    28   13   15 1    
    29   14  138 1    
    30   15   16 1    
    31   15  139 1    
    32   15  140 1    
    33   16   17 1    
    34   17   18 1    
    35   17  141 1    
    36   17  142 1    
    37   18   19 1    
    38   18   67 1    
    39   18  143 1    
    40   19   20 am   BACKBONE|DICT|INTERRES
    41   19  144 1    
    42   20   21 2    
    43   20   22 1    
    44   22   23 1    
    45   22   24 1    
    46   22  145 1    
    47   23  146 1    
    48   23  147 1    
    49   23  148 1    
    50   24   25 am   BACKBONE|DICT|INTERRES
    51   24  149 1    
    52   25   26 2    
    53   25   27 1    
    54   27   28 1    
    55   27   29 1    
    56   27  150 1    
    57   28  151 1    
    58   28  152 1    
    59   28  153 1    
    60   29   30 am   BACKBONE|DICT|INTERRES
    61   29  154 1    
    62   30   31 2    
    63   30   32 1    
    64   32   33 1    
    65   32   34 1    
    66   32  155 1    
    67   33  156 1    
    68   33  157 1    
    69   33  158 1    
    70   34   35 am   BACKBONE|DICT|INTERRES
    71   34  159 1    
    72   35   36 2    
    73   35   37 1    
    74   37   38 1    
    75   37   39 1    
    76   37  160 1    
    77   38  161 1    
    78   38  162 1    
    79   38  163 1    
    80   39   40 am   BACKBONE|DICT|INTERRES
    81   39  164 1    
    82   40   41 2    
    83   40   42 1    
    84   42   43 1    
    85   42   44 1    
    86   42  165 1    
    87   43  166 1    
    88   43  167 1    
    89   43  168 1    
    90   44   45 am   BACKBONE|DICT|INTERRES
    91   44  169 1    
    92   45   46 2    
    93   45   47 1    
    94   47   48 1    
    95   47   49 1    
    96   47  170 1    
    97   48  171 1    
    98   48  172 1    
    99   48  173 1    
   100   49   50 am   BACKBONE|DICT|INTERRES
   101   49  174 1    
   102   50   51 2    
   103   50   52 1    
   104   52   53 1    
   105   52   54 1    
   106   52  175 1    
   107   53  176 1    
   108   53  177 1    
   109   53  178 1    
   110   54   55 am   BACKBONE|DICT|INTERRES
   111   54  179 1    
   112   55   56 2    
   113   55   57 1    
   114   57   58 1    
   115   57   59 1    
   116   57  180 1    
   117   58  181 1    
   118   58  182 1    
   119   58  183 1    
   120   59   60 am   BACKBONE|DICT|INTERRES
   121   59  184 1    
   122   60   61 2    
   123   60   62 1    
   124   62   63 1    
   125   62   64 1    
   126   62  185 1    
   127   63  186 1    
   128   63  187 1    
   129   63  188 1    
   130   64   65 am   BACKBONE|DICT|INTERRES
   131   64  189 1    
   132   65   66 2    
   133   67   68 2    
   134   67   69 am   BACKBONE|DICT|INTERRES
   135   69   70 1    
   136   69  190 1    
   137   70   71 1    
   138   70   72 1    
   139   70  191 1    
   140   71  192 1    
   141   71  193 1    
   142   71  194 1    
   143   72   73 2    
   144   72   74 am   BACKBONE|DICT|INTERRES
   145   74   75 1    
   146   74  195 1    
   147   75   76 1    
   148   75   77 1    
   149   75  196 1    
   150   76  197 1    
   151   76  198 1    
   152   76  199 1    
   153   77   78 2    
   154   77   79 am   BACKBONE|DICT|INTERRES
   155   79   80 1    
   156   79  200 1    
   157   80   81 1    
   158   80   82 1    
   159   80  201 1    
   160   81  202 1    
   161   81  203 1    
   162   81  204 1    
   163   82   83 2    
   164   82   84 am   BACKBONE|DICT|INTERRES
   165   84   85 1    
   166   84  205 1    
   167   85   86 1    
   168   85   87 1    
   169   85  206 1    
   170   86  207 1    
   171   86  208 1    
   172   86  209 1    
   173   87   88 2    
   174   87   89 am   BACKBONE|DICT|INTERRES
   175   89   90 1    
   176   89  210 1    
   177   90   91 1    
   178   90   92 1    
   179   90  211 1    
   180   91  212 1    
   181   91  213 1    
   182   91  214 1    
   183   92   93 2    
   184   92   94 am   BACKBONE|DICT|INTERRES
   185   94   95 1    
   186   94  215 1    
   187   95   96 1    
   188   95   97 1    
   189   95  216 1    
   190   96  217 1    
   191   96  218 1    
   192   96  219 1    
   193   97   98 2    
   194   97   99 am   BACKBONE|DICT|INTERRES
   195   99  100 1    
   196   99  220 1    
   197  100  101 1    
   198  100  102 1    
   199  100  221 1    
   200  101  222 1    
   201  101  223 1    
   202  101  224 1    
   203  102  103 2    
   204  102  104 am   BACKBONE|DICT|INTERRES
   205  104  105 1    
   206  104  225 1    
   207  105  106 1    
   208  105  107 1    
   209  105  226 1    
   210  106  227 1    
   211  106  228 1    
   212  106  229 1    
   213  107  108 2    
   214  107  109 am   BACKBONE|DICT|INTERRES
   215  109  110 1    
   216  109  230 1    
   217  110  111 1    
   218  110  112 1    
   219  110  231 1    
   220  111  232 1    
   221  111  233 1    
   222  111  234 1    
   223  112  113 2    
   224  112  114 am   BACKBONE|DICT|INTERRES
   225  114  115 1    
   226  114  235 1    
   227  115  116 1    
   228  115  117 1    
   229  115  236 1    
   230  116  237 1    
   231  116  238 1    
   232  116  239 1    
   233  117  118 2    
   234  117  119 am   BACKBONE|DICT|INTERRES
   235  119  120 1    
   236  119  240 1    
   237  120  121 1    
   238  120  124 1    
   239  120  241 1    
   240  121  122 am   BACKBONE|DICT|INTERRES
   241  121  123 2    
   242  122  242 1    
   243  122  243 1    
   244  124  125 1    
   245  124  244 1    
   246  124  245 1    
   247  125  126 1    
   248  126  246 1    
   249  126  247 1    
@<TRIPOS>SUBSTRUCTURE
     1 UNK         1 GROUP             0       ****    0 ROOT    
