@<TRIPOS>MOLECULE
3R540
247   249    1
SMALL
USER_CHARGES


@<TRIPOS>ATOM
      1 CA          7.0474  -17.1230  -46.9501 C.3       0 UNK        -0.1800 
      2 C           5.6622  -16.5287  -46.7402 C.2       0 UNK         0.5000 
      3 O           4.9756  -16.8995  -45.7889 O.2       0 UNK        -0.5000 
      4 N           5.2491  -15.6125  -47.6251 N.am      1 UNK        -0.5000 
      5 CA          3.9664  -14.9093  -47.5803 C.3       1 UNK         0.1400 
      6 C6          3.5988  -14.3396  -48.9757 C.3       23 UNK        -0.0398 
      7 S7          1.9619  -13.5301  -49.0958 S.3       23 UNK        -0.2404 
      8 C8          0.7880  -14.8733  -48.7336 C.3       23 UNK        -0.0205 
      9 C9          0.8624  -16.0239  -49.7261 C.ar      23 UNK        -0.0193 
     10 C10         0.1701  -15.9625  -50.9388 C.ar      23 UNK        -0.1150 
     11 C11         0.2136  -17.0258  -51.8476 C.ar      23 UNK        -0.0193 
     12 C12         0.9702  -18.1594  -51.5182 C.ar      23 UNK        -0.1150 
     13 C13         1.6556  -18.2455  -50.3043 C.ar      23 UNK        -0.0193 
     14 C14         1.5977  -17.1686  -49.4148 C.ar      23 UNK        -0.1150 
     15 C15         2.4739  -19.4998  -50.0011 C.3       23 UNK        -0.0205 
     16 S16         2.5862  -19.9226  -48.2308 S.3       23 UNK        -0.2404 
     17 C17         0.8606  -20.3758  -47.8341 C.3       23 UNK        -0.0398 
     18 CA          0.7388  -21.8340  -47.3364 C.3       11 UNK         0.1400 
     19 N           1.6699  -22.1246  -46.2391 N.am      11 UNK        -0.5000 
     20 C           1.9598  -23.3367  -45.7507 C.2       10 UNK         0.5000 
     21 O           1.4246  -24.3757  -46.1343 O.2       10 UNK        -0.5000 
     22 CA          2.9929  -23.3817  -44.6116 C.3       10 UNK         0.1400 
     23 CB          4.4089  -23.1157  -45.1452 C.3       10 UNK        -0.1800 
     24 N           2.6752  -22.4165  -43.5595 N.am      10 UNK        -0.5000 
     25 C           1.6349  -22.5382  -42.7237 C.2       9 UNK         0.5000 
     26 O           0.9015  -23.5267  -42.6888 O.2       9 UNK        -0.5000 
     27 CA          1.3473  -21.3530  -41.7807 C.3       9 UNK         0.1400 
     28 CB          2.0379  -21.5671  -40.4255 C.3       9 UNK        -0.1800 
     29 N           1.7163  -20.0309  -42.3009 N.am      9 UNK        -0.5000 
     30 C           1.2622  -19.4876  -43.4380 C.2       8 UNK         0.5000 
     31 O           0.5759  -20.0980  -44.2561 O.2       8 UNK        -0.5000 
     32 CA          1.5965  -18.0027  -43.6770 C.3       8 UNK         0.1400 
     33 CB          1.8344  -17.7031  -45.1646 C.3       8 UNK        -0.1800 
     34 N           0.4966  -17.1633  -43.2164 N.am      8 UNK        -0.5000 
     35 C           0.1303  -16.9821  -41.9412 C.2       7 UNK         0.5000 
     36 O           0.7812  -17.3813  -40.9750 O.2       7 UNK        -0.5000 
     37 CA         -1.2077  -16.2588  -41.7135 C.3       7 UNK         0.1400 
     38 CB         -1.0098  -14.7367  -41.6774 C.3       7 UNK        -0.1800 
     39 N          -2.1878  -16.5996  -42.7471 N.am      7 UNK        -0.5000 
     40 C          -2.8909  -17.7418  -42.7784 C.2       6 UNK         0.5000 
     41 O          -2.8310  -18.6041  -41.9021 O.2       6 UNK        -0.5000 
     42 CA         -3.8265  -17.9548  -43.9843 C.3       6 UNK         0.1400 
     43 CB         -5.2345  -17.4278  -43.6672 C.3       6 UNK        -0.1800 
     44 N          -3.3319  -17.2960  -45.1937 N.am      6 UNK        -0.5000 
     45 C          -2.3783  -17.7992  -45.9894 C.2       5 UNK         0.5000 
     46 O          -1.9035  -18.9233  -45.8569 O.2       5 UNK        -0.5000 
     47 CA         -1.8562  -16.8960  -47.1220 C.3       5 UNK         0.1400 
     48 CB         -2.4764  -17.2932  -48.4670 C.3       5 UNK        -0.1800 
     49 N          -2.0886  -15.4679  -46.8880 N.am      5 UNK        -0.5000 
     50 C          -1.4505  -14.7437  -45.9612 C.2       4 UNK         0.5000 
     51 O          -0.6352  -15.2178  -45.1665 O.2       4 UNK        -0.5000 
     52 CA         -1.8066  -13.2556  -45.8961 C.3       4 UNK         0.1400 
     53 CB         -2.9287  -13.0074  -44.8755 C.3       4 UNK        -0.1800 
     54 N          -0.6199  -12.5031  -45.5100 N.am      4 UNK        -0.5000 
     55 C          -0.2609  -11.3108  -45.9950 C.2       3 UNK         0.5000 
     56 O          -0.9360  -10.6848  -46.8134 O.2       3 UNK        -0.5000 
     57 CA          1.0756  -10.7028  -45.5178 C.3       3 UNK         0.1400 
     58 CB          0.8456   -9.6820  -44.3867 C.3       3 UNK        -0.1800 
     59 N           2.1199  -11.6732  -45.1586 N.am      3 UNK        -0.5000 
     60 C           2.1727  -12.5272  -44.1282 C.2       2 UNK         0.5000 
     61 O           1.2758  -12.6416  -43.2933 O.2       2 UNK        -0.5000 
     62 CA          3.4208  -13.4332  -44.0575 C.3       2 UNK         0.1400 
     63 CB          3.4038  -14.3649  -42.8318 C.3       2 UNK        -0.1800 
     64 N           3.5620  -14.2571  -45.2578 N.am      2 UNK        -0.5000 
     65 C           3.9816  -13.8479  -46.4608 C.2       1 UNK         0.5000 
     66 O           4.3707  -12.7013  -46.6931 O.2       1 UNK        -0.5000 
     67 C          -0.7197  -22.1559  -46.9571 C.2       11 UNK         0.5000 
     68 O          -1.4950  -22.5815  -47.8163 O.2       11 UNK        -0.5000 
     69 N          -1.0496  -22.0108  -45.6669 N.am      12 UNK        -0.5000 
     70 CA         -2.3261  -22.3917  -45.0652 C.3       12 UNK         0.1400 
     71 CB         -2.3253  -22.0021  -43.5808 C.3       12 UNK        -0.1800 
     72 C          -2.6668  -23.8848  -45.2459 C.2       12 UNK         0.5000 
     73 O          -3.8463  -24.2254  -45.3325 O.2       12 UNK        -0.5000 
     74 N          -1.6345  -24.7335  -45.3404 N.am      13 UNK        -0.5000 
     75 CA         -1.7495  -26.1492  -45.6704 C.3       13 UNK         0.1400 
     76 CB         -0.7672  -26.9535  -44.8030 C.3       13 UNK        -0.1800 
     77 C          -1.4859  -26.3851  -47.1675 C.2       13 UNK         0.5000 
     78 O          -2.3346  -26.9604  -47.8481 O.2       13 UNK        -0.5000 
     79 N          -0.3165  -25.9442  -47.6537 N.am      14 UNK        -0.5000 
     80 CA          0.2278  -26.2770  -48.9737 C.3       14 UNK         0.1400 
     81 CB          1.6946  -25.8249  -49.0439 C.3       14 UNK        -0.1800 
     82 C          -0.5634  -25.7021  -50.1608 C.2       14 UNK         0.5000 
     83 O          -0.6746  -26.3706  -51.1891 O.2       14 UNK        -0.5000 
     84 N          -1.0989  -24.4869  -49.9989 N.am      15 UNK        -0.5000 
     85 CA         -1.9258  -23.7985  -50.9926 C.3       15 UNK         0.1400 
     86 CB         -1.3506  -22.3879  -51.2194 C.3       15 UNK        -0.1800 
     87 C          -3.3978  -23.7271  -50.5454 C.2       15 UNK         0.5000 
     88 O          -4.1914  -23.0452  -51.1965 O.2       15 UNK        -0.5000 
     89 N          -3.7268  -24.3773  -49.4169 N.am      16 UNK        -0.5000 
     90 CA         -5.0158  -24.3485  -48.7174 C.3       16 UNK         0.1400 
     91 CB         -6.0771  -25.1290  -49.5188 C.3       16 UNK        -0.1800 
     92 C          -5.4582  -22.9139  -48.3503 C.2       16 UNK         0.5000 
     93 O          -6.6388  -22.5825  -48.4644 O.2       16 UNK        -0.5000 
     94 N          -4.4791  -22.0824  -47.9575 N.am      17 UNK        -0.5000 
     95 CA         -4.5926  -20.6440  -47.6929 C.3       17 UNK         0.1400 
     96 CB         -5.5368  -20.3548  -46.5061 C.3       17 UNK        -0.1800 
     97 C          -4.9433  -19.8368  -48.9597 C.2       17 UNK         0.5000 
     98 O          -5.6929  -18.8628  -48.8825 O.2       17 UNK        -0.5000 
     99 N          -4.3731  -20.2632  -50.0977 N.am      18 UNK        -0.5000 
    100 CA        -4.5624  -19.7302  -51.4490 C.3       18 UNK         0.1400 
    101 CB        -3.9865  -18.3039  -51.5677 C.3       18 UNK        -0.1800 
    102 C         -6.0317  -19.8386  -51.8967 C.2       18 UNK         0.5000 
    103 O         -6.6537  -18.8305  -52.2358 O.2       18 UNK        -0.5000 
    104 N         -6.5622  -21.0696  -51.8552 N.am      19 UNK        -0.5000 
    105 CA        -7.9299  -21.4196  -52.2455 C.3       19 UNK         0.1400 
    106 CB        -8.1813  -22.9021  -51.9296 C.3       19 UNK        -0.1800 
    107 C         -8.1821  -21.1059  -53.7325 C.2       19 UNK         0.5000 
    108 O         -7.6730  -21.8169  -54.5998 O.2       19 UNK        -0.5000 
    109 N         -8.8974  -20.0014  -53.9873 N.am      20 UNK        -0.5000 
    110 CA        -9.0804  -19.2968  -55.2645 C.3       20 UNK         0.1400 
    111 CB        -9.6678  -20.2023  -56.3650 C.3       20 UNK        -0.1800 
    112 C         -7.8003  -18.5736  -55.7319 C.2       20 UNK         0.5000 
    113 O         -7.8515  -17.3753  -56.0120 O.2       20 UNK        -0.5000 
    114 N         -6.6761  -19.2941  -55.7668 N.am      21 UNK        -0.5000 
    115 CA        -5.3277  -18.7975  -56.0120 C.3       21 UNK         0.1400 
    116 CB        -5.1209  -18.5229  -57.5129 C.3       21 UNK        -0.1800 
    117 C         -4.3336  -19.8513  -55.5045 C.2       21 UNK         0.5000 
    118 O         -4.6828  -21.0315  -55.4309 O.2       21 UNK        -0.5000 
    119 N         -3.1091  -19.4224  -55.1802 N.am      22 UNK        -0.5000 
    120 CA        -2.0112  -20.3198  -54.7780 C.3       22 UNK         0.1400 
    121 C         -1.2783  -21.0318  -55.9555 C.2       22 UNK         0.5000 
    122 N         -1.5574  -20.7065  -57.2121 N.am      22 UNK        -0.7600 
    123 O         -0.4525  -21.9104  -55.7238 O.2       22 UNK        -0.5000 
    124 C124       -1.0225  -19.6371  -53.7997 C.3       23 UNK        -0.0398 
    125 S125       -0.2206  -18.1291  -54.4564 S.3       23 UNK        -0.2404 
    126 C126       -0.5806  -16.8959  -53.1529 C.3       23 UNK        -0.0205 
    127 H127        7.6758  -16.9240  -46.0820 H         1 UNK         0.0600 
    128 H128        7.5392  -16.7067  -47.8296 H         1 UNK         0.0600 
    129 H129        6.9749  -18.2028  -47.0797 H         1 UNK         0.0600 
    130 H130        5.8755  -15.3318  -48.3662 H         1 UNK         0.3000 
    131 H131        3.2053  -15.6438  -47.3188 H         1 UNK         0.0600 
    132 H132        4.3487  -13.6127  -49.2922 H         1 UNK         0.0800 
    133 H133        3.6334  -15.1357  -49.7205 H         1 UNK         0.0800 
    134 H134       -0.2177  -14.4528  -48.7536 H         1 UNK         0.0800 
    135 H135        0.9438  -15.2321  -47.7159 H         1 UNK         0.0800 
    136 H136       -0.4086  -15.0802  -51.1746 H         1 UNK         0.1150 
    137 H137        1.0438  -18.9893  -52.2014 H         1 UNK         0.1150 
    138 H138        2.1267  -17.2211  -48.4760 H         1 UNK         0.1150 
    139 H139        2.0659  -20.3594  -50.5354 H         1 UNK         0.0800 
    140 H140        3.4838  -19.3485  -50.3838 H         1 UNK         0.0800 
    141 H141        0.2296  -20.2207  -48.7111 H         1 UNK         0.0800 
    142 H142        0.4950  -19.6835  -47.0757 H         1 UNK         0.0800 
    143 H143        1.0034  -22.4917  -48.1667 H         1 UNK         0.0600 
    144 H144        2.1099  -21.3184  -45.8213 H         1 UNK         0.3000 
    145 H145        2.9749  -24.3853  -44.1812 H         1 UNK         0.0600 
    146 H146        5.1526  -23.2188  -44.3549 H         1 UNK         0.0600 
    147 H147        4.6689  -23.8275  -45.9299 H         1 UNK         0.0600 
    148 H148        4.5042  -22.1140  -45.5665 H         1 UNK         0.0600 
    149 H149        3.2309  -21.5753  -43.5171 H         1 UNK         0.3000 
    150 H150        0.2687  -21.3368  -41.6112 H         1 UNK         0.0600 
    151 H151        1.7630  -22.5302  -39.9932 H         1 UNK         0.0600 
    152 H152        1.7489  -20.7975  -39.7093 H         1 UNK         0.0600 
    153 H153        3.1242  -21.5476  -40.5209 H         1 UNK         0.0600 
    154 H154        2.2321  -19.4366  -41.6670 H         1 UNK         0.3000 
    155 H155        2.5017  -17.7447  -43.1236 H         1 UNK         0.0600 
    156 H156        0.9383  -17.8793  -45.7573 H         1 UNK         0.0600 
    157 H157        2.6307  -18.3282  -45.5695 H         1 UNK         0.0600 
    158 H158        2.1215  -16.6644  -45.3135 H         1 UNK         0.0600 
    159 H159       -0.0762  -16.7434  -43.9396 H         1 UNK         0.3000 
    160 H160       -1.5955  -16.5716  -40.7416 H         1 UNK         0.0600 
    161 H161       -0.6463  -14.3555  -42.6310 H         1 UNK         0.0600 
    162 H162       -0.2819  -14.4545  -40.9157 H         1 UNK         0.0600 
    163 H163       -1.9420  -14.2224  -41.4440 H         1 UNK         0.0600 
    164 H164       -2.2589  -15.9625  -43.5257 H         1 UNK         0.3000 
    165 H165       -3.8970  -19.0297  -44.1657 H         1 UNK         0.0600 
    166 H166       -5.9219  -17.6095  -44.4932 H         1 UNK         0.0600 
    167 H167       -5.6470  -17.9244  -42.7878 H         1 UNK         0.0600 
    168 H168       -5.2286  -16.3558  -43.4660 H         1 UNK         0.0600 
    169 H169       -3.6978  -16.3788  -45.3997 H         1 UNK         0.3000 
    170 H170       -0.7791  -17.0578  -47.1924 H         1 UNK         0.0600 
    171 H171       -2.2682  -18.3384  -48.6990 H         1 UNK         0.0600 
    172 H172       -3.5582  -17.1585  -48.4646 H         1 UNK         0.0600 
    173 H173       -2.0696  -16.6970  -49.2828 H         1 UNK         0.0600 
    174 H174       -2.7595  -15.0170  -47.4939 H         1 UNK         0.3000 
    175 H175       -2.1429  -12.9406  -46.8863 H         1 UNK         0.0600 
    176 H176       -2.6317  -13.3042  -43.8691 H         1 UNK         0.0600 
    177 H177       -3.2020  -11.9526  -44.8432 H         1 UNK         0.0600 
    178 H178       -3.8282  -13.5673  -45.1340 H         1 UNK         0.0600 
    179 H179       -0.0172  -12.9532  -44.8281 H         1 UNK         0.3000 
    180 H180        1.4787  -10.1548  -46.3708 H         1 UNK         0.0600 
    181 H181        0.4053  -10.1439  -43.5028 H         1 UNK         0.0600 
    182 H182        0.1670   -8.8917  -44.7099 H         1 UNK         0.0600 
    183 H183        1.7796   -9.2059  -44.0882 H         1 UNK         0.0600 
    184 H184        2.8965  -11.7227  -45.8121 H         1 UNK         0.3000 
    185 H185        4.2933  -12.7822  -43.9730 H         1 UNK         0.0600 
    186 H186        3.3467  -13.7924  -41.9052 H         1 UNK         0.0600 
    187 H187        2.5487  -15.0415  -42.8527 H         1 UNK         0.0600 
    188 H188        4.3088  -14.9708  -42.7832 H         1 UNK         0.0600 
    189 H189        3.3329  -15.2348  -45.1471 H         1 UNK         0.3000 
    190 H190       -0.3839  -21.5394  -45.0592 H         1 UNK         0.3000 
    191 H191       -3.1009  -21.8098  -45.5594 H         1 UNK         0.0600 
    192 H192       -1.5888  -22.5725  -43.0159 H         1 UNK         0.0600 
    193 H193       -3.3008  -22.1855  -43.1290 H         1 UNK         0.0600 
    194 H194       -2.1004  -20.9428  -43.4522 H         1 UNK         0.0600 
    195 H195       -0.6963  -24.3589  -45.2808 H         1 UNK         0.3000 
    196 H196       -2.7566  -26.5082  -45.4475 H         1 UNK         0.0600 
    197 H197       -0.8155  -28.0167  -45.0412 H         1 UNK         0.0600 
    198 H198       -1.0039  -26.8465  -43.7442 H         1 UNK         0.0600 
    199 H199        0.2647  -26.6304  -44.9452 H         1 UNK         0.0600 
    200 H200        0.3158  -25.4424  -47.0319 H         1 UNK         0.3000 
    201 H201        0.2081  -27.3647  -49.0682 H         1 UNK         0.0600 
    202 H202        2.2890  -26.2901  -48.2572 H         1 UNK         0.0600 
    203 H203        1.7883  -24.7437  -48.9380 H         1 UNK         0.0600 
    204 H204        2.1450  -26.1017  -49.9980 H         1 UNK         0.0600 
    205 H205       -0.9921  -24.0085  -49.1104 H         1 UNK         0.3000 
    206 H206       -1.9100  -24.3274  -51.9474 H         1 UNK         0.0600 
    207 H207       -0.3114  -22.4345  -51.5452 H         1 UNK         0.0600 
    208 H208       -1.9074  -21.8612  -51.9931 H         1 UNK         0.0600 
    209 H209       -1.3906  -21.7777  -50.3173 H         1 UNK         0.0600 
    210 H210       -3.0058  -24.9302  -48.9738 H         1 UNK         0.3000 
    211 H211       -4.8676  -24.8726  -47.7726 H         1 UNK         0.0600 
    212 H212       -6.2700  -24.6700  -50.4878 H         1 UNK         0.0600 
    213 H213       -7.0243  -25.1748  -48.9804 H         1 UNK         0.0600 
    214 H214       -5.7560  -26.1555  -49.6955 H         1 UNK         0.0600 
    215 H215       -3.5343  -22.4525  -47.9229 H         1 UNK         0.3000 
    216 H216       -3.5938  -20.3172  -47.4038 H         1 UNK         0.0600 
    217 H217       -5.4860  -19.3038  -46.2226 H         1 UNK         0.0600 
    218 H218       -5.2713  -20.9412  -45.6273 H         1 UNK         0.0600 
    219 H219       -6.5766  -20.5722  -46.7506 H         1 UNK         0.0600 
    220 H220       -3.8542  -21.1290  -50.0559 H         1 UNK         0.3000 
    221 H221       -3.9885  -20.3703  -52.1204 H         1 UNK         0.0600 
    222 H222       -4.5401  -17.5877  -50.9601 H         1 UNK         0.0600 
    223 H223       -2.9445  -18.2727  -51.2513 H         1 UNK         0.0600 
    224 H224       -4.0261  -17.9544  -52.5998 H         1 UNK         0.0600 
    225 H225       -5.9611  -21.8379  -51.5789 H         1 UNK         0.3000 
    226 H226       -8.6160  -20.8265  -51.6375 H         1 UNK         0.0600 
    227 H227       -8.1053  -23.0917  -50.8589 H         1 UNK         0.0600 
    228 H228       -9.1816  -23.2043  -52.2419 H         1 UNK         0.0600 
    229 H229       -7.4668  -23.5502  -52.4388 H         1 UNK         0.0600 
    230 H230       -9.2113  -19.4737  -53.1842 H         1 UNK         0.3000 
    231 H231       -9.8204  -18.5210  -55.0615 H         1 UNK         0.0600 
    232 H232      -10.5757  -20.6996  -56.0240 H         1 UNK         0.0600 
    233 H233       -8.9649  -20.9697  -56.6892 H         1 UNK         0.0600 
    234 H234       -9.9294  -19.6150  -57.2459 H         1 UNK         0.0600 
    235 H235       -6.7183  -20.2758  -55.4999 H         1 UNK         0.3000 
    236 H236       -5.1809  -17.8775  -55.4423 H         1 UNK         0.0600 
    237 H237       -4.1108  -18.1625  -57.7105 H         1 UNK         0.0600 
    238 H238       -5.2728  -19.4237  -58.1088 H         1 UNK         0.0600 
    239 H239       -5.8097  -17.7612  -57.8781 H         1 UNK         0.0600 
    240 H240       -2.8679  -18.4475  -55.2872 H         1 UNK         0.3000 
    241 H241       -2.4596  -21.1394  -54.2135 H         1 UNK         0.0600 
    242 H242       -1.0806  -21.1803  -57.9634 H         1 UNK         0.3800 
    243 H243       -2.2310  -19.9885  -57.4210 H         1 UNK         0.3800 
    244 H244       -1.5469  -19.3893  -52.8774 H         1 UNK         0.0800 
    245 H245       -0.2435  -20.3420  -53.5051 H         1 UNK         0.0800 
    246 H246       -1.6467  -16.9153  -52.9257 H         1 UNK         0.0800 
    247 H247       -0.3809  -15.9111  -53.5779 H         1 UNK         0.0800 
@<TRIPOS>BOND
     1    1    2 1    
     2    1  127 1    
     3    1  128 1    
     4    1  129 1    
     5    2    3 2    
     6    2    4 am   BACKBONE|DICT|INTERRES
     7    4    5 1    
     8    4  130 1    
     9    5    6 1    
    10    5   65 1    
    11    5  131 1    
    12    6    7 1    
    13    6  132 1    
    14    6  133 1    
    15    7    8 1    
    16    8    9 1    
    17    8  134 1    
    18    8  135 1    
    19    9   10 ar   
    20    9   14 ar   
    21   10   11 ar   
    22   10  136 1    
    23   11   12 ar   
    24   11  126 1    
    25   12   13 ar   
    26   12  137 1    
    27   13   14 ar   
    28   13   15 1    
    29   14  138 1    
    30   15   16 1    
    31   15  139 1    
    32   15  140 1    
    33   16   17 1    
    34   17   18 1    
    35   17  141 1    
    36   17  142 1    
    37   18   19 1    
    38   18   67 1    
    39   18  143 1    
    40   19   20 am   BACKBONE|DICT|INTERRES
    41   19  144 1    
    42   20   21 2    
    43   20   22 1    
    44   22   23 1    
    45   22   24 1    
    46   22  145 1    
    47   23  146 1    
    48   23  147 1    
    49   23  148 1    
    50   24   25 am   BACKBONE|DICT|INTERRES
    51   24  149 1    
    52   25   26 2    
    53   25   27 1    
    54   27   28 1    
    55   27   29 1    
    56   27  150 1    
    57   28  151 1    
    58   28  152 1    
    59   28  153 1    
    60   29   30 am   BACKBONE|DICT|INTERRES
    61   29  154 1    
    62   30   31 2    
    63   30   32 1    
    64   32   33 1    
    65   32   34 1    
    66   32  155 1    
    67   33  156 1    
    68   33  157 1    
    69   33  158 1    
    70   34   35 am   BACKBONE|DICT|INTERRES
    71   34  159 1    
    72   35   36 2    
    73   35   37 1    
    74   37   38 1    
    75   37   39 1    
    76   37  160 1    
    77   38  161 1    
    78   38  162 1    
    79   38  163 1    
    80   39   40 am   BACKBONE|DICT|INTERRES
    81   39  164 1    
    82   40   41 2    
    83   40   42 1    
    84   42   43 1    
    85   42   44 1    
    86   42  165 1    
    87   43  166 1    
    88   43  167 1    
    89   43  168 1    
    90   44   45 am   BACKBONE|DICT|INTERRES
    91   44  169 1    
    92   45   46 2    
    93   45   47 1    
    94   47   48 1    
    95   47   49 1    
    96   47  170 1    
    97   48  171 1    
    98   48  172 1    
    99   48  173 1    
   100   49   50 am   BACKBONE|DICT|INTERRES
   101   49  174 1    
   102   50   51 2    
   103   50   52 1    
   104   52   53 1    
   105   52   54 1    
   106   52  175 1    
   107   53  176 1    
   108   53  177 1    
   109   53  178 1    
   110   54   55 am   BACKBONE|DICT|INTERRES
   111   54  179 1    
   112   55   56 2    
   113   55   57 1    
   114   57   58 1    
   115   57   59 1    
   116   57  180 1    
   117   58  181 1    
   118   58  182 1    
   119   58  183 1    
   120   59   60 am   BACKBONE|DICT|INTERRES
   121   59  184 1    
   122   60   61 2    
   123   60   62 1    
   124   62   63 1    
   125   62   64 1    
   126   62  185 1    
   127   63  186 1    
   128   63  187 1    
   129   63  188 1    
   130   64   65 am   BACKBONE|DICT|INTERRES
   131   64  189 1    
   132   65   66 2    
   133   67   68 2    
   134   67   69 am   BACKBONE|DICT|INTERRES
   135   69   70 1    
   136   69  190 1    
   137   70   71 1    
   138   70   72 1    
   139   70  191 1    
   140   71  192 1    
   141   71  193 1    
   142   71  194 1    
   143   72   73 2    
   144   72   74 am   BACKBONE|DICT|INTERRES
   145   74   75 1    
   146   74  195 1    
   147   75   76 1    
   148   75   77 1    
   149   75  196 1    
   150   76  197 1    
   151   76  198 1    
   152   76  199 1    
   153   77   78 2    
   154   77   79 am   BACKBONE|DICT|INTERRES
   155   79   80 1    
   156   79  200 1    
   157   80   81 1    
   158   80   82 1    
   159   80  201 1    
   160   81  202 1    
   161   81  203 1    
   162   81  204 1    
   163   82   83 2    
   164   82   84 am   BACKBONE|DICT|INTERRES
   165   84   85 1    
   166   84  205 1    
   167   85   86 1    
   168   85   87 1    
   169   85  206 1    
   170   86  207 1    
   171   86  208 1    
   172   86  209 1    
   173   87   88 2    
   174   87   89 am   BACKBONE|DICT|INTERRES
   175   89   90 1    
   176   89  210 1    
   177   90   91 1    
   178   90   92 1    
   179   90  211 1    
   180   91  212 1    
   181   91  213 1    
   182   91  214 1    
   183   92   93 2    
   184   92   94 am   BACKBONE|DICT|INTERRES
   185   94   95 1    
   186   94  215 1    
   187   95   96 1    
   188   95   97 1    
   189   95  216 1    
   190   96  217 1    
   191   96  218 1    
   192   96  219 1    
   193   97   98 2    
   194   97   99 am   BACKBONE|DICT|INTERRES
   195   99  100 1    
   196   99  220 1    
   197  100  101 1    
   198  100  102 1    
   199  100  221 1    
   200  101  222 1    
   201  101  223 1    
   202  101  224 1    
   203  102  103 2    
   204  102  104 am   BACKBONE|DICT|INTERRES
   205  104  105 1    
   206  104  225 1    
   207  105  106 1    
   208  105  107 1    
   209  105  226 1    
   210  106  227 1    
   211  106  228 1    
   212  106  229 1    
   213  107  108 2    
   214  107  109 am   BACKBONE|DICT|INTERRES
   215  109  110 1    
   216  109  230 1    
   217  110  111 1    
   218  110  112 1    
   219  110  231 1    
   220  111  232 1    
   221  111  233 1    
   222  111  234 1    
   223  112  113 2    
   224  112  114 am   BACKBONE|DICT|INTERRES
   225  114  115 1    
   226  114  235 1    
   227  115  116 1    
   228  115  117 1    
   229  115  236 1    
   230  116  237 1    
   231  116  238 1    
   232  116  239 1    
   233  117  118 2    
   234  117  119 am   BACKBONE|DICT|INTERRES
   235  119  120 1    
   236  119  240 1    
   237  120  121 1    
   238  120  124 1    
   239  120  241 1    
   240  121  122 am   BACKBONE|DICT|INTERRES
   241  121  123 2    
   242  122  242 1    
   243  122  243 1    
   244  124  125 1    
   245  124  244 1    
   246  124  245 1    
   247  125  126 1    
   248  126  246 1    
   249  126  247 1    
@<TRIPOS>SUBSTRUCTURE
     1 UNK         1 GROUP             0       ****    0 ROOT    
