@<TRIPOS>MOLECULE
3R540
247   249    1
SMALL
USER_CHARGES


@<TRIPOS>ATOM
      1 CA          5.2163  -17.4716  -48.5300 C.3       0 UNK        -0.1800 
      2 C           4.2522  -16.5866  -47.7567 C.2       0 UNK         0.5000 
      3 O           3.9160  -16.8986  -46.6141 O.2       0 UNK        -0.5000 
      4 N           3.8318  -15.4638  -48.3572 N.am      1 UNK        -0.5000 
      5 CA          2.9471  -14.4605  -47.7427 C.3       1 UNK         0.1400 
      6 C6          2.4219  -13.4230  -48.7623 C.3       23 UNK        -0.0398 
      7 S7          1.3321  -14.2045  -50.0004 S.3       23 UNK        -0.2404 
      8 C8          2.3534  -14.1682  -51.5055 C.3       23 UNK        -0.0205 
      9 C9          2.2103  -15.4663  -52.2821 C.ar      23 UNK        -0.0193 
     10 C10         1.1023  -15.6781  -53.1096 C.ar      23 UNK        -0.1150 
     11 C11         0.9635  -16.8751  -53.8200 C.ar      23 UNK        -0.0193 
     12 C12         1.9583  -17.8505  -53.7122 C.ar      23 UNK        -0.1150 
     13 C13         3.0415  -17.6721  -52.8481 C.ar      23 UNK        -0.0193 
     14 C14         3.1742  -16.4698  -52.1509 C.ar      23 UNK        -0.1150 
     15 C15         4.0203  -18.8133  -52.6110 C.3       23 UNK        -0.0205 
     16 S16         3.7385  -19.6328  -51.0009 S.3       23 UNK        -0.2404 
     17 C17         1.9191  -19.7741  -50.9574 C.3       23 UNK        -0.0398 
     18 CA          1.3817  -20.7028  -49.8458 C.3       11 UNK         0.1400 
     19 N           1.8145  -20.3003  -48.4998 N.am      11 UNK        -0.5000 
     20 C           1.6518  -21.0605  -47.4084 C.2       10 UNK         0.5000 
     21 O           1.0743  -22.1491  -47.4133 O.2       10 UNK        -0.5000 
     22 CA          2.2007  -20.5074  -46.0800 C.3       10 UNK         0.1400 
     23 CB          3.7360  -20.5498  -46.0528 C.3       10 UNK        -0.1800 
     24 N           1.7440  -19.1668  -45.6956 N.am      10 UNK        -0.5000 
     25 C           0.4684  -18.7632  -45.6322 C.2       9 UNK         0.5000 
     26 O          -0.4579  -19.3437  -46.1984 O.2       9 UNK        -0.5000 
     27 CA          0.1782  -17.5480  -44.7309 C.3       9 UNK         0.1400 
     28 CB          0.5969  -16.2129  -45.3670 C.3       9 UNK        -0.1800 
     29 N          -1.2179  -17.5701  -44.2807 N.am      9 UNK        -0.5000 
     30 C          -2.3256  -17.1427  -44.9068 C.2       8 UNK         0.5000 
     31 O          -2.3252  -16.4163  -45.9007 O.2       8 UNK        -0.5000 
     32 CA         -3.6829  -17.6299  -44.3504 C.3       8 UNK         0.1400 
     33 CB         -4.4699  -18.3980  -45.4269 C.3       8 UNK        -0.1800 
     34 N          -3.5458  -18.5017  -43.1816 N.am      8 UNK        -0.5000 
     35 C          -3.4796  -18.0820  -41.9133 C.2       7 UNK         0.5000 
     36 O          -3.5909  -16.9029  -41.5759 O.2       7 UNK        -0.5000 
     37 CA         -3.2203  -19.1501  -40.8312 C.3       7 UNK         0.1400 
     38 CB         -3.4287  -20.6084  -41.3021 C.3       7 UNK        -0.1800 
     39 N          -1.8902  -18.9703  -40.2462 N.am      7 UNK        -0.5000 
     40 C          -0.7087  -19.0299  -40.8751 C.2       6 UNK         0.5000 
     41 O          -0.5811  -19.3489  -42.0587 O.2       6 UNK        -0.5000 
     42 CA          0.5259  -18.6149  -40.0441 C.3       6 UNK         0.1400 
     43 CB          1.8423  -19.0399  -40.7166 C.3       6 UNK        -0.1800 
     44 N           0.5644  -17.1678  -39.8207 N.am      6 UNK        -0.5000 
     45 C          -0.2847  -16.4678  -39.0547 C.2       5 UNK         0.5000 
     46 O          -1.1375  -16.9954  -38.3376 O.2       5 UNK        -0.5000 
     47 CA         -0.1798  -14.9287  -39.0753 C.3       5 UNK         0.1400 
     48 CB          0.2962  -14.4016  -37.7120 C.3       5 UNK        -0.1800 
     49 N           0.6966  -14.3838  -40.1137 N.am      5 UNK        -0.5000 
     50 C           0.4810  -14.4136  -41.4362 C.2       4 UNK         0.5000 
     51 O          -0.4958  -14.9460  -41.9609 O.2       4 UNK        -0.5000 
     52 CA          1.5365  -13.7191  -42.3216 C.3       4 UNK         0.1400 
     53 CB          2.2090  -12.5152  -41.6281 C.3       4 UNK        -0.1800 
     54 N           2.5715  -14.6118  -42.8511 N.am      4 UNK        -0.5000 
     55 C           3.3264  -15.5080  -42.1923 C.2       3 UNK         0.5000 
     56 O           3.1329  -15.8539  -41.0270 O.2       3 UNK        -0.5000 
     57 CA          4.5301  -16.1056  -42.9543 C.3       3 UNK         0.1400 
     58 CB          4.2281  -17.5362  -43.4207 C.3       3 UNK        -0.1800 
     59 N           4.9401  -15.2998  -44.1078 N.am      3 UNK        -0.5000 
     60 C           5.5218  -14.0917  -44.0211 C.2       2 UNK         0.5000 
     61 O           5.8646  -13.5810  -42.9543 O.2       2 UNK        -0.5000 
     62 CA          5.7393  -13.3017  -45.3300 C.3       2 UNK         0.1400 
     63 CB          7.2196  -13.3387  -45.7396 C.3       2 UNK        -0.1800 
     64 N           4.9293  -13.7697  -46.4568 N.am      2 UNK        -0.5000 
     65 C           3.5893  -13.7667  -46.5205 C.2       1 UNK         0.5000 
     66 O           2.8684  -13.3039  -45.6358 O.2       1 UNK        -0.5000 
     67 C          -0.1532  -20.7948  -49.9640 C.2       11 UNK         0.5000 
     68 O          -0.6569  -21.6644  -50.6742 O.2       11 UNK        -0.5000 
     69 N          -0.8648  -19.8980  -49.2682 N.am      12 UNK        -0.5000 
     70 CA         -2.3222  -19.8632  -49.2347 C.3       12 UNK         0.1400 
     71 CB         -2.7993  -18.4828  -48.7695 C.3       12 UNK        -0.1800 
     72 C          -2.8877  -20.9719  -48.3382 C.2       12 UNK         0.5000 
     73 O          -3.8321  -21.6454  -48.7450 O.2       12 UNK        -0.5000 
     74 N          -2.2932  -21.1678  -47.1545 N.am      13 UNK        -0.5000 
     75 CA         -2.6628  -22.1936  -46.1779 C.3       13 UNK         0.1400 
     76 CB         -1.8247  -22.0121  -44.9034 C.3       13 UNK        -0.1800 
     77 C          -2.5186  -23.6198  -46.7363 C.2       13 UNK         0.5000 
     78 O          -3.4211  -24.4377  -46.5542 O.2       13 UNK        -0.5000 
     79 N          -1.4277  -23.8640  -47.4769 N.am      14 UNK        -0.5000 
     80 CA         -1.1742  -25.1050  -48.2156 C.3       14 UNK         0.1400 
     81 CB          0.2623  -25.0719  -48.7590 C.3       14 UNK        -0.1800 
     82 C          -2.1729  -25.3618  -49.3650 C.2       14 UNK         0.5000 
     83 O          -2.3218  -26.5064  -49.7933 O.2       14 UNK        -0.5000 
     84 N          -2.8408  -24.3004  -49.8311 N.am      15 UNK        -0.5000 
     85 CA         -3.8318  -24.3008  -50.9031 C.3       15 UNK         0.1400 
     86 CB         -3.4595  -23.1811  -51.8857 C.3       15 UNK        -0.1800 
     87 C          -5.2681  -24.1368  -50.3690 C.2       15 UNK         0.5000 
     88 O          -6.1488  -23.7462  -51.1370 O.2       15 UNK        -0.5000 
     89 N          -5.4783  -24.4244  -49.0742 N.am      16 UNK        -0.5000 
     90 CA         -6.7518  -24.3727  -48.3474 C.3       16 UNK         0.1400 
     91 CB         -7.7257  -25.4457  -48.8780 C.3       16 UNK        -0.1800 
     92 C          -7.3606  -22.9558  -48.3229 C.2       16 UNK         0.5000 
     93 O          -8.5025  -22.7582  -48.7388 O.2       16 UNK        -0.5000 
     94 N          -6.5548  -21.9923  -47.8561 N.am      17 UNK        -0.5000 
     95 CA         -6.8221  -20.5495  -47.8107 C.3       17 UNK         0.1400 
     96 CB         -8.0155  -20.2198  -46.8903 C.3       17 UNK        -0.1800 
     97 C          -6.9409  -19.9438  -49.2240 C.2       17 UNK         0.5000 
     98 O          -7.8377  -19.1434  -49.4924 O.2       17 UNK        -0.5000 
     99 N          -6.0162  -20.3652  -50.0988 N.am      18 UNK        -0.5000 
    100 CA        -5.8637  -19.9883  -51.5074 C.3       18 UNK         0.1400 
    101 CB        -5.5310  -18.4894  -51.6529 C.3       18 UNK        -0.1800 
    102 C         -7.0274  -20.4295  -52.4199 C.2       18 UNK         0.5000 
    103 O         -7.1392  -19.9275  -53.5393 O.2       18 UNK        -0.5000 
    104 N         -7.8386  -21.3981  -51.9711 N.am      19 UNK        -0.5000 
    105 CA        -8.9147  -22.0157  -52.7505 C.3       19 UNK         0.1400 
    106 CB        -9.7391  -22.9388  -51.8429 C.3       19 UNK        -0.1800 
    107 C         -8.3887  -22.7872  -53.9756 C.2       19 UNK         0.5000 
    108 O         -9.0281  -22.7683  -55.0275 O.2       19 UNK        -0.5000 
    109 N         -7.2065  -23.4011  -53.8308 N.am      20 UNK        -0.5000 
    110 CA        -6.4619  -24.0645  -54.9026 C.3       20 UNK         0.1400 
    111 CB        -5.7588  -25.3082  -54.3305 C.3       20 UNK        -0.1800 
    112 C         -5.4780  -23.1131  -55.6231 C.2       20 UNK         0.5000 
    113 O         -4.5293  -23.5902  -56.2472 O.2       20 UNK        -0.5000 
    114 N         -5.7006  -21.7911  -55.5230 N.am      21 UNK        -0.5000 
    115 CA        -4.9865  -20.7085  -56.2171 C.3       21 UNK         0.1400 
    116 CB        -5.3410  -20.7192  -57.7185 C.3       21 UNK        -0.1800 
    117 C         -3.4640  -20.7065  -55.9605 C.2       21 UNK         0.5000 
    118 O         -2.6738  -20.5382  -56.8910 O.2       21 UNK        -0.5000 
    119 N         -3.0933  -20.9278  -54.6936 N.am      22 UNK        -0.5000 
    120 CA        -1.7151  -21.1003  -54.1978 C.3       22 UNK         0.1400 
    121 C         -1.0330  -22.4398  -54.6241 C.2       22 UNK         0.5000 
    122 N         -1.7267  -23.3873  -55.2456 N.am      22 UNK        -0.7600 
    123 O          0.1493  -22.6413  -54.3611 O.2       22 UNK        -0.5000 
    124 C124       -0.7813  -19.8840  -54.4540 C.3       23 UNK        -0.0398 
    125 S125       -1.4450  -18.2747  -53.8996 S.3       23 UNK        -0.2404 
    126 C126       -0.2663  -17.1204  -54.6862 C.3       23 UNK        -0.0205 
    127 H127        5.3306  -17.1446  -49.5633 H         1 UNK         0.0600 
    128 H128        6.1973  -17.4566  -48.0556 H         1 UNK         0.0600 
    129 H129        4.8598  -18.4998  -48.5365 H         1 UNK         0.0600 
    130 H130        4.1342  -15.2627  -49.2983 H         1 UNK         0.3000 
    131 H131        2.0794  -14.9986  -47.3642 H         1 UNK         0.0600 
    132 H132        1.8273  -12.6596  -48.2567 H         1 UNK         0.0800 
    133 H133        3.2439  -12.8924  -49.2450 H         1 UNK         0.0800 
    134 H134        3.4023  -14.0010  -51.2582 H         1 UNK         0.0800 
    135 H135        2.0482  -13.3249  -52.1268 H         1 UNK         0.0800 
    136 H136        0.3416  -14.9139  -53.1872 H         1 UNK         0.1150 
    137 H137        1.8708  -18.7719  -54.2670 H         1 UNK         0.1150 
    138 H138        4.0131  -16.3307  -51.4849 H         1 UNK         0.1150 
    139 H139        3.9411  -19.5572  -53.4053 H         1 UNK         0.0800 
    140 H140        5.0427  -18.4348  -52.6463 H         1 UNK         0.0800 
    141 H141        1.5928  -20.1389  -51.9329 H         1 UNK         0.0800 
    142 H142        1.5003  -18.7720  -50.8436 H         1 UNK         0.0800 
    143 H143        1.7768  -21.7046  -50.0294 H         1 UNK         0.0600 
    144 H144        2.2940  -19.4163  -48.4169 H         1 UNK         0.3000 
    145 H145        1.8459  -21.1827  -45.2986 H         1 UNK         0.0600 
    146 H146        4.1178  -20.3439  -45.0527 H         1 UNK         0.0600 
    147 H147        4.1084  -21.5325  -46.3451 H         1 UNK         0.0600 
    148 H148        4.1714  -19.8175  -46.7314 H         1 UNK         0.0600 
    149 H149        2.4561  -18.5676  -45.3044 H         1 UNK         0.3000 
    150 H150        0.7660  -17.6727  -43.8205 H         1 UNK         0.0600 
    151 H151        1.6822  -16.1384  -45.4046 H         1 UNK         0.0600 
    152 H152        0.2369  -15.3639  -44.7861 H         1 UNK         0.0600 
    153 H153        0.2204  -16.1125  -46.3853 H         1 UNK         0.0600 
    154 H154       -1.3550  -18.1692  -43.4735 H         1 UNK         0.3000 
    155 H155       -4.2591  -16.7431  -44.0786 H         1 UNK         0.0600 
    156 H156       -4.6553  -17.7720  -46.3004 H         1 UNK         0.0600 
    157 H157       -5.4408  -18.7220  -45.0516 H         1 UNK         0.0600 
    158 H158       -3.9278  -19.2814  -45.7641 H         1 UNK         0.0600 
    159 H159       -3.4211  -19.4859  -43.3665 H         1 UNK         0.3000 
    160 H160       -3.9391  -18.9573  -40.0335 H         1 UNK         0.0600 
    161 H161       -2.7184  -20.9084  -42.0723 H         1 UNK         0.0600 
    162 H162       -3.3154  -21.3017  -40.4687 H         1 UNK         0.0600 
    163 H163       -4.4335  -20.7520  -41.7015 H         1 UNK         0.0600 
    164 H164       -1.8793  -18.5738  -39.3115 H         1 UNK         0.3000 
    165 H165        0.4640  -19.1163  -39.0762 H         1 UNK         0.0600 
    166 H166        2.7048  -18.7708  -40.1065 H         1 UNK         0.0600 
    167 H167        1.8733  -20.1192  -40.8699 H         1 UNK         0.0600 
    168 H168        1.9599  -18.5659  -41.6909 H         1 UNK         0.0600 
    169 H169        1.2601  -16.6508  -40.3464 H         1 UNK         0.3000 
    170 H170       -1.1862  -14.5461  -39.2567 H         1 UNK         0.0600 
    171 H171       -0.3562  -14.7443  -36.9078 H         1 UNK         0.0600 
    172 H172        1.3069  -14.7411  -37.4819 H         1 UNK         0.0600 
    173 H173        0.2930  -13.3117  -37.6865 H         1 UNK         0.0600 
    174 H174        1.5582  -13.9680  -39.7910 H         1 UNK         0.3000 
    175 H175        0.9976  -13.3331  -43.1884 H         1 UNK         0.0600 
    176 H176        2.8729  -12.8223  -40.8193 H         1 UNK         0.0600 
    177 H177        2.8062  -11.9449  -42.3401 H         1 UNK         0.0600 
    178 H178        1.4667  -11.8326  -41.2121 H         1 UNK         0.0600 
    179 H179        2.8185  -14.4219  -43.8152 H         1 UNK         0.3000 
    180 H180        5.3708  -16.1483  -42.2588 H         1 UNK         0.0600 
    181 H181        4.0998  -18.2031  -42.5684 H         1 UNK         0.0600 
    182 H182        3.3174  -17.5756  -44.0151 H         1 UNK         0.0600 
    183 H183        5.0421  -17.9390  -44.0239 H         1 UNK         0.0600 
    184 H184        4.6982  -15.6668  -45.0211 H         1 UNK         0.3000 
    185 H185        5.4628  -12.2644  -45.1306 H         1 UNK         0.0600 
    186 H186        7.8576  -12.9644  -44.9378 H         1 UNK         0.0600 
    187 H187        7.5465  -14.3529  -45.9728 H         1 UNK         0.0600 
    188 H188        7.4033  -12.7158  -46.6152 H         1 UNK         0.0600 
    189 H189        5.4344  -14.1881  -47.2240 H         1 UNK         0.3000 
    190 H190       -0.3802  -19.2651  -48.6471 H         1 UNK         0.3000 
    191 H191       -2.7009  -20.0240  -50.2464 H         1 UNK         0.0600 
    192 H192       -2.3990  -18.2340  -47.7881 H         1 UNK         0.0600 
    193 H193       -3.8870  -18.4432  -48.7011 H         1 UNK         0.0600 
    194 H194       -2.4866  -17.7033  -49.4643 H         1 UNK         0.0600 
    195 H195       -1.5332  -20.5435  -46.8827 H         1 UNK         0.3000 
    196 H196       -3.7126  -22.0412  -45.9197 H         1 UNK         0.0600 
    197 H197       -2.1052  -22.7403  -44.1415 H         1 UNK         0.0600 
    198 H198       -1.9671  -21.0198  -44.4757 H         1 UNK         0.0600 
    199 H199       -0.7594  -22.1351  -45.1026 H         1 UNK         0.0600 
    200 H200       -0.7176  -23.1416  -47.5525 H         1 UNK         0.3000 
    201 H201       -1.2591  -25.9380  -47.5150 H         1 UNK         0.0600 
    202 H202        0.9874  -24.9730  -47.9509 H         1 UNK         0.0600 
    203 H203        0.4106  -24.2369  -49.4455 H         1 UNK         0.0600 
    204 H204        0.5005  -25.9892  -49.2988 H         1 UNK         0.0600 
    205 H205       -2.6783  -23.4022  -49.3943 H         1 UNK         0.3000 
    206 H206       -3.8051  -25.2490  -51.4429 H         1 UNK         0.0600 
    207 H207       -2.4808  -23.3806  -52.3187 H         1 UNK         0.0600 
    208 H208       -4.1689  -23.0964  -52.7076 H         1 UNK         0.0600 
    209 H209       -3.4096  -22.2135  -51.3885 H         1 UNK         0.0600 
    210 H210       -4.6741  -24.6875  -48.5192 H         1 UNK         0.3000 
    211 H211       -6.5237  -24.6244  -47.3105 H         1 UNK         0.0600 
    212 H212       -8.0089  -25.2646  -49.9147 H         1 UNK         0.0600 
    213 H213       -8.6427  -25.4663  -48.2881 H         1 UNK         0.0600 
    214 H214       -7.2823  -26.4398  -48.8226 H         1 UNK         0.0600 
    215 H215       -5.5989  -22.2532  -47.6494 H         1 UNK         0.3000 
    216 H216       -5.9368  -20.0945  -47.3654 H         1 UNK         0.0600 
    217 H217       -7.8847  -20.6616  -45.9027 H         1 UNK         0.0600 
    218 H218       -8.9594  -20.5814  -47.2987 H         1 UNK         0.0600 
    219 H219       -8.1127  -19.1423  -46.7529 H         1 UNK         0.0600 
    220 H220       -5.3299  -21.0274  -49.7472 H         1 UNK         0.3000 
    221 H221       -4.9955  -20.5406  -51.8651 H         1 UNK         0.0600 
    222 H222       -6.3716  -17.8575  -51.3657 H         1 UNK         0.0600 
    223 H223       -4.6758  -18.2118  -51.0383 H         1 UNK         0.0600 
    224 H224       -5.2745  -18.2418  -52.6837 H         1 UNK         0.0600 
    225 H225       -7.6537  -21.8009  -51.0617 H         1 UNK         0.3000 
    226 H226       -9.5675  -21.2189  -53.1128 H         1 UNK         0.0600 
    227 H227      -10.1737  -22.3864  -51.0096 H         1 UNK         0.0600 
    228 H228      -10.5607  -23.3986  -52.3934 H         1 UNK         0.0600 
    229 H229       -9.1286  -23.7421  -51.4295 H         1 UNK         0.0600 
    230 H230       -6.7773  -23.4013  -52.9080 H         1 UNK         0.3000 
    231 H231       -7.1639  -24.4137  -55.6623 H         1 UNK         0.0600 
    232 H232       -4.9747  -25.0448  -53.6237 H         1 UNK         0.0600 
    233 H233       -6.4664  -25.9589  -53.8164 H         1 UNK         0.0600 
    234 H234       -5.2975  -25.8977  -55.1237 H         1 UNK         0.0600 
    235 H235       -6.4831  -21.4860  -54.9573 H         1 UNK         0.3000 
    236 H236       -5.3637  -19.7743  -55.7982 H         1 UNK         0.0600 
    237 H237       -6.4200  -20.6815  -57.8683 H         1 UNK         0.0600 
    238 H238       -4.9138  -19.8553  -58.2289 H         1 UNK         0.0600 
    239 H239       -4.9645  -21.6137  -58.2159 H         1 UNK         0.0600 
    240 H240       -3.8220  -21.0699  -54.0129 H         1 UNK         0.3000 
    241 H241       -1.8184  -21.1781  -53.1162 H         1 UNK         0.0600 
    242 H242       -1.2597  -24.2430  -55.4989 H         1 UNK         0.3800 
    243 H243       -2.6947  -23.2552  -55.5169 H         1 UNK         0.3800 
    244 H244       -0.5261  -19.8180  -55.5124 H         1 UNK         0.0800 
    245 H245        0.1539  -20.0474  -53.9217 H         1 UNK         0.0800 
    246 H246       -0.7836  -16.1782  -54.8732 H         1 UNK         0.0800 
    247 H247        0.0357  -17.4947  -55.6653 H         1 UNK         0.0800 
@<TRIPOS>BOND
     1    1    2 1    
     2    1  127 1    
     3    1  128 1    
     4    1  129 1    
     5    2    3 2    
     6    2    4 am   BACKBONE|DICT|INTERRES
     7    4    5 1    
     8    4  130 1    
     9    5    6 1    
    10    5   65 1    
    11    5  131 1    
    12    6    7 1    
    13    6  132 1    
    14    6  133 1    
    15    7    8 1    
    16    8    9 1    
    17    8  134 1    
    18    8  135 1    
    19    9   10 ar   
    20    9   14 ar   
    21   10   11 ar   
    22   10  136 1    
    23   11   12 ar   
    24   11  126 1    
    25   12   13 ar   
    26   12  137 1    
    27   13   14 ar   
    28   13   15 1    
    29   14  138 1    
    30   15   16 1    
    31   15  139 1    
    32   15  140 1    
    33   16   17 1    
    34   17   18 1    
    35   17  141 1    
    36   17  142 1    
    37   18   19 1    
    38   18   67 1    
    39   18  143 1    
    40   19   20 am   BACKBONE|DICT|INTERRES
    41   19  144 1    
    42   20   21 2    
    43   20   22 1    
    44   22   23 1    
    45   22   24 1    
    46   22  145 1    
    47   23  146 1    
    48   23  147 1    
    49   23  148 1    
    50   24   25 am   BACKBONE|DICT|INTERRES
    51   24  149 1    
    52   25   26 2    
    53   25   27 1    
    54   27   28 1    
    55   27   29 1    
    56   27  150 1    
    57   28  151 1    
    58   28  152 1    
    59   28  153 1    
    60   29   30 am   BACKBONE|DICT|INTERRES
    61   29  154 1    
    62   30   31 2    
    63   30   32 1    
    64   32   33 1    
    65   32   34 1    
    66   32  155 1    
    67   33  156 1    
    68   33  157 1    
    69   33  158 1    
    70   34   35 am   BACKBONE|DICT|INTERRES
    71   34  159 1    
    72   35   36 2    
    73   35   37 1    
    74   37   38 1    
    75   37   39 1    
    76   37  160 1    
    77   38  161 1    
    78   38  162 1    
    79   38  163 1    
    80   39   40 am   BACKBONE|DICT|INTERRES
    81   39  164 1    
    82   40   41 2    
    83   40   42 1    
    84   42   43 1    
    85   42   44 1    
    86   42  165 1    
    87   43  166 1    
    88   43  167 1    
    89   43  168 1    
    90   44   45 am   BACKBONE|DICT|INTERRES
    91   44  169 1    
    92   45   46 2    
    93   45   47 1    
    94   47   48 1    
    95   47   49 1    
    96   47  170 1    
    97   48  171 1    
    98   48  172 1    
    99   48  173 1    
   100   49   50 am   BACKBONE|DICT|INTERRES
   101   49  174 1    
   102   50   51 2    
   103   50   52 1    
   104   52   53 1    
   105   52   54 1    
   106   52  175 1    
   107   53  176 1    
   108   53  177 1    
   109   53  178 1    
   110   54   55 am   BACKBONE|DICT|INTERRES
   111   54  179 1    
   112   55   56 2    
   113   55   57 1    
   114   57   58 1    
   115   57   59 1    
   116   57  180 1    
   117   58  181 1    
   118   58  182 1    
   119   58  183 1    
   120   59   60 am   BACKBONE|DICT|INTERRES
   121   59  184 1    
   122   60   61 2    
   123   60   62 1    
   124   62   63 1    
   125   62   64 1    
   126   62  185 1    
   127   63  186 1    
   128   63  187 1    
   129   63  188 1    
   130   64   65 am   BACKBONE|DICT|INTERRES
   131   64  189 1    
   132   65   66 2    
   133   67   68 2    
   134   67   69 am   BACKBONE|DICT|INTERRES
   135   69   70 1    
   136   69  190 1    
   137   70   71 1    
   138   70   72 1    
   139   70  191 1    
   140   71  192 1    
   141   71  193 1    
   142   71  194 1    
   143   72   73 2    
   144   72   74 am   BACKBONE|DICT|INTERRES
   145   74   75 1    
   146   74  195 1    
   147   75   76 1    
   148   75   77 1    
   149   75  196 1    
   150   76  197 1    
   151   76  198 1    
   152   76  199 1    
   153   77   78 2    
   154   77   79 am   BACKBONE|DICT|INTERRES
   155   79   80 1    
   156   79  200 1    
   157   80   81 1    
   158   80   82 1    
   159   80  201 1    
   160   81  202 1    
   161   81  203 1    
   162   81  204 1    
   163   82   83 2    
   164   82   84 am   BACKBONE|DICT|INTERRES
   165   84   85 1    
   166   84  205 1    
   167   85   86 1    
   168   85   87 1    
   169   85  206 1    
   170   86  207 1    
   171   86  208 1    
   172   86  209 1    
   173   87   88 2    
   174   87   89 am   BACKBONE|DICT|INTERRES
   175   89   90 1    
   176   89  210 1    
   177   90   91 1    
   178   90   92 1    
   179   90  211 1    
   180   91  212 1    
   181   91  213 1    
   182   91  214 1    
   183   92   93 2    
   184   92   94 am   BACKBONE|DICT|INTERRES
   185   94   95 1    
   186   94  215 1    
   187   95   96 1    
   188   95   97 1    
   189   95  216 1    
   190   96  217 1    
   191   96  218 1    
   192   96  219 1    
   193   97   98 2    
   194   97   99 am   BACKBONE|DICT|INTERRES
   195   99  100 1    
   196   99  220 1    
   197  100  101 1    
   198  100  102 1    
   199  100  221 1    
   200  101  222 1    
   201  101  223 1    
   202  101  224 1    
   203  102  103 2    
   204  102  104 am   BACKBONE|DICT|INTERRES
   205  104  105 1    
   206  104  225 1    
   207  105  106 1    
   208  105  107 1    
   209  105  226 1    
   210  106  227 1    
   211  106  228 1    
   212  106  229 1    
   213  107  108 2    
   214  107  109 am   BACKBONE|DICT|INTERRES
   215  109  110 1    
   216  109  230 1    
   217  110  111 1    
   218  110  112 1    
   219  110  231 1    
   220  111  232 1    
   221  111  233 1    
   222  111  234 1    
   223  112  113 2    
   224  112  114 am   BACKBONE|DICT|INTERRES
   225  114  115 1    
   226  114  235 1    
   227  115  116 1    
   228  115  117 1    
   229  115  236 1    
   230  116  237 1    
   231  116  238 1    
   232  116  239 1    
   233  117  118 2    
   234  117  119 am   BACKBONE|DICT|INTERRES
   235  119  120 1    
   236  119  240 1    
   237  120  121 1    
   238  120  124 1    
   239  120  241 1    
   240  121  122 am   BACKBONE|DICT|INTERRES
   241  121  123 2    
   242  122  242 1    
   243  122  243 1    
   244  124  125 1    
   245  124  244 1    
   246  124  245 1    
   247  125  126 1    
   248  126  246 1    
   249  126  247 1    
@<TRIPOS>SUBSTRUCTURE
     1 UNK         1 GROUP             0       ****    0 ROOT    
