@<TRIPOS>MOLECULE
3R540
247   249    1
SMALL
USER_CHARGES


@<TRIPOS>ATOM
      1 CA         -0.3708  -12.6843  -45.5732 C.3       0 UNK        -0.1800 
      2 C           0.3197  -11.9947  -46.7391 C.2       0 UNK         0.5000 
      3 O           0.2444  -10.7721  -46.8596 O.2       0 UNK        -0.5000 
      4 N           1.0250  -12.7715  -47.5739 N.am      1 UNK        -0.5000 
      5 CA          1.7538  -12.3150  -48.7711 C.3       1 UNK         0.1400 
      6 C6          2.3574  -13.4951  -49.5734 C.3       23 UNK        -0.0398 
      7 S7          1.1013  -14.6759  -50.1745 S.3       23 UNK        -0.2404 
      8 C8          1.3463  -16.0685  -49.0266 C.3       23 UNK        -0.0205 
      9 C9          0.4539  -17.2557  -49.3611 C.ar      23 UNK        -0.0193 
     10 C10        -0.9383  -17.1275  -49.3348 C.ar      23 UNK        -0.1150 
     11 C11        -1.7593  -18.2171  -49.6390 C.ar      23 UNK        -0.0193 
     12 C12        -1.1775  -19.4552  -49.9261 C.ar      23 UNK        -0.1150 
     13 C13         0.2125  -19.6052  -49.9363 C.ar      23 UNK        -0.0193 
     14 C14         1.0215  -18.4941  -49.6744 C.ar      23 UNK        -0.1150 
     15 C15         0.8227  -20.9720  -50.2348 C.3       23 UNK        -0.0205 
     16 S16         2.1772  -21.4616  -49.1054 S.3       23 UNK        -0.2404 
     17 C17         1.4738  -21.1666  -47.4438 C.3       23 UNK        -0.0398 
     18 CA          0.8422  -22.4165  -46.7890 C.3       11 UNK         0.1400 
     19 N           0.6455  -22.2247  -45.3512 N.am      11 UNK        -0.5000 
     20 C           0.2135  -23.1600  -44.4940 C.2       10 UNK         0.5000 
     21 O          -0.0044  -24.3310  -44.8070 O.2       10 UNK        -0.5000 
     22 CA         -0.0784  -22.6886  -43.0573 C.3       10 UNK         0.1400 
     23 CB          1.2178  -22.5680  -42.2424 C.3       10 UNK        -0.1800 
     24 N          -0.8044  -21.4164  -43.0236 N.am      10 UNK        -0.5000 
     25 C          -2.0415  -21.2422  -43.5117 C.2       9 UNK         0.5000 
     26 O          -2.7176  -22.1499  -43.9956 O.2       9 UNK        -0.5000 
     27 CA         -2.6055  -19.8101  -43.4972 C.3       9 UNK         0.1400 
     28 CB         -3.1428  -19.4491  -42.1046 C.3       9 UNK        -0.1800 
     29 N          -1.6280  -18.8094  -43.9279 N.am      9 UNK        -0.5000 
     30 C          -1.0847  -18.7558  -45.1525 C.2       8 UNK         0.5000 
     31 O          -1.3793  -19.5265  -46.0626 O.2       8 UNK        -0.5000 
     32 CA          0.0152  -17.7064  -45.3875 C.3       8 UNK         0.1400 
     33 CB         -0.5916  -16.3188  -45.6304 C.3       8 UNK        -0.1800 
     34 N           0.9706  -17.6408  -44.2820 N.am      8 UNK        -0.5000 
     35 C           1.7516  -18.6588  -43.8926 C.2       7 UNK         0.5000 
     36 O           1.7943  -19.7482  -44.4627 O.2       7 UNK        -0.5000 
     37 CA          2.5804  -18.4423  -42.6172 C.3       7 UNK         0.1400 
     38 CB          3.8717  -17.6700  -42.9244 C.3       7 UNK        -0.1800 
     39 N           1.8098  -17.7422  -41.5897 N.am      7 UNK        -0.5000 
     40 C           0.7847  -18.2868  -40.9185 C.2       6 UNK         0.5000 
     41 O           0.4089  -19.4496  -41.0709 O.2       6 UNK        -0.5000 
     42 CA          0.0304  -17.3646  -39.9426 C.3       6 UNK         0.1400 
     43 CB          0.7594  -17.2912  -38.5928 C.3       6 UNK        -0.1800 
     44 N          -0.1512  -16.0111  -40.4713 N.am      6 UNK        -0.5000 
     45 C          -0.9227  -15.7109  -41.5255 C.2       5 UNK         0.5000 
     46 O          -1.5878  -16.5423  -42.1409 O.2       5 UNK        -0.5000 
     47 CA         -0.9162  -14.2467  -42.0037 C.3       5 UNK         0.1400 
     48 CB         -1.9812  -13.4289  -41.2595 C.3       5 UNK        -0.1800 
     49 N           0.3826  -13.5807  -41.8736 N.am      5 UNK        -0.5000 
     50 C           1.5243  -13.9890  -42.4409 C.2       4 UNK         0.5000 
     51 O           1.6161  -15.0103  -43.1250 O.2       4 UNK        -0.5000 
     52 CA          2.7478  -13.0774  -42.2337 C.3       4 UNK         0.1400 
     53 CB          4.0714  -13.7861  -42.5702 C.3       4 UNK        -0.1800 
     54 N           2.6397  -11.8763  -43.0582 N.am      4 UNK        -0.5000 
     55 C           1.8859  -10.8015  -42.7937 C.2       3 UNK         0.5000 
     56 O           1.1941  -10.7025  -41.7788 O.2       3 UNK        -0.5000 
     57 CA          1.8610   -9.6632  -43.8389 C.3       3 UNK         0.1400 
     58 CB          2.2772   -8.3125  -43.2225 C.3       3 UNK        -0.1800 
     59 N           2.6037   -9.9411  -45.0792 N.am      3 UNK        -0.5000 
     60 C           3.9311  -10.0407  -45.2617 C.2       2 UNK         0.5000 
     61 O           4.7577   -9.8909  -44.3621 O.2       2 UNK        -0.5000 
     62 CA          4.3952  -10.4376  -46.6775 C.3       2 UNK         0.1400 
     63 CB          5.8053  -11.0562  -46.6949 C.3       2 UNK        -0.1800 
     64 N           3.4472  -11.3891  -47.2570 N.am      2 UNK        -0.5000 
     65 C           2.8560  -11.2784  -48.4525 C.2       1 UNK         0.5000 
     66 O           3.1231  -10.4000  -49.2735 O.2       1 UNK        -0.5000 
     67 C          -0.4731  -22.8162  -47.4838 C.2       11 UNK         0.5000 
     68 O          -0.4923  -23.8010  -48.2202 O.2       11 UNK        -0.5000 
     69 N          -1.5561  -22.0756  -47.2107 N.am      12 UNK        -0.5000 
     70 CA         -2.8887  -22.3257  -47.7515 C.3       12 UNK         0.1400 
     71 CB         -3.8438  -21.1957  -47.3429 C.3       12 UNK        -0.1800 
     72 C          -3.4616  -23.6939  -47.3508 C.2       12 UNK         0.5000 
     73 O          -4.0516  -24.3621  -48.1987 O.2       12 UNK        -0.5000 
     74 N          -3.2504  -24.1029  -46.0939 N.am      13 UNK        -0.5000 
     75 CA         -3.6349  -25.4187  -45.5846 C.3       13 UNK         0.1400 
     76 CB         -3.4425  -25.4543  -44.0609 C.3       13 UNK        -0.1800 
     77 C          -2.8641  -26.5685  -46.2609 C.2       13 UNK         0.5000 
     78 O          -3.4618  -27.6010  -46.5659 O.2       13 UNK        -0.5000 
     79 N          -1.5600  -26.3668  -46.4911 N.am      14 UNK        -0.5000 
     80 CA         -0.6732  -27.3428  -47.1212 C.3       14 UNK         0.1400 
     81 CB          0.7862  -26.9714  -46.8133 C.3       14 UNK        -0.1800 
     82 C          -0.8921  -27.4657  -48.6404 C.2       14 UNK         0.5000 
     83 O          -0.9756  -28.5820  -49.1539 O.2       14 UNK        -0.5000 
     84 N          -0.9553  -26.3219  -49.3330 N.am      15 UNK        -0.5000 
     85 CA         -0.9485  -26.2321  -50.7951 C.3       15 UNK         0.1400 
     86 CB         -0.1134  -25.0058  -51.2009 C.3       15 UNK        -0.1800 
     87 C          -2.3524  -26.1636  -51.4260 C.2       15 UNK         0.5000 
     88 O          -2.4408  -26.0670  -52.6496 O.2       15 UNK        -0.5000 
     89 N          -3.4122  -26.1894  -50.6034 N.am      16 UNK        -0.5000 
     90 CA         -4.8260  -26.0413  -50.9770 C.3       16 UNK         0.1400 
     91 CB         -5.2990  -27.2053  -51.8731 C.3       16 UNK        -0.1800 
     92 C          -5.0993  -24.6512  -51.5859 C.2       16 UNK         0.5000 
     93 O          -5.5070  -24.5335  -52.7442 O.2       16 UNK        -0.5000 
     94 N          -4.8123  -23.6206  -50.7769 N.am      17 UNK        -0.5000 
     95 CA         -4.8960  -22.1884  -51.0853 C.3       17 UNK         0.1400 
     96 CB         -6.3654  -21.7448  -51.2092 C.3       17 UNK        -0.1800 
     97 C          -4.0264  -21.7955  -52.2952 C.2       17 UNK         0.5000 
     98 O          -4.4636  -21.0270  -53.1497 O.2       17 UNK        -0.5000 
     99 N          -2.8196  -22.3774  -52.3597 N.am      18 UNK        -0.5000 
    100 CA        -1.8144  -22.3058  -53.4301 C.3       18 UNK         0.1400 
    101 CB        -1.3412  -20.8601  -53.6760 C.3       18 UNK        -0.1800 
    102 C         -2.2542  -22.9828  -54.7445 C.2       18 UNK         0.5000 
    103 O         -1.5033  -23.7926  -55.2889 O.2       18 UNK        -0.5000 
    104 N         -3.4552  -22.6447  -55.2204 N.am      19 UNK        -0.5000 
    105 CA        -4.1034  -23.1685  -56.4169 C.3       19 UNK         0.1400 
    106 CB        -3.4015  -22.6448  -57.6884 C.3       19 UNK        -0.1800 
    107 C         -5.5947  -22.7980  -56.3608 C.2       19 UNK         0.5000 
    108 O         -6.0959  -22.1210  -57.2590 O.2       19 UNK        -0.5000 
    109 N         -6.2656  -23.1909  -55.2675 N.am      20 UNK        -0.5000 
    110 CA        -7.6721  -22.9371  -54.9128 C.3       20 UNK         0.1400 
    111 CB        -8.6408  -23.4454  -55.9986 C.3       20 UNK        -0.1800 
    112 C         -7.9914  -21.4817  -54.5065 C.2       20 UNK         0.5000 
    113 O         -8.9264  -21.2718  -53.7326 O.2       20 UNK        -0.5000 
    114 N         -7.2030  -20.5137  -54.9791 N.am      21 UNK        -0.5000 
    115 CA        -7.1909  -19.1248  -54.5429 C.3       21 UNK         0.1400 
    116 CB        -8.2575  -18.3141  -55.2987 C.3       21 UNK        -0.1800 
    117 C         -5.7801  -18.5791  -54.7952 C.2       21 UNK         0.5000 
    118 O         -5.2620  -18.7386  -55.9034 O.2       21 UNK        -0.5000 
    119 N         -5.1814  -17.9655  -53.7692 N.am      22 UNK        -0.5000 
    120 CA        -3.8054  -17.4425  -53.8009 C.3       22 UNK         0.1400 
    121 C         -3.6826  -15.9649  -54.2765 C.2       22 UNK         0.5000 
    122 N         -4.7743  -15.2597  -54.5486 N.am      22 UNK        -0.7600 
    123 O         -2.5757  -15.4544  -54.4254 O.2       22 UNK        -0.5000 
    124 C124       -3.0634  -17.7061  -52.4649 C.3       23 UNK        -0.0398 
    125 S125       -3.8308  -16.9358  -50.9956 S.3       23 UNK        -0.2404 
    126 C126       -3.2741  -18.0560  -49.6679 C.3       23 UNK        -0.0205 
    127 H127       -0.7043  -11.9555  -44.8341 H         1 UNK         0.0600 
    128 H128        0.3127  -13.3718  -45.0780 H         1 UNK         0.0600 
    129 H129       -1.2403  -13.2422  -45.9205 H         1 UNK         0.0600 
    130 H130        1.0337  -13.7680  -47.4204 H         1 UNK         0.3000 
    131 H131        1.0264  -11.8108  -49.4108 H         1 UNK         0.0600 
    132 H132        2.8843  -13.1205  -50.4532 H         1 UNK         0.0800 
    133 H133        3.1063  -14.0228  -48.9801 H         1 UNK         0.0800 
    134 H134        1.1373  -15.7450  -48.0083 H         1 UNK         0.0800 
    135 H135        2.3962  -16.3649  -49.0483 H         1 UNK         0.0800 
    136 H136       -1.3843  -16.1708  -49.1021 H         1 UNK         0.1150 
    137 H137       -1.8085  -20.3037  -50.1476 H         1 UNK         0.1150 
    138 H138        2.0968  -18.6022  -49.6926 H         1 UNK         0.1150 
    139 H139        0.0549  -21.7458  -50.2070 H         1 UNK         0.0800 
    140 H140        1.2070  -20.9643  -51.2554 H         1 UNK         0.0800 
    141 H141        0.7729  -20.3325  -47.4561 H         1 UNK         0.0800 
    142 H142        2.3082  -20.8273  -46.8294 H         1 UNK         0.0800 
    143 H143        1.5396  -23.2492  -46.9019 H         1 UNK         0.0600 
    144 H144        0.8421  -21.2934  -44.9928 H         1 UNK         0.3000 
    145 H145       -0.7078  -23.4442  -42.5826 H         1 UNK         0.0600 
    146 H146        1.0076  -22.3044  -41.2058 H         1 UNK         0.0600 
    147 H147        1.7629  -23.5127  -42.2345 H         1 UNK         0.0600 
    148 H148        1.8836  -21.8077  -42.6510 H         1 UNK         0.0600 
    149 H149       -0.3271  -20.6277  -42.6003 H         1 UNK         0.3000 
    150 H150       -3.4414  -19.7778  -44.1987 H         1 UNK         0.0600 
    151 H151       -3.8790  -20.1800  -41.7679 H         1 UNK         0.0600 
    152 H152       -3.6323  -18.4751  -42.1124 H         1 UNK         0.0600 
    153 H153       -2.3468  -19.4168  -41.3605 H         1 UNK         0.0600 
    154 H154       -1.3777  -18.0978  -43.2471 H         1 UNK         0.3000 
    155 H155        0.5656  -17.9972  -46.2847 H         1 UNK         0.0600 
    156 H156       -1.1664  -15.9718  -44.7727 H         1 UNK         0.0600 
    157 H157       -1.2619  -16.3303  -46.4904 H         1 UNK         0.0600 
    158 H158        0.1882  -15.5865  -45.8301 H         1 UNK         0.0600 
    159 H159        1.0344  -16.7616  -43.7773 H         1 UNK         0.3000 
    160 H160        2.8586  -19.4231  -42.2258 H         1 UNK         0.0600 
    161 H161        3.6669  -16.6969  -43.3703 H         1 UNK         0.0600 
    162 H162        4.4948  -18.2239  -43.6275 H         1 UNK         0.0600 
    163 H163        4.4624  -17.5103  -42.0223 H         1 UNK         0.0600 
    164 H164        2.0124  -16.7621  -41.4594 H         1 UNK         0.3000 
    165 H165       -0.9576  -17.7981  -39.7729 H         1 UNK         0.0600 
    166 H166        0.1921  -16.7045  -37.8700 H         1 UNK         0.0600 
    167 H167        0.8935  -18.2869  -38.1678 H         1 UNK         0.0600 
    168 H168        1.7476  -16.8400  -38.6905 H         1 UNK         0.0600 
    169 H169        0.3625  -15.2675  -40.0219 H         1 UNK         0.3000 
    170 H170       -1.1749  -14.2503  -43.0638 H         1 UNK         0.0600 
    171 H171       -2.9661  -13.8874  -41.3584 H         1 UNK         0.0600 
    172 H172       -1.7588  -13.3527  -40.1945 H         1 UNK         0.0600 
    173 H173       -2.0529  -12.4178  -41.6610 H         1 UNK         0.0600 
    174 H174        0.3911  -12.6904  -41.3898 H         1 UNK         0.3000 
    175 H175        2.7804  -12.7889  -41.1810 H         1 UNK         0.0600 
    176 H176        4.1130  -14.0959  -43.6153 H         1 UNK         0.0600 
    177 H177        4.9250  -13.1347  -42.3815 H         1 UNK         0.0600 
    178 H178        4.2031  -14.6772  -41.9555 H         1 UNK         0.0600 
    179 H179        3.1877  -11.8652  -43.9038 H         1 UNK         0.3000 
    180 H180        0.8176   -9.5704  -44.1439 H         1 UNK         0.0600 
    181 H181        3.2897   -8.3413  -42.8196 H         1 UNK         0.0600 
    182 H182        1.6122   -8.0375  -42.4029 H         1 UNK         0.0600 
    183 H183        2.2301   -7.5108  -43.9594 H         1 UNK         0.0600 
    184 H184        2.0109  -10.0960  -45.8881 H         1 UNK         0.3000 
    185 H185        4.4169   -9.5161  -47.2628 H         1 UNK         0.0600 
    186 H186        6.5480  -10.3546  -46.3132 H         1 UNK         0.0600 
    187 H187        5.8562  -11.9578  -46.0833 H         1 UNK         0.0600 
    188 H188        6.1044  -11.3223  -47.7089 H         1 UNK         0.0600 
    189 H189        3.1563  -12.1476  -46.6572 H         1 UNK         0.3000 
    190 H190       -1.4561  -21.2451  -46.6292 H         1 UNK         0.3000 
    191 H191       -2.7891  -22.3176  -48.8372 H         1 UNK         0.0600 
    192 H192       -3.9611  -21.1423  -46.2606 H         1 UNK         0.0600 
    193 H193       -4.8354  -21.3417  -47.7728 H         1 UNK         0.0600 
    194 H194       -3.4781  -20.2280  -47.6834 H         1 UNK         0.0600 
    195 H195       -2.8092  -23.4658  -45.4363 H         1 UNK         0.3000 
    196 H196       -4.6967  -25.5621  -45.7954 H         1 UNK         0.0600 
    197 H197       -3.7375  -26.4212  -43.6516 H         1 UNK         0.0600 
    198 H198       -4.0497  -24.6937  -43.5700 H         1 UNK         0.0600 
    199 H199       -2.4026  -25.2817  -43.7818 H         1 UNK         0.0600 
    200 H200       -1.1366  -25.4991  -46.1806 H         1 UNK         0.3000 
    201 H201       -0.8688  -28.3211  -46.6769 H         1 UNK         0.0600 
    202 H202        0.9728  -26.9702  -45.7392 H         1 UNK         0.0600 
    203 H203        1.0407  -25.9819  -47.1954 H         1 UNK         0.0600 
    204 H204        1.4761  -27.6863  -47.2633 H         1 UNK         0.0600 
    205 H205       -0.8615  -25.4383  -48.8325 H         1 UNK         0.3000 
    206 H206       -0.4575  -27.1152  -51.2090 H         1 UNK         0.0600 
    207 H207        0.8798  -25.0372  -50.7523 H         1 UNK         0.0600 
    208 H208        0.0229  -24.9643  -52.2822 H         1 UNK         0.0600 
    209 H209       -0.5890  -24.0758  -50.8903 H         1 UNK         0.0600 
    210 H210       -3.2267  -26.2245  -49.6098 H         1 UNK         0.3000 
    211 H211       -5.3978  -26.0936  -50.0492 H         1 UNK         0.0600 
    212 H212       -4.8075  -27.2032  -52.8462 H         1 UNK         0.0600 
    213 H213       -6.3725  -27.1415  -52.0537 H         1 UNK         0.0600 
    214 H214       -5.1049  -28.1686  -51.4015 H         1 UNK         0.0600 
    215 H215       -4.5036  -23.8580  -49.8348 H         1 UNK         0.3000 
    216 H216       -4.4755  -21.6505  -50.2374 H         1 UNK         0.0600 
    217 H217       -6.4440  -20.6800  -51.4321 H         1 UNK         0.0600 
    218 H218       -6.9055  -21.9210  -50.2792 H         1 UNK         0.0600 
    219 H219       -6.8822  -22.2877  -51.9979 H         1 UNK         0.0600 
    220 H220       -2.6103  -23.0485  -51.6361 H         1 UNK         0.3000 
    221 H221       -0.9532  -22.8646  -53.0638 H         1 UNK         0.0600 
    222 H222       -2.1258  -20.2413  -54.1109 H         1 UNK         0.0600 
    223 H223       -1.0109  -20.3872  -52.7520 H         1 UNK         0.0600 
    224 H224       -0.4987  -20.8432  -54.3681 H         1 UNK         0.0600 
    225 H225       -3.9959  -21.9763  -54.6743 H         1 UNK         0.3000 
    226 H226       -4.0393  -24.2583  -56.4032 H         1 UNK         0.0600 
    227 H227       -2.3657  -22.9787  -57.7427 H         1 UNK         0.0600 
    228 H228       -3.9007  -23.0069  -58.5880 H         1 UNK         0.0600 
    229 H229       -3.4037  -21.5547  -57.7250 H         1 UNK         0.0600 
    230 H230       -5.7556  -23.7022  -54.5513 H         1 UNK         0.3000 
    231 H231       -7.8486  -23.5408  -54.0213 H         1 UNK         0.0600 
    232 H232       -8.4369  -24.4850  -56.2549 H         1 UNK         0.0600 
    233 H233       -8.5807  -22.8538  -56.9122 H         1 UNK         0.0600 
    234 H234       -9.6727  -23.3933  -55.6497 H         1 UNK         0.0600 
    235 H235       -6.4752  -20.7596  -55.6405 H         1 UNK         0.3000 
    236 H236       -7.4003  -19.0846  -53.4717 H         1 UNK         0.0600 
    237 H237       -8.2403  -17.2674  -54.9932 H         1 UNK         0.0600 
    238 H238       -8.0963  -18.3464  -56.3769 H         1 UNK         0.0600 
    239 H239       -9.2591  -18.6949  -55.0988 H         1 UNK         0.0600 
    240 H240       -5.6638  -17.8709  -52.8876 H         1 UNK         0.3000 
    241 H241       -3.2545  -18.0099  -54.5533 H         1 UNK         0.0600 
    242 H242       -4.6849  -14.3066  -54.8644 H         1 UNK         0.3800 
    243 H243       -5.6879  -15.6686  -54.4380 H         1 UNK         0.3800 
    244 H244       -3.0172  -18.7823  -52.2986 H         1 UNK         0.0800 
    245 H245       -2.0252  -17.3754  -52.5284 H         1 UNK         0.0800 
    246 H246       -3.7654  -19.0211  -49.7980 H         1 UNK         0.0800 
    247 H247       -3.6105  -17.6659  -48.7064 H         1 UNK         0.0800 
@<TRIPOS>BOND
     1    1    2 1    
     2    1  127 1    
     3    1  128 1    
     4    1  129 1    
     5    2    3 2    
     6    2    4 am   BACKBONE|DICT|INTERRES
     7    4    5 1    
     8    4  130 1    
     9    5    6 1    
    10    5   65 1    
    11    5  131 1    
    12    6    7 1    
    13    6  132 1    
    14    6  133 1    
    15    7    8 1    
    16    8    9 1    
    17    8  134 1    
    18    8  135 1    
    19    9   10 ar   
    20    9   14 ar   
    21   10   11 ar   
    22   10  136 1    
    23   11   12 ar   
    24   11  126 1    
    25   12   13 ar   
    26   12  137 1    
    27   13   14 ar   
    28   13   15 1    
    29   14  138 1    
    30   15   16 1    
    31   15  139 1    
    32   15  140 1    
    33   16   17 1    
    34   17   18 1    
    35   17  141 1    
    36   17  142 1    
    37   18   19 1    
    38   18   67 1    
    39   18  143 1    
    40   19   20 am   BACKBONE|DICT|INTERRES
    41   19  144 1    
    42   20   21 2    
    43   20   22 1    
    44   22   23 1    
    45   22   24 1    
    46   22  145 1    
    47   23  146 1    
    48   23  147 1    
    49   23  148 1    
    50   24   25 am   BACKBONE|DICT|INTERRES
    51   24  149 1    
    52   25   26 2    
    53   25   27 1    
    54   27   28 1    
    55   27   29 1    
    56   27  150 1    
    57   28  151 1    
    58   28  152 1    
    59   28  153 1    
    60   29   30 am   BACKBONE|DICT|INTERRES
    61   29  154 1    
    62   30   31 2    
    63   30   32 1    
    64   32   33 1    
    65   32   34 1    
    66   32  155 1    
    67   33  156 1    
    68   33  157 1    
    69   33  158 1    
    70   34   35 am   BACKBONE|DICT|INTERRES
    71   34  159 1    
    72   35   36 2    
    73   35   37 1    
    74   37   38 1    
    75   37   39 1    
    76   37  160 1    
    77   38  161 1    
    78   38  162 1    
    79   38  163 1    
    80   39   40 am   BACKBONE|DICT|INTERRES
    81   39  164 1    
    82   40   41 2    
    83   40   42 1    
    84   42   43 1    
    85   42   44 1    
    86   42  165 1    
    87   43  166 1    
    88   43  167 1    
    89   43  168 1    
    90   44   45 am   BACKBONE|DICT|INTERRES
    91   44  169 1    
    92   45   46 2    
    93   45   47 1    
    94   47   48 1    
    95   47   49 1    
    96   47  170 1    
    97   48  171 1    
    98   48  172 1    
    99   48  173 1    
   100   49   50 am   BACKBONE|DICT|INTERRES
   101   49  174 1    
   102   50   51 2    
   103   50   52 1    
   104   52   53 1    
   105   52   54 1    
   106   52  175 1    
   107   53  176 1    
   108   53  177 1    
   109   53  178 1    
   110   54   55 am   BACKBONE|DICT|INTERRES
   111   54  179 1    
   112   55   56 2    
   113   55   57 1    
   114   57   58 1    
   115   57   59 1    
   116   57  180 1    
   117   58  181 1    
   118   58  182 1    
   119   58  183 1    
   120   59   60 am   BACKBONE|DICT|INTERRES
   121   59  184 1    
   122   60   61 2    
   123   60   62 1    
   124   62   63 1    
   125   62   64 1    
   126   62  185 1    
   127   63  186 1    
   128   63  187 1    
   129   63  188 1    
   130   64   65 am   BACKBONE|DICT|INTERRES
   131   64  189 1    
   132   65   66 2    
   133   67   68 2    
   134   67   69 am   BACKBONE|DICT|INTERRES
   135   69   70 1    
   136   69  190 1    
   137   70   71 1    
   138   70   72 1    
   139   70  191 1    
   140   71  192 1    
   141   71  193 1    
   142   71  194 1    
   143   72   73 2    
   144   72   74 am   BACKBONE|DICT|INTERRES
   145   74   75 1    
   146   74  195 1    
   147   75   76 1    
   148   75   77 1    
   149   75  196 1    
   150   76  197 1    
   151   76  198 1    
   152   76  199 1    
   153   77   78 2    
   154   77   79 am   BACKBONE|DICT|INTERRES
   155   79   80 1    
   156   79  200 1    
   157   80   81 1    
   158   80   82 1    
   159   80  201 1    
   160   81  202 1    
   161   81  203 1    
   162   81  204 1    
   163   82   83 2    
   164   82   84 am   BACKBONE|DICT|INTERRES
   165   84   85 1    
   166   84  205 1    
   167   85   86 1    
   168   85   87 1    
   169   85  206 1    
   170   86  207 1    
   171   86  208 1    
   172   86  209 1    
   173   87   88 2    
   174   87   89 am   BACKBONE|DICT|INTERRES
   175   89   90 1    
   176   89  210 1    
   177   90   91 1    
   178   90   92 1    
   179   90  211 1    
   180   91  212 1    
   181   91  213 1    
   182   91  214 1    
   183   92   93 2    
   184   92   94 am   BACKBONE|DICT|INTERRES
   185   94   95 1    
   186   94  215 1    
   187   95   96 1    
   188   95   97 1    
   189   95  216 1    
   190   96  217 1    
   191   96  218 1    
   192   96  219 1    
   193   97   98 2    
   194   97   99 am   BACKBONE|DICT|INTERRES
   195   99  100 1    
   196   99  220 1    
   197  100  101 1    
   198  100  102 1    
   199  100  221 1    
   200  101  222 1    
   201  101  223 1    
   202  101  224 1    
   203  102  103 2    
   204  102  104 am   BACKBONE|DICT|INTERRES
   205  104  105 1    
   206  104  225 1    
   207  105  106 1    
   208  105  107 1    
   209  105  226 1    
   210  106  227 1    
   211  106  228 1    
   212  106  229 1    
   213  107  108 2    
   214  107  109 am   BACKBONE|DICT|INTERRES
   215  109  110 1    
   216  109  230 1    
   217  110  111 1    
   218  110  112 1    
   219  110  231 1    
   220  111  232 1    
   221  111  233 1    
   222  111  234 1    
   223  112  113 2    
   224  112  114 am   BACKBONE|DICT|INTERRES
   225  114  115 1    
   226  114  235 1    
   227  115  116 1    
   228  115  117 1    
   229  115  236 1    
   230  116  237 1    
   231  116  238 1    
   232  116  239 1    
   233  117  118 2    
   234  117  119 am   BACKBONE|DICT|INTERRES
   235  119  120 1    
   236  119  240 1    
   237  120  121 1    
   238  120  124 1    
   239  120  241 1    
   240  121  122 am   BACKBONE|DICT|INTERRES
   241  121  123 2    
   242  122  242 1    
   243  122  243 1    
   244  124  125 1    
   245  124  244 1    
   246  124  245 1    
   247  125  126 1    
   248  126  246 1    
   249  126  247 1    
@<TRIPOS>SUBSTRUCTURE
     1 UNK         1 GROUP             0       ****    0 ROOT    
