@<TRIPOS>MOLECULE
3R540
247   249    1
SMALL
USER_CHARGES


@<TRIPOS>ATOM
      1 CA          7.2887  -11.1551  -48.0484 C.3       0 UNK        -0.1800 
      2 C           7.2631  -12.6698  -48.1962 C.2       0 UNK         0.5000 
      3 O           7.9992  -13.3658  -47.4971 O.2       0 UNK        -0.5000 
      4 N           6.4158  -13.1819  -49.0997 N.am      1 UNK        -0.5000 
      5 CA          6.2342  -14.6167  -49.3678 C.3       1 UNK         0.1400 
      6 C6          5.4896  -14.8393  -50.7090 C.3       23 UNK        -0.0398 
      7 S7          5.9110  -16.4289  -51.4974 S.3       23 UNK        -0.2404 
      8 C8          4.4280  -16.7383  -52.5068 C.3       23 UNK        -0.0205 
      9 C9          3.2678  -17.2724  -51.6792 C.ar      23 UNK        -0.0193 
     10 C10         2.2017  -16.4400  -51.3255 C.ar      23 UNK        -0.1150 
     11 C11         1.1207  -16.9377  -50.5909 C.ar      23 UNK        -0.0193 
     12 C12         1.1165  -18.2852  -50.2106 C.ar      23 UNK        -0.1150 
     13 C13         2.1756  -19.1282  -50.5588 C.ar      23 UNK        -0.0193 
     14 C14         3.2489  -18.6144  -51.2909 C.ar      23 UNK        -0.1150 
     15 C15         2.1446  -20.6037  -50.1906 C.3       23 UNK        -0.0205 
     16 S16         2.9013  -20.9486  -48.5657 S.3       23 UNK        -0.2404 
     17 C17         1.5671  -20.5282  -47.3886 C.3       23 UNK        -0.0398 
     18 CA          0.6855  -21.7394  -46.9868 C.3       11 UNK         0.1400 
     19 N          -0.1233  -21.4628  -45.7966 N.am      11 UNK        -0.5000 
     20 C          -0.9121  -22.3514  -45.1734 C.2       10 UNK         0.5000 
     21 O          -1.0124  -23.5323  -45.5038 O.2       10 UNK        -0.5000 
     22 CA         -1.7741  -21.8250  -44.0137 C.3       10 UNK         0.1400 
     23 CB         -0.9352  -21.6658  -42.7372 C.3       10 UNK        -0.1800 
     24 N          -2.4437  -20.5641  -44.3339 N.am      10 UNK        -0.5000 
     25 C          -3.3492  -20.4148  -45.3124 C.2       9 UNK         0.5000 
     26 O          -3.7371  -21.3319  -46.0361 O.2       9 UNK        -0.5000 
     27 CA         -3.8818  -18.9930  -45.5556 C.3       9 UNK         0.1400 
     28 CB         -4.9360  -18.6171  -44.5044 C.3       9 UNK        -0.1800 
     29 N          -2.8240  -17.9849  -45.5768 N.am      9 UNK        -0.5000 
     30 C          -1.8065  -17.9690  -46.4500 C.2       8 UNK         0.5000 
     31 O          -1.6508  -18.8003  -47.3449 O.2       8 UNK        -0.5000 
     32 CA         -0.7445  -16.8784  -46.2380 C.3       8 UNK         0.1400 
     33 CB         -1.2759  -15.4912  -46.6309 C.3       8 UNK        -0.1800 
     34 N          -0.2707  -16.8322  -44.8565 N.am      8 UNK        -0.5000 
     35 C           0.3173  -17.8433  -44.2028 C.2       7 UNK         0.5000 
     36 O           0.5737  -18.9345  -44.7076 O.2       7 UNK        -0.5000 
     37 CA          0.6344  -17.6053  -42.7190 C.3       7 UNK         0.1400 
     38 CB          1.9282  -16.7917  -42.5627 C.3       7 UNK        -0.1800 
     39 N          -0.4667  -16.9330  -42.0288 N.am      7 UNK        -0.5000 
     40 C          -1.6693  -17.4847  -41.8080 C.2       6 UNK         0.5000 
     41 O          -1.9703  -18.6314  -42.1380 O.2       6 UNK        -0.5000 
     42 CA         -2.7263  -16.5855  -41.1438 C.3       6 UNK         0.1400 
     43 CB         -2.5164  -16.5286  -39.6233 C.3       6 UNK        -0.1800 
     44 N          -2.7211  -15.2278  -41.6885 N.am      6 UNK        -0.5000 
     45 C          -3.0748  -14.9179  -42.9436 C.2       5 UNK         0.5000 
     46 O          -3.4734  -15.7417  -43.7668 O.2       5 UNK        -0.5000 
     47 CA         -2.9122  -13.4446  -43.3595 C.3       5 UNK         0.1400 
     48 CB         -4.1474  -12.6282  -42.9512 C.3       5 UNK        -0.1800 
     49 N          -1.7072  -12.8131  -42.8120 N.am      5 UNK        -0.5000 
     50 C          -0.4555  -13.2056  -43.0819 C.2       4 UNK         0.5000 
     51 O          -0.1797  -14.1892  -43.7718 O.2       4 UNK        -0.5000 
     52 CA          0.6788  -12.3880  -42.4450 C.3       4 UNK         0.1400 
     53 CB          1.1941  -13.0769  -41.1725 C.3       4 UNK        -0.1800 
     54 N           1.7837  -12.2298  -43.3873 N.am      4 UNK        -0.5000 
     55 C           1.7832  -11.3858  -44.4243 C.2       3 UNK         0.5000 
     56 O           0.8747  -10.5843  -44.6476 O.2       3 UNK        -0.5000 
     57 CA          2.9918  -11.4382  -45.3787 C.3       3 UNK         0.1400 
     58 CB          4.2500  -10.8258  -44.7326 C.3       3 UNK        -0.1800 
     59 N           3.2685  -12.7644  -45.9487 N.am      3 UNK        -0.5000 
     60 C           3.7030  -13.8763  -45.3327 C.2       2 UNK         0.5000 
     61 O           3.8952  -13.9679  -44.1200 O.2       2 UNK        -0.5000 
     62 CA          4.0206  -15.0733  -46.2409 C.3       2 UNK         0.1400 
     63 CB          2.7493  -15.8547  -46.6087 C.3       2 UNK        -0.1800 
     64 N           4.7079  -14.6154  -47.4461 N.am      2 UNK        -0.5000 
     65 C           5.5356  -15.3508  -48.1982 C.2       1 UNK         0.5000 
     66 O           5.7783  -16.5394  -47.9855 O.2       1 UNK        -0.5000 
     67 C          -0.1947  -22.2113  -48.1586 C.2       11 UNK         0.5000 
     68 O           0.0822  -23.2615  -48.7386 O.2       11 UNK        -0.5000 
     69 N          -1.2492  -21.4412  -48.4643 N.am      12 UNK        -0.5000 
     70 CA         -2.2060  -21.7338  -49.5285 C.3       12 UNK         0.1400 
     71 CB         -3.2246  -20.5935  -49.6343 C.3       12 UNK        -0.1800 
     72 C          -2.9152  -23.0827  -49.3368 C.2       12 UNK         0.5000 
     73 O          -2.9620  -23.8737  -50.2774 O.2       12 UNK        -0.5000 
     74 N          -3.4020  -23.3386  -48.1140 N.am      13 UNK        -0.5000 
     75 CA         -4.0504  -24.5901  -47.7261 C.3       13 UNK         0.1400 
     76 CB         -4.6429  -24.4469  -46.3167 C.3       13 UNK        -0.1800 
     77 C          -3.1107  -25.8077  -47.8000 C.2       13 UNK         0.5000 
     78 O          -3.5282  -26.8573  -48.2895 O.2       13 UNK        -0.5000 
     79 N          -1.8607  -25.6465  -47.3406 N.am      14 UNK        -0.5000 
     80 CA         -0.8229  -26.6796  -47.3852 C.3       14 UNK         0.1400 
     81 CB          0.3813  -26.2442  -46.5364 C.3       14 UNK        -0.1800 
     82 C          -0.3798  -27.0188  -48.8195 C.2       14 UNK         0.5000 
     83 O          -0.1909  -28.1942  -49.1357 O.2       14 UNK        -0.5000 
     84 N          -0.2430  -25.9888  -49.6648 N.am      15 UNK        -0.5000 
     85 CA          0.0823  -26.1185  -51.0858 C.3       15 UNK         0.1400 
     86 CB          0.5520  -24.7520  -51.6104 C.3       15 UNK        -0.1800 
     87 C          -1.0952  -26.6346  -51.9366 C.2       15 UNK         0.5000 
     88 O          -0.8627  -27.1334  -53.0384 O.2       15 UNK        -0.5000 
     89 N          -2.3257  -26.4728  -51.4254 N.am      16 UNK        -0.5000 
     90 CA         -3.6119  -26.6481  -52.1085 C.3       16 UNK         0.1400 
     91 CB         -3.8549  -28.1263  -52.4759 C.3       16 UNK        -0.1800 
     92 C          -3.7395  -25.6827  -53.3058 C.2       16 UNK         0.5000 
     93 O          -4.1583  -26.0793  -54.3951 O.2       16 UNK        -0.5000 
     94 N          -3.3336  -24.4306  -53.0752 N.am      17 UNK        -0.5000 
     95 CA         -3.2051  -23.3756  -54.0699 C.3       17 UNK         0.1400 
     96 CB         -1.7763  -23.4060  -54.6473 C.3       17 UNK        -0.1800 
     97 C          -3.5521  -22.0339  -53.3997 C.2       17 UNK         0.5000 
     98 O          -2.6418  -21.2726  -53.0747 O.2       17 UNK        -0.5000 
     99 N          -4.8305  -21.7237  -53.1529 N.am      18 UNK        -0.5000 
    100 CA        -6.0368  -22.5166  -53.3834 C.3       18 UNK         0.1400 
    101 CB        -6.9850  -21.7026  -54.2862 C.3       18 UNK        -0.1800 
    102 C         -6.6492  -22.9032  -52.0228 C.2       18 UNK         0.5000 
    103 O         -5.9203  -23.3421  -51.1314 O.2       18 UNK        -0.5000 
    104 N         -7.9715  -22.7555  -51.8734 N.am      19 UNK        -0.5000 
    105 CA        -8.7435  -23.0952  -50.6764 C.3       19 UNK         0.1400 
    106 CB       -10.2234  -23.2408  -51.0739 C.3       19 UNK        -0.1800 
    107 C         -8.5329  -22.0737  -49.5386 C.2       19 UNK         0.5000 
    108 O         -9.4424  -21.3068  -49.2172 O.2       19 UNK        -0.5000 
    109 N         -7.3188  -22.0765  -48.9716 N.am      20 UNK        -0.5000 
    110 CA        -6.8383  -21.2185  -47.8811 C.3       20 UNK         0.1400 
    111 CB        -7.6097  -21.4969  -46.5744 C.3       20 UNK        -0.1800 
    112 C         -6.7930  -19.7182  -48.2479 C.2       20 UNK         0.5000 
    113 O         -6.9226  -18.8603  -47.3739 O.2       20 UNK        -0.5000 
    114 N         -6.5795  -19.4321  -49.5350 N.am      21 UNK        -0.5000 
    115 CA        -6.3446  -18.1103  -50.1000 C.3       21 UNK         0.1400 
    116 CB        -7.6752  -17.4880  -50.5508 C.3       21 UNK        -0.1800 
    117 C         -5.3877  -18.3033  -51.2805 C.2       21 UNK         0.5000 
    118 O         -5.5166  -19.2993  -51.9944 O.2       21 UNK        -0.5000 
    119 N         -4.4361  -17.3815  -51.4497 N.am      22 UNK        -0.5000 
    120 CA        -3.3001  -17.5114  -52.3845 C.3       22 UNK         0.1400 
    121 C         -3.6496  -17.3368  -53.8934 C.2       22 UNK         0.5000 
    122 N         -4.8762  -16.9863  -54.2595 N.am      22 UNK        -0.7600 
    123 O         -2.7899  -17.5201  -54.7505 O.2       22 UNK        -0.5000 
    124 C124       -2.1148  -16.5906  -51.9826 C.3       23 UNK        -0.0398 
    125 S125       -1.6678  -16.7386  -50.2200 S.3       23 UNK        -0.2404 
    126 C126       -0.0034  -15.9927  -50.1767 C.3       23 UNK        -0.0205 
    127 H127        7.0936  -10.8755  -47.0132 H         1 UNK         0.0600 
    128 H128        6.5399  -10.6727  -48.6771 H         1 UNK         0.0600 
    129 H129        8.2686  -10.7680  -48.3276 H         1 UNK         0.0600 
    130 H130        5.8517  -12.5536  -49.6547 H         1 UNK         0.3000 
    131 H131        7.2356  -15.0437  -49.4595 H         1 UNK         0.0600 
    132 H132        4.4102  -14.7506  -50.5784 H         1 UNK         0.0800 
    133 H133        5.7659  -14.0639  -51.4250 H         1 UNK         0.0800 
    134 H134        4.6784  -17.4659  -53.2802 H         1 UNK         0.0800 
    135 H135        4.1440  -15.8255  -53.0329 H         1 UNK         0.0800 
    136 H136        2.2146  -15.4007  -51.6224 H         1 UNK         0.1150 
    137 H137        0.2822  -18.6806  -49.6490 H         1 UNK         0.1150 
    138 H138        4.0691  -19.2619  -51.5680 H         1 UNK         0.1150 
    139 H139        1.1210  -20.9730  -50.2321 H         1 UNK         0.0800 
    140 H140        2.6880  -21.1753  -50.9444 H         1 UNK         0.0800 
    141 H141        0.9651  -19.7013  -47.7626 H         1 UNK         0.0800 
    142 H142        2.0667  -20.1411  -46.5002 H         1 UNK         0.0800 
    143 H143        1.3488  -22.5660  -46.7232 H         1 UNK         0.0600 
    144 H144       -0.0758  -20.5129  -45.4344 H         1 UNK         0.3000 
    145 H145       -2.5494  -22.5682  -43.8166 H         1 UNK         0.0600 
    146 H146       -0.4311  -22.5986  -42.4817 H         1 UNK         0.0600 
    147 H147       -0.1696  -20.8981  -42.8506 H         1 UNK         0.0600 
    148 H148       -1.5605  -21.3914  -41.8876 H         1 UNK         0.0600 
    149 H149       -2.1991  -19.7631  -43.7596 H         1 UNK         0.3000 
    150 H150       -4.3574  -18.9839  -46.5373 H         1 UNK         0.0600 
    151 H151       -5.7356  -19.3576  -44.4696 H         1 UNK         0.0600 
    152 H152       -5.3954  -17.6562  -44.7373 H         1 UNK         0.0600 
    153 H153       -4.5039  -18.5487  -43.5055 H         1 UNK         0.0600 
    154 H154       -2.8846  -17.2505  -44.8774 H         1 UNK         0.3000 
    155 H155        0.1043  -17.1180  -46.8812 H         1 UNK         0.0600 
    156 H156       -2.0603  -15.1544  -45.9553 H         1 UNK         0.0600 
    157 H157       -0.4805  -14.7460  -46.6136 H         1 UNK         0.0600 
    158 H158       -1.7011  -15.4943  -47.6328 H         1 UNK         0.0600 
    159 H159       -0.3914  -15.9470  -44.3699 H         1 UNK         0.3000 
    160 H160        0.7855  -18.5783  -42.2469 H         1 UNK         0.0600 
    161 H161        1.8537  -15.8136  -43.0385 H         1 UNK         0.0600 
    162 H162        2.7701  -17.3106  -43.0225 H         1 UNK         0.0600 
    163 H163        2.1756  -16.6384  -41.5123 H         1 UNK         0.0600 
    164 H164       -0.3223  -15.9681  -41.7740 H         1 UNK         0.3000 
    165 H165       -3.7070  -17.0259  -41.3368 H         1 UNK         0.0600 
    166 H166       -3.3073  -15.9566  -39.1378 H         1 UNK         0.0600 
    167 H167       -2.5286  -17.5299  -39.1907 H         1 UNK         0.0600 
    168 H168       -1.5617  -16.0699  -39.3628 H         1 UNK         0.0600 
    169 H169       -2.4050  -14.4882  -41.0791 H         1 UNK         0.3000 
    170 H170       -2.8340  -13.4166  -44.4480 H         1 UNK         0.0600 
    171 H171       -5.0580  -13.0670  -43.3617 H         1 UNK         0.0600 
    172 H172       -4.2634  -12.5852  -41.8676 H         1 UNK         0.0600 
    173 H173       -4.0853  -11.6056  -43.3237 H         1 UNK         0.0600 
    174 H174       -1.8515  -12.0012  -42.2289 H         1 UNK         0.3000 
    175 H175        0.3006  -11.3998  -42.1747 H         1 UNK         0.0600 
    176 H176        1.6170  -14.0583  -41.3860 H         1 UNK         0.0600 
    177 H177        1.9683  -12.4798  -40.6902 H         1 UNK         0.0600 
    178 H178        0.3912  -13.2141  -40.4472 H         1 UNK         0.0600 
    179 H179        2.5396  -12.9072  -43.3375 H         1 UNK         0.3000 
    180 H180        2.7356  -10.8070  -46.2313 H         1 UNK         0.0600 
    181 H181        4.5822  -11.3909  -43.8615 H         1 UNK         0.0600 
    182 H182        4.0578   -9.8044  -44.4018 H         1 UNK         0.0600 
    183 H183        5.0768  -10.7870  -45.4415 H         1 UNK         0.0600 
    184 H184        3.0524  -12.8386  -46.9320 H         1 UNK         0.3000 
    185 H185        4.6882  -15.7342  -45.6836 H         1 UNK         0.0600 
    186 H186        2.2436  -16.1936  -45.7067 H         1 UNK         0.0600 
    187 H187        2.0461  -15.2443  -47.1759 H         1 UNK         0.0600 
    188 H188        2.9799  -16.7394  -47.2028 H         1 UNK         0.0600 
    189 H189        4.6481  -13.6278  -47.6451 H         1 UNK         0.3000 
    190 H190       -1.4065  -20.5825  -47.9411 H         1 UNK         0.3000 
    191 H191       -1.6519  -21.7830  -50.4681 H         1 UNK         0.0600 
    192 H192       -3.7303  -20.4117  -48.6864 H         1 UNK         0.0600 
    193 H193       -3.9852  -20.8282  -50.3786 H         1 UNK         0.0600 
    194 H194       -2.7425  -19.6646  -49.9386 H         1 UNK         0.0600 
    195 H195       -3.3236  -22.6268  -47.3920 H         1 UNK         0.3000 
    196 H196       -4.8724  -24.7636  -48.4240 H         1 UNK         0.0600 
    197 H197       -5.1463  -25.3637  -46.0078 H         1 UNK         0.0600 
    198 H198       -5.3779  -23.6436  -46.2775 H         1 UNK         0.0600 
    199 H199       -3.8714  -24.2282  -45.5774 H         1 UNK         0.0600 
    200 H200       -1.5995  -24.7620  -46.9133 H         1 UNK         0.3000 
    201 H201       -1.2358  -27.5886  -46.9428 H         1 UNK         0.0600 
    202 H202        0.0956  -26.0981  -45.4946 H         1 UNK         0.0600 
    203 H203        0.8127  -25.3104  -46.8990 H         1 UNK         0.0600 
    204 H204        1.1676  -26.9998  -46.5546 H         1 UNK         0.0600 
    205 H205       -0.3545  -25.0420  -49.3095 H         1 UNK         0.3000 
    206 H206        0.9054  -26.8283  -51.1912 H         1 UNK         0.0600 
    207 H207        1.4242  -24.3964  -51.0615 H         1 UNK         0.0600 
    208 H208        0.8307  -24.8097  -52.6633 H         1 UNK         0.0600 
    209 H209       -0.2307  -23.9976  -51.5176 H         1 UNK         0.0600 
    210 H210       -2.3858  -25.9979  -50.5333 H         1 UNK         0.3000 
    211 H211       -4.3803  -26.3527  -51.3922 H         1 UNK         0.0600 
    212 H212       -3.1585  -28.4781  -53.2375 H         1 UNK         0.0600 
    213 H213       -4.8633  -28.2684  -52.8660 H         1 UNK         0.0600 
    214 H214       -3.7507  -28.7699  -51.6023 H         1 UNK         0.0600 
    215 H215       -3.0926  -24.1725  -52.1189 H         1 UNK         0.3000 
    216 H216       -3.8921  -23.5346  -54.9025 H         1 UNK         0.0600 
    217 H217       -1.6348  -22.6107  -55.3799 H         1 UNK         0.0600 
    218 H218       -1.5748  -24.3522  -55.1501 H         1 UNK         0.0600 
    219 H219       -1.0229  -23.2767  -53.8694 H         1 UNK         0.0600 
    220 H220       -5.0127  -20.8311  -52.6967 H         1 UNK         0.3000 
    221 H221       -5.8222  -23.4548  -53.8918 H         1 UNK         0.0600 
    222 H222       -7.3049  -20.7760  -53.8070 H         1 UNK         0.0600 
    223 H223       -6.4929  -21.4334  -55.2211 H         1 UNK         0.0600 
    224 H224       -7.8754  -22.2736  -54.5521 H         1 UNK         0.0600 
    225 H225       -8.4967  -22.3611  -52.6402 H         1 UNK         0.3000 
    226 H226       -8.4055  -24.0662  -50.3079 H         1 UNK         0.0600 
    227 H227      -10.3557  -24.0247  -51.8200 H         1 UNK         0.0600 
    228 H228      -10.8351  -23.5094  -50.2115 H         1 UNK         0.0600 
    229 H229      -10.6246  -22.3143  -51.4865 H         1 UNK         0.0600 
    230 H230       -6.6283  -22.6958  -49.3868 H         1 UNK         0.3000 
    231 H231       -5.8024  -21.5134  -47.7141 H         1 UNK         0.0600 
    232 H232       -7.1339  -21.0007  -45.7284 H         1 UNK         0.0600 
    233 H233       -7.6358  -22.5628  -46.3492 H         1 UNK         0.0600 
    234 H234       -8.6383  -21.1393  -46.6271 H         1 UNK         0.0600 
    235 H235       -6.4644  -20.1888  -50.1960 H         1 UNK         0.3000 
    236 H236       -5.8687  -17.4681  -49.3557 H         1 UNK         0.0600 
    237 H237       -8.3579  -17.3676  -49.7094 H         1 UNK         0.0600 
    238 H238       -7.5172  -16.5011  -50.9871 H         1 UNK         0.0600 
    239 H239       -8.1736  -18.1055  -51.2994 H         1 UNK         0.0600 
    240 H240       -4.3965  -16.5888  -50.8262 H         1 UNK         0.3000 
    241 H241       -2.9414  -18.5390  -52.2953 H         1 UNK         0.0600 
    242 H242       -5.0918  -16.8781  -55.2380 H         1 UNK         0.3800 
    243 H243       -5.5951  -16.8506  -53.5680 H         1 UNK         0.3800 
    244 H244       -1.2332  -16.8274  -52.5813 H         1 UNK         0.0800 
    245 H245       -2.3564  -15.5460  -52.1854 H         1 UNK         0.0800 
    246 H246       -0.0042  -15.0948  -50.7965 H         1 UNK         0.0800 
    247 H247        0.2028  -15.6608  -49.1596 H         1 UNK         0.0800 
@<TRIPOS>BOND
     1    1    2 1    
     2    1  127 1    
     3    1  128 1    
     4    1  129 1    
     5    2    3 2    
     6    2    4 am   BACKBONE|DICT|INTERRES
     7    4    5 1    
     8    4  130 1    
     9    5    6 1    
    10    5   65 1    
    11    5  131 1    
    12    6    7 1    
    13    6  132 1    
    14    6  133 1    
    15    7    8 1    
    16    8    9 1    
    17    8  134 1    
    18    8  135 1    
    19    9   10 ar   
    20    9   14 ar   
    21   10   11 ar   
    22   10  136 1    
    23   11   12 ar   
    24   11  126 1    
    25   12   13 ar   
    26   12  137 1    
    27   13   14 ar   
    28   13   15 1    
    29   14  138 1    
    30   15   16 1    
    31   15  139 1    
    32   15  140 1    
    33   16   17 1    
    34   17   18 1    
    35   17  141 1    
    36   17  142 1    
    37   18   19 1    
    38   18   67 1    
    39   18  143 1    
    40   19   20 am   BACKBONE|DICT|INTERRES
    41   19  144 1    
    42   20   21 2    
    43   20   22 1    
    44   22   23 1    
    45   22   24 1    
    46   22  145 1    
    47   23  146 1    
    48   23  147 1    
    49   23  148 1    
    50   24   25 am   BACKBONE|DICT|INTERRES
    51   24  149 1    
    52   25   26 2    
    53   25   27 1    
    54   27   28 1    
    55   27   29 1    
    56   27  150 1    
    57   28  151 1    
    58   28  152 1    
    59   28  153 1    
    60   29   30 am   BACKBONE|DICT|INTERRES
    61   29  154 1    
    62   30   31 2    
    63   30   32 1    
    64   32   33 1    
    65   32   34 1    
    66   32  155 1    
    67   33  156 1    
    68   33  157 1    
    69   33  158 1    
    70   34   35 am   BACKBONE|DICT|INTERRES
    71   34  159 1    
    72   35   36 2    
    73   35   37 1    
    74   37   38 1    
    75   37   39 1    
    76   37  160 1    
    77   38  161 1    
    78   38  162 1    
    79   38  163 1    
    80   39   40 am   BACKBONE|DICT|INTERRES
    81   39  164 1    
    82   40   41 2    
    83   40   42 1    
    84   42   43 1    
    85   42   44 1    
    86   42  165 1    
    87   43  166 1    
    88   43  167 1    
    89   43  168 1    
    90   44   45 am   BACKBONE|DICT|INTERRES
    91   44  169 1    
    92   45   46 2    
    93   45   47 1    
    94   47   48 1    
    95   47   49 1    
    96   47  170 1    
    97   48  171 1    
    98   48  172 1    
    99   48  173 1    
   100   49   50 am   BACKBONE|DICT|INTERRES
   101   49  174 1    
   102   50   51 2    
   103   50   52 1    
   104   52   53 1    
   105   52   54 1    
   106   52  175 1    
   107   53  176 1    
   108   53  177 1    
   109   53  178 1    
   110   54   55 am   BACKBONE|DICT|INTERRES
   111   54  179 1    
   112   55   56 2    
   113   55   57 1    
   114   57   58 1    
   115   57   59 1    
   116   57  180 1    
   117   58  181 1    
   118   58  182 1    
   119   58  183 1    
   120   59   60 am   BACKBONE|DICT|INTERRES
   121   59  184 1    
   122   60   61 2    
   123   60   62 1    
   124   62   63 1    
   125   62   64 1    
   126   62  185 1    
   127   63  186 1    
   128   63  187 1    
   129   63  188 1    
   130   64   65 am   BACKBONE|DICT|INTERRES
   131   64  189 1    
   132   65   66 2    
   133   67   68 2    
   134   67   69 am   BACKBONE|DICT|INTERRES
   135   69   70 1    
   136   69  190 1    
   137   70   71 1    
   138   70   72 1    
   139   70  191 1    
   140   71  192 1    
   141   71  193 1    
   142   71  194 1    
   143   72   73 2    
   144   72   74 am   BACKBONE|DICT|INTERRES
   145   74   75 1    
   146   74  195 1    
   147   75   76 1    
   148   75   77 1    
   149   75  196 1    
   150   76  197 1    
   151   76  198 1    
   152   76  199 1    
   153   77   78 2    
   154   77   79 am   BACKBONE|DICT|INTERRES
   155   79   80 1    
   156   79  200 1    
   157   80   81 1    
   158   80   82 1    
   159   80  201 1    
   160   81  202 1    
   161   81  203 1    
   162   81  204 1    
   163   82   83 2    
   164   82   84 am   BACKBONE|DICT|INTERRES
   165   84   85 1    
   166   84  205 1    
   167   85   86 1    
   168   85   87 1    
   169   85  206 1    
   170   86  207 1    
   171   86  208 1    
   172   86  209 1    
   173   87   88 2    
   174   87   89 am   BACKBONE|DICT|INTERRES
   175   89   90 1    
   176   89  210 1    
   177   90   91 1    
   178   90   92 1    
   179   90  211 1    
   180   91  212 1    
   181   91  213 1    
   182   91  214 1    
   183   92   93 2    
   184   92   94 am   BACKBONE|DICT|INTERRES
   185   94   95 1    
   186   94  215 1    
   187   95   96 1    
   188   95   97 1    
   189   95  216 1    
   190   96  217 1    
   191   96  218 1    
   192   96  219 1    
   193   97   98 2    
   194   97   99 am   BACKBONE|DICT|INTERRES
   195   99  100 1    
   196   99  220 1    
   197  100  101 1    
   198  100  102 1    
   199  100  221 1    
   200  101  222 1    
   201  101  223 1    
   202  101  224 1    
   203  102  103 2    
   204  102  104 am   BACKBONE|DICT|INTERRES
   205  104  105 1    
   206  104  225 1    
   207  105  106 1    
   208  105  107 1    
   209  105  226 1    
   210  106  227 1    
   211  106  228 1    
   212  106  229 1    
   213  107  108 2    
   214  107  109 am   BACKBONE|DICT|INTERRES
   215  109  110 1    
   216  109  230 1    
   217  110  111 1    
   218  110  112 1    
   219  110  231 1    
   220  111  232 1    
   221  111  233 1    
   222  111  234 1    
   223  112  113 2    
   224  112  114 am   BACKBONE|DICT|INTERRES
   225  114  115 1    
   226  114  235 1    
   227  115  116 1    
   228  115  117 1    
   229  115  236 1    
   230  116  237 1    
   231  116  238 1    
   232  116  239 1    
   233  117  118 2    
   234  117  119 am   BACKBONE|DICT|INTERRES
   235  119  120 1    
   236  119  240 1    
   237  120  121 1    
   238  120  124 1    
   239  120  241 1    
   240  121  122 am   BACKBONE|DICT|INTERRES
   241  121  123 2    
   242  122  242 1    
   243  122  243 1    
   244  124  125 1    
   245  124  244 1    
   246  124  245 1    
   247  125  126 1    
   248  126  246 1    
   249  126  247 1    
@<TRIPOS>SUBSTRUCTURE
     1 UNK         1 GROUP             0       ****    0 ROOT    
