@<TRIPOS>MOLECULE
3R540
247   249    1
SMALL
USER_CHARGES


@<TRIPOS>ATOM
      1 CA          0.9991  -17.8196  -53.5635 C.3       0 UNK        -0.1800 
      2 C           0.9986  -16.9453  -52.3159 C.2       0 UNK         0.5000 
      3 O           0.5922  -15.7866  -52.3913 O.2       0 UNK        -0.5000 
      4 N           1.4423  -17.5147  -51.1877 N.am      1 UNK        -0.5000 
      5 CA          1.5997  -16.9185  -49.8555 C.3       1 UNK         0.1400 
      6 C6          0.3222  -16.2635  -49.2658 C.3       23 UNK        -0.0398 
      7 S7         -0.9414  -17.4799  -48.7817 S.3       23 UNK        -0.2404 
      8 C8         -1.9888  -16.4097  -47.7450 C.3       23 UNK        -0.0205 
      9 C9         -3.2249  -17.1392  -47.2469 C.ar      23 UNK        -0.0193 
     10 C10        -4.2378  -17.4812  -48.1463 C.ar      23 UNK        -0.1150 
     11 C11        -5.3789  -18.1585  -47.7097 C.ar      23 UNK        -0.0193 
     12 C12        -5.5029  -18.4902  -46.3579 C.ar      23 UNK        -0.1150 
     13 C13        -4.5051  -18.1389  -45.4425 C.ar      23 UNK        -0.0193 
     14 C14        -3.3713  -17.4539  -45.8921 C.ar      23 UNK        -0.1150 
     15 C15        -4.6659  -18.4989  -43.9694 C.3       23 UNK        -0.0205 
     16 S16        -3.4122  -19.6795  -43.3642 S.3       23 UNK        -0.2404 
     17 C17        -3.3797  -20.9463  -44.6790 C.3       23 UNK        -0.0398 
     18 CA         -2.1106  -20.7796  -45.5567 C.3       11 UNK         0.1400 
     19 N          -0.8884  -21.0563  -44.7954 N.am      11 UNK        -0.5000 
     20 C          -0.3159  -22.2443  -44.5475 C.2       10 UNK         0.5000 
     21 O          -0.6446  -23.3088  -45.0724 O.2       10 UNK        -0.5000 
     22 CA          0.7832  -22.2345  -43.4735 C.3       10 UNK         0.1400 
     23 CB          2.1128  -21.7239  -44.0474 C.3       10 UNK        -0.1800 
     24 N           0.3901  -21.3954  -42.3431 N.am      10 UNK        -0.5000 
     25 C          -0.5163  -21.7346  -41.4161 C.2       9 UNK         0.5000 
     26 O          -1.0461  -22.8455  -41.3541 O.2       9 UNK        -0.5000 
     27 CA         -0.8892  -20.6348  -40.3994 C.3       9 UNK         0.1400 
     28 CB         -1.5392  -21.1851  -39.1132 C.3       9 UNK        -0.1800 
     29 N           0.2370  -19.7504  -40.0875 N.am      9 UNK        -0.5000 
     30 C           1.3993  -20.0731  -39.4997 C.2       8 UNK         0.5000 
     31 O           1.6691  -21.1946  -39.0687 O.2       8 UNK        -0.5000 
     32 CA          2.4547  -18.9541  -39.3967 C.3       8 UNK         0.1400 
     33 CB          3.5459  -19.1593  -40.4598 C.3       8 UNK        -0.1800 
     34 N           1.8888  -17.6152  -39.5649 N.am      8 UNK        -0.5000 
     35 C           1.1289  -16.9763  -38.6656 C.2       7 UNK         0.5000 
     36 O           0.8759  -17.4152  -37.5433 O.2       7 UNK        -0.5000 
     37 CA          0.5187  -15.6398  -39.1212 C.3       7 UNK         0.1400 
     38 CB          1.5349  -14.4957  -38.9788 C.3       7 UNK        -0.1800 
     39 N           0.0438  -15.7018  -40.5055 N.am      7 UNK        -0.5000 
     40 C          -1.0713  -16.3317  -40.9024 C.2       6 UNK         0.5000 
     41 O          -1.8333  -16.9191  -40.1353 O.2       6 UNK        -0.5000 
     42 CA         -1.3785  -16.3203  -42.4111 C.3       6 UNK         0.1400 
     43 CB         -2.2093  -15.0847  -42.7877 C.3       6 UNK        -0.1800 
     44 N          -0.1658  -16.3534  -43.2278 N.am      6 UNK        -0.5000 
     45 C           0.5680  -17.4534  -43.4381 C.2       5 UNK         0.5000 
     46 O           0.2762  -18.5721  -43.0116 O.2       5 UNK        -0.5000 
     47 CA          1.8566  -17.2754  -44.2588 C.3       5 UNK         0.1400 
     48 CB          1.5425  -17.4579  -45.7480 C.3       5 UNK        -0.1800 
     49 N           2.5565  -15.9998  -44.0459 N.am      5 UNK        -0.5000 
     50 C           3.0460  -15.5955  -42.8616 C.2       4 UNK         0.5000 
     51 O           2.8360  -16.2033  -41.8129 O.2       4 UNK        -0.5000 
     52 CA          3.9252  -14.3301  -42.8051 C.3       4 UNK         0.1400 
     53 CB          5.3320  -14.6836  -42.2953 C.3       4 UNK        -0.1800 
     54 N           4.0602  -13.6527  -44.0930 N.am      4 UNK        -0.5000 
     55 C           3.2729  -12.6614  -44.5296 C.2       3 UNK         0.5000 
     56 O           2.3344  -12.1971  -43.8817 O.2       3 UNK        -0.5000 
     57 CA          3.5755  -12.1065  -45.9393 C.3       3 UNK         0.1400 
     58 CB          4.4529  -10.8491  -45.8420 C.3       3 UNK        -0.1800 
     59 N           4.2168  -13.0682  -46.8476 N.am      3 UNK        -0.5000 
     60 C           3.6754  -14.2363  -47.2138 C.2       2 UNK         0.5000 
     61 O           2.5962  -14.6428  -46.7755 O.2       2 UNK        -0.5000 
     62 CA          4.4925  -15.1225  -48.1741 C.3       2 UNK         0.1400 
     63 CB          5.6321  -15.8211  -47.4152 C.3       2 UNK        -0.1800 
     64 N           3.6186  -16.1461  -48.7434 N.am      2 UNK        -0.5000 
     65 C           2.7883  -15.9399  -49.7720 C.2       1 UNK         0.5000 
     66 O           2.8953  -14.9955  -50.5565 O.2       1 UNK        -0.5000 
     67 C          -2.1690  -21.5280  -46.9029 C.2       11 UNK         0.5000 
     68 O          -1.4233  -21.1667  -47.8119 O.2       11 UNK        -0.5000 
     69 N          -3.0037  -22.5731  -47.0042 N.am      12 UNK        -0.5000 
     70 CA         -3.1971  -23.3926  -48.2027 C.3       12 UNK         0.1400 
     71 CB         -4.2404  -24.4790  -47.9054 C.3       12 UNK        -0.1800 
     72 C          -1.9092  -24.0293  -48.7636 C.2       12 UNK         0.5000 
     73 O          -1.8189  -24.2128  -49.9767 O.2       12 UNK        -0.5000 
     74 N          -0.9407  -24.3332  -47.8870 N.am      13 UNK        -0.5000 
     75 CA          0.3587  -24.8947  -48.2593 C.3       13 UNK         0.1400 
     76 CB          0.9513  -25.6348  -47.0500 C.3       13 UNK        -0.1800 
     77 C           1.3494  -23.8335  -48.7761 C.2       13 UNK         0.5000 
     78 O           2.2676  -24.1846  -49.5181 O.2       13 UNK        -0.5000 
     79 N           1.1637  -22.5692  -48.3724 N.am      14 UNK        -0.5000 
     80 CA          1.9495  -21.4282  -48.8466 C.3       14 UNK         0.1400 
     81 CB          2.0200  -20.3736  -47.7366 C.3       14 UNK        -0.1800 
     82 C           1.3423  -20.8299  -50.1273 C.2       14 UNK         0.5000 
     83 O           2.0771  -20.3369  -50.9848 O.2       14 UNK        -0.5000 
     84 N           0.0104  -20.8910  -50.2342 N.am      15 UNK        -0.5000 
     85 CA         -0.7743  -20.6394  -51.4376 C.3       15 UNK         0.1400 
     86 CB         -2.2520  -20.5537  -51.0224 C.3       15 UNK        -0.1800 
     87 C          -0.5561  -21.7385  -52.5002 C.2       15 UNK         0.5000 
     88 O           0.0970  -22.7516  -52.2370 O.2       15 UNK        -0.5000 
     89 N          -1.1379  -21.5439  -53.6887 N.am      16 UNK        -0.5000 
     90 CA         -1.0810  -22.4668  -54.8274 C.3       16 UNK         0.1400 
     91 CB         -1.4146  -21.6712  -56.1034 C.3       16 UNK        -0.1800 
     92 C          -1.9984  -23.6987  -54.6395 C.2       16 UNK         0.5000 
     93 O          -2.8587  -23.9551  -55.4823 O.2       16 UNK        -0.5000 
     94 N          -1.8156  -24.4173  -53.5196 N.am      17 UNK        -0.5000 
     95 CA         -2.6849  -25.4751  -52.9854 C.3       17 UNK         0.1400 
     96 CB         -2.6909  -26.7139  -53.9056 C.3       17 UNK        -0.1800 
     97 C          -4.0944  -24.9202  -52.6896 C.2       17 UNK         0.5000 
     98 O          -5.0962  -25.4941  -53.1208 O.2       17 UNK        -0.5000 
     99 N          -4.1166  -23.7631  -52.0085 N.am      18 UNK        -0.5000 
    100 CA        -5.2274  -22.8141  -51.9035 C.3       18 UNK         0.1400 
    101 CB        -6.4110  -23.4010  -51.1028 C.3       18 UNK        -0.1800 
    102 C         -5.5921  -22.2889  -53.3065 C.2       18 UNK         0.5000 
    103 O         -4.8201  -21.5073  -53.8656 O.2       18 UNK        -0.5000 
    104 N         -6.7222  -22.7554  -53.8566 N.am      19 UNK        -0.5000 
    105 CA        -7.1806  -22.5606  -55.2351 C.3       19 UNK         0.1400 
    106 CB        -6.3273  -23.4219  -56.1927 C.3       19 UNK        -0.1800 
    107 C         -7.2600  -21.0719  -55.6346 C.2       19 UNK         0.5000 
    108 O         -7.8061  -20.2731  -54.8719 O.2       19 UNK        -0.5000 
    109 N         -6.7123  -20.7153  -56.8039 N.am      20 UNK        -0.5000 
    110 CA        -6.7257  -19.3685  -57.3814 C.3       20 UNK         0.1400 
    111 CB        -6.1296  -19.4332  -58.7961 C.3       20 UNK        -0.1800 
    112 C         -6.0002  -18.2972  -56.5422 C.2       20 UNK         0.5000 
    113 O         -6.3042  -17.1134  -56.6941 O.2       20 UNK        -0.5000 
    114 N         -5.0693  -18.7165  -55.6734 N.am      21 UNK        -0.5000 
    115 CA        -4.3694  -17.8327  -54.7404 C.3       21 UNK         0.1400 
    116 CB        -3.0444  -18.4850  -54.3202 C.3       21 UNK        -0.1800 
    117 C         -5.2264  -17.4600  -53.5134 C.2       21 UNK         0.5000 
    118 O         -4.9872  -16.4068  -52.9214 O.2       21 UNK        -0.5000 
    119 N         -6.2081  -18.3036  -53.1664 N.am      22 UNK        -0.5000 
    120 CA        -7.1939  -18.0459  -52.1041 C.3       22 UNK         0.1400 
    121 C         -8.5574  -17.5487  -52.6568 C.2       22 UNK         0.5000 
    122 N         -8.9996  -17.9882  -53.8272 N.am      22 UNK        -0.7600 
    123 O         -9.2224  -16.7402  -52.0152 O.2       22 UNK        -0.5000 
    124 C124       -7.3904  -19.2800  -51.1871 C.3       23 UNK        -0.0398 
    125 S125       -5.9657  -19.5247  -50.0746 S.3       23 UNK        -0.2404 
    126 C126       -6.5023  -18.4733  -48.6859 C.3       23 UNK        -0.0205 
    127 H127        1.4158  -18.8084  -53.3685 H         1 UNK         0.0600 
    128 H128        1.5936  -17.3520  -54.3483 H         1 UNK         0.0600 
    129 H129       -0.0171  -17.9460  -53.9357 H         1 UNK         0.0600 
    130 H130        1.7524  -18.4821  -51.2376 H         1 UNK         0.3000 
    131 H131        1.8457  -17.7627  -49.2124 H         1 UNK         0.0600 
    132 H132       -0.1182  -15.5444  -49.9563 H         1 UNK         0.0800 
    133 H133        0.5711  -15.6921  -48.3695 H         1 UNK         0.0800 
    134 H134       -1.4025  -16.0343  -46.9048 H         1 UNK         0.0800 
    135 H135       -2.2983  -15.5374  -48.3226 H         1 UNK         0.0800 
    136 H136       -4.1358  -17.2219  -49.1911 H         1 UNK         0.1150 
    137 H137       -6.3867  -19.0093  -46.0142 H         1 UNK         0.1150 
    138 H138       -2.5954  -17.1868  -45.1888 H         1 UNK         0.1150 
    139 H139       -4.6078  -17.5879  -43.3722 H         1 UNK         0.0800 
    140 H140       -5.6547  -18.9207  -43.7833 H         1 UNK         0.0800 
    141 H141       -4.2936  -20.8718  -45.2698 H         1 UNK         0.0800 
    142 H142       -3.3977  -21.9301  -44.2074 H         1 UNK         0.0800 
    143 H143       -2.0310  -19.7317  -45.8408 H         1 UNK         0.0600 
    144 H144       -0.5275  -20.2612  -44.2838 H         1 UNK         0.3000 
    145 H145        0.9287  -23.2583  -43.1225 H         1 UNK         0.0600 
    146 H146        2.9037  -21.7624  -43.2982 H         1 UNK         0.0600 
    147 H147        2.4332  -22.3375  -44.8904 H         1 UNK         0.0600 
    148 H148        2.0343  -20.6933  -44.3957 H         1 UNK         0.0600 
    149 H149        0.7036  -20.4311  -42.3573 H         1 UNK         0.3000 
    150 H150       -1.6300  -20.0064  -40.8952 H         1 UNK         0.0600 
    151 H151       -2.4657  -21.7134  -39.3405 H         1 UNK         0.0600 
    152 H152       -1.7876  -20.3789  -38.4228 H         1 UNK         0.0600 
    153 H153       -0.8842  -21.8842  -38.5930 H         1 UNK         0.0600 
    154 H154        0.1423  -18.8022  -40.4225 H         1 UNK         0.3000 
    155 H155        2.9146  -19.0169  -38.4084 H         1 UNK         0.0600 
    156 H156        3.1365  -19.1065  -41.4697 H         1 UNK         0.0600 
    157 H157        4.0243  -20.1333  -40.3492 H         1 UNK         0.0600 
    158 H158        4.3257  -18.4020  -40.3761 H         1 UNK         0.0600 
    159 H159        2.1053  -17.1423  -40.4407 H         1 UNK         0.3000 
    160 H160       -0.3319  -15.4200  -38.4724 H         1 UNK         0.0600 
    161 H161        2.4148  -14.6523  -39.6035 H         1 UNK         0.0600 
    162 H162        1.8782  -14.4073  -37.9473 H         1 UNK         0.0600 
    163 H163        1.0926  -13.5389  -39.2566 H         1 UNK         0.0600 
    164 H164        0.6444  -15.2947  -41.2069 H         1 UNK         0.3000 
    165 H165       -1.9734  -17.2073  -42.6341 H         1 UNK         0.0600 
    166 H166       -2.4807  -15.0969  -43.8433 H         1 UNK         0.0600 
    167 H167       -3.1373  -15.0507  -42.2155 H         1 UNK         0.0600 
    168 H168       -1.6674  -14.1587  -42.5912 H         1 UNK         0.0600 
    169 H169        0.1493  -15.4804  -43.6250 H         1 UNK         0.3000 
    170 H170        2.5375  -18.0742  -43.9576 H         1 UNK         0.0600 
    171 H171        0.9741  -18.3724  -45.9140 H         1 UNK         0.0600 
    172 H172        0.9425  -16.6339  -46.1333 H         1 UNK         0.0600 
    173 H173        2.4548  -17.5224  -46.3391 H         1 UNK         0.0600 
    174 H174        2.7140  -15.4287  -44.8690 H         1 UNK         0.3000 
    175 H175        3.4668  -13.6539  -42.0806 H         1 UNK         0.0600 
    176 H176        5.8403  -15.3787  -42.9647 H         1 UNK         0.0600 
    177 H177        5.9526  -13.7922  -42.2020 H         1 UNK         0.0600 
    178 H178        5.2885  -15.1496  -41.3098 H         1 UNK         0.0600 
    179 H179        4.8049  -13.9706  -44.6955 H         1 UNK         0.3000 
    180 H180        2.6198  -11.8215  -46.3842 H         1 UNK         0.0600 
    181 H181        5.4378  -11.0769  -45.4323 H         1 UNK         0.0600 
    182 H182        3.9935  -10.1003  -45.1953 H         1 UNK         0.0600 
    183 H183        4.5932  -10.3883  -46.8200 H         1 UNK         0.0600 
    184 H184        5.1130  -12.7990  -47.2280 H         1 UNK         0.3000 
    185 H185        4.9129  -14.5016  -48.9680 H         1 UNK         0.0600 
    186 H186        5.2574  -16.4226  -46.5854 H         1 UNK         0.0600 
    187 H187        6.1982  -16.4786  -48.0753 H         1 UNK         0.0600 
    188 H188        6.3347  -15.0955  -47.0039 H         1 UNK         0.0600 
    189 H189        3.4422  -16.9347  -48.1402 H         1 UNK         0.3000 
    190 H190       -3.5409  -22.8455  -46.1951 H         1 UNK         0.3000 
    191 H191       -3.6073  -22.7412  -48.9752 H         1 UNK         0.0600 
    192 H192       -5.1950  -24.0414  -47.6126 H         1 UNK         0.0600 
    193 H193       -4.4242  -25.0957  -48.7866 H         1 UNK         0.0600 
    194 H194       -3.9129  -25.1420  -47.1036 H         1 UNK         0.0600 
    195 H195       -1.0729  -24.1090  -46.9054 H         1 UNK         0.3000 
    196 H196        0.2086  -25.6231  -49.0592 H         1 UNK         0.0600 
    197 H197        1.8883  -26.1261  -47.3152 H         1 UNK         0.0600 
    198 H198        0.2718  -26.4057  -46.6863 H         1 UNK         0.0600 
    199 H199        1.1618  -24.9550  -46.2238 H         1 UNK         0.0600 
    200 H200        0.3479  -22.3534  -47.8135 H         1 UNK         0.3000 
    201 H201        2.9680  -21.7511  -49.0720 H         1 UNK         0.0600 
    202 H202        2.4193  -20.7966  -46.8164 H         1 UNK         0.0600 
    203 H203        1.0342  -19.9610  -47.5220 H         1 UNK         0.0600 
    204 H204        2.6767  -19.5524  -48.0213 H         1 UNK         0.0600 
    205 H205       -0.5138  -21.2180  -49.4278 H         1 UNK         0.3000 
    206 H206       -0.4706  -19.6819  -51.8608 H         1 UNK         0.0600 
    207 H207       -2.5885  -21.4894  -50.5817 H         1 UNK         0.0600 
    208 H208       -2.4110  -19.7664  -50.2848 H         1 UNK         0.0600 
    209 H209       -2.9058  -20.3380  -51.8649 H         1 UNK         0.0600 
    210 H210       -1.7072  -20.7226  -53.8244 H         1 UNK         0.3000 
    211 H211       -0.0592  -22.8392  -54.9253 H         1 UNK         0.0600 
    212 H212       -2.4304  -21.2737  -56.0744 H         1 UNK         0.0600 
    213 H213       -1.3323  -22.3001  -56.9907 H         1 UNK         0.0600 
    214 H214       -0.7301  -20.8334  -56.2375 H         1 UNK         0.0600 
    215 H215       -1.0807  -24.0963  -52.8931 H         1 UNK         0.3000 
    216 H216       -2.2589  -25.7822  -52.0301 H         1 UNK         0.0600 
    217 H217       -3.2404  -27.5353  -53.4446 H         1 UNK         0.0600 
    218 H218       -1.6777  -27.0675  -54.0963 H         1 UNK         0.0600 
    219 H219       -3.1615  -26.5087  -54.8674 H         1 UNK         0.0600 
    220 H220       -3.2222  -23.4213  -51.6848 H         1 UNK         0.3000 
    221 H221       -4.8518  -21.9574  -51.3454 H         1 UNK         0.0600 
    222 H222       -6.8286  -24.2982  -51.5591 H         1 UNK         0.0600 
    223 H223       -6.1007  -23.6625  -50.0919 H         1 UNK         0.0600 
    224 H224       -7.2162  -22.6714  -51.0085 H         1 UNK         0.0600 
    225 H225       -7.2820  -23.3861  -53.3014 H         1 UNK         0.3000 
    226 H226       -8.2035  -22.9370  -55.2734 H         1 UNK         0.0600 
    227 H227       -6.2943  -24.4592  -55.8582 H         1 UNK         0.0600 
    228 H228       -6.7401  -23.4269  -57.2021 H         1 UNK         0.0600 
    229 H229       -5.2977  -23.0669  -56.2499 H         1 UNK         0.0600 
    230 H230       -6.2642  -21.4321  -57.3558 H         1 UNK         0.3000 
    231 H231       -7.7693  -19.0579  -57.4644 H         1 UNK         0.0600 
    232 H232       -5.0917  -19.7684  -58.7793 H         1 UNK         0.0600 
    233 H233       -6.1503  -18.4535  -59.2754 H         1 UNK         0.0600 
    234 H234       -6.6938  -20.1153  -59.4324 H         1 UNK         0.0600 
    235 H235       -4.8976  -19.7089  -55.5799 H         1 UNK         0.3000 
    236 H236       -4.1261  -16.9007  -55.2554 H         1 UNK         0.0600 
    237 H237       -2.3705  -18.5862  -55.1710 H         1 UNK         0.0600 
    238 H238       -2.5319  -17.8878  -53.5646 H         1 UNK         0.0600 
    239 H239       -3.2095  -19.4758  -53.9054 H         1 UNK         0.0600 
    240 H240       -6.3684  -19.1261  -53.7335 H         1 UNK         0.3000 
    241 H241       -6.8318  -17.2323  -51.4729 H         1 UNK         0.0600 
    242 H242       -8.5163  -18.7410  -54.3139 H         1 UNK         0.3800 
    243 H243       -9.8813  -17.6530  -54.1805 H         1 UNK         0.3800 
    244 H244       -7.5351  -20.1809  -51.7852 H         1 UNK         0.0800 
    245 H245       -8.2882  -19.1819  -50.5735 H         1 UNK         0.0800 
    246 H246       -7.3336  -18.9630  -48.1763 H         1 UNK         0.0800 
    247 H247       -6.8900  -17.5286  -49.0692 H         1 UNK         0.0800 
@<TRIPOS>BOND
     1    1    2 1    
     2    1  127 1    
     3    1  128 1    
     4    1  129 1    
     5    2    3 2    
     6    2    4 am   BACKBONE|DICT|INTERRES
     7    4    5 1    
     8    4  130 1    
     9    5    6 1    
    10    5   65 1    
    11    5  131 1    
    12    6    7 1    
    13    6  132 1    
    14    6  133 1    
    15    7    8 1    
    16    8    9 1    
    17    8  134 1    
    18    8  135 1    
    19    9   10 ar   
    20    9   14 ar   
    21   10   11 ar   
    22   10  136 1    
    23   11   12 ar   
    24   11  126 1    
    25   12   13 ar   
    26   12  137 1    
    27   13   14 ar   
    28   13   15 1    
    29   14  138 1    
    30   15   16 1    
    31   15  139 1    
    32   15  140 1    
    33   16   17 1    
    34   17   18 1    
    35   17  141 1    
    36   17  142 1    
    37   18   19 1    
    38   18   67 1    
    39   18  143 1    
    40   19   20 am   BACKBONE|DICT|INTERRES
    41   19  144 1    
    42   20   21 2    
    43   20   22 1    
    44   22   23 1    
    45   22   24 1    
    46   22  145 1    
    47   23  146 1    
    48   23  147 1    
    49   23  148 1    
    50   24   25 am   BACKBONE|DICT|INTERRES
    51   24  149 1    
    52   25   26 2    
    53   25   27 1    
    54   27   28 1    
    55   27   29 1    
    56   27  150 1    
    57   28  151 1    
    58   28  152 1    
    59   28  153 1    
    60   29   30 am   BACKBONE|DICT|INTERRES
    61   29  154 1    
    62   30   31 2    
    63   30   32 1    
    64   32   33 1    
    65   32   34 1    
    66   32  155 1    
    67   33  156 1    
    68   33  157 1    
    69   33  158 1    
    70   34   35 am   BACKBONE|DICT|INTERRES
    71   34  159 1    
    72   35   36 2    
    73   35   37 1    
    74   37   38 1    
    75   37   39 1    
    76   37  160 1    
    77   38  161 1    
    78   38  162 1    
    79   38  163 1    
    80   39   40 am   BACKBONE|DICT|INTERRES
    81   39  164 1    
    82   40   41 2    
    83   40   42 1    
    84   42   43 1    
    85   42   44 1    
    86   42  165 1    
    87   43  166 1    
    88   43  167 1    
    89   43  168 1    
    90   44   45 am   BACKBONE|DICT|INTERRES
    91   44  169 1    
    92   45   46 2    
    93   45   47 1    
    94   47   48 1    
    95   47   49 1    
    96   47  170 1    
    97   48  171 1    
    98   48  172 1    
    99   48  173 1    
   100   49   50 am   BACKBONE|DICT|INTERRES
   101   49  174 1    
   102   50   51 2    
   103   50   52 1    
   104   52   53 1    
   105   52   54 1    
   106   52  175 1    
   107   53  176 1    
   108   53  177 1    
   109   53  178 1    
   110   54   55 am   BACKBONE|DICT|INTERRES
   111   54  179 1    
   112   55   56 2    
   113   55   57 1    
   114   57   58 1    
   115   57   59 1    
   116   57  180 1    
   117   58  181 1    
   118   58  182 1    
   119   58  183 1    
   120   59   60 am   BACKBONE|DICT|INTERRES
   121   59  184 1    
   122   60   61 2    
   123   60   62 1    
   124   62   63 1    
   125   62   64 1    
   126   62  185 1    
   127   63  186 1    
   128   63  187 1    
   129   63  188 1    
   130   64   65 am   BACKBONE|DICT|INTERRES
   131   64  189 1    
   132   65   66 2    
   133   67   68 2    
   134   67   69 am   BACKBONE|DICT|INTERRES
   135   69   70 1    
   136   69  190 1    
   137   70   71 1    
   138   70   72 1    
   139   70  191 1    
   140   71  192 1    
   141   71  193 1    
   142   71  194 1    
   143   72   73 2    
   144   72   74 am   BACKBONE|DICT|INTERRES
   145   74   75 1    
   146   74  195 1    
   147   75   76 1    
   148   75   77 1    
   149   75  196 1    
   150   76  197 1    
   151   76  198 1    
   152   76  199 1    
   153   77   78 2    
   154   77   79 am   BACKBONE|DICT|INTERRES
   155   79   80 1    
   156   79  200 1    
   157   80   81 1    
   158   80   82 1    
   159   80  201 1    
   160   81  202 1    
   161   81  203 1    
   162   81  204 1    
   163   82   83 2    
   164   82   84 am   BACKBONE|DICT|INTERRES
   165   84   85 1    
   166   84  205 1    
   167   85   86 1    
   168   85   87 1    
   169   85  206 1    
   170   86  207 1    
   171   86  208 1    
   172   86  209 1    
   173   87   88 2    
   174   87   89 am   BACKBONE|DICT|INTERRES
   175   89   90 1    
   176   89  210 1    
   177   90   91 1    
   178   90   92 1    
   179   90  211 1    
   180   91  212 1    
   181   91  213 1    
   182   91  214 1    
   183   92   93 2    
   184   92   94 am   BACKBONE|DICT|INTERRES
   185   94   95 1    
   186   94  215 1    
   187   95   96 1    
   188   95   97 1    
   189   95  216 1    
   190   96  217 1    
   191   96  218 1    
   192   96  219 1    
   193   97   98 2    
   194   97   99 am   BACKBONE|DICT|INTERRES
   195   99  100 1    
   196   99  220 1    
   197  100  101 1    
   198  100  102 1    
   199  100  221 1    
   200  101  222 1    
   201  101  223 1    
   202  101  224 1    
   203  102  103 2    
   204  102  104 am   BACKBONE|DICT|INTERRES
   205  104  105 1    
   206  104  225 1    
   207  105  106 1    
   208  105  107 1    
   209  105  226 1    
   210  106  227 1    
   211  106  228 1    
   212  106  229 1    
   213  107  108 2    
   214  107  109 am   BACKBONE|DICT|INTERRES
   215  109  110 1    
   216  109  230 1    
   217  110  111 1    
   218  110  112 1    
   219  110  231 1    
   220  111  232 1    
   221  111  233 1    
   222  111  234 1    
   223  112  113 2    
   224  112  114 am   BACKBONE|DICT|INTERRES
   225  114  115 1    
   226  114  235 1    
   227  115  116 1    
   228  115  117 1    
   229  115  236 1    
   230  116  237 1    
   231  116  238 1    
   232  116  239 1    
   233  117  118 2    
   234  117  119 am   BACKBONE|DICT|INTERRES
   235  119  120 1    
   236  119  240 1    
   237  120  121 1    
   238  120  124 1    
   239  120  241 1    
   240  121  122 am   BACKBONE|DICT|INTERRES
   241  121  123 2    
   242  122  242 1    
   243  122  243 1    
   244  124  125 1    
   245  124  244 1    
   246  124  245 1    
   247  125  126 1    
   248  126  246 1    
   249  126  247 1    
@<TRIPOS>SUBSTRUCTURE
     1 UNK         1 GROUP             0       ****    0 ROOT    
