@<TRIPOS>MOLECULE
3R540
247   249    1
SMALL
USER_CHARGES


@<TRIPOS>ATOM
      1 CA          4.6999  -13.3683  -45.8245 C.3       0 UNK        -0.1800 
      2 C           3.4774  -13.0689  -46.6805 C.2       0 UNK         0.5000 
      3 O           3.6012  -12.4159  -47.7172 O.2       0 UNK        -0.5000 
      4 N           2.3008  -13.5356  -46.2419 N.am      1 UNK        -0.5000 
      5 CA          0.9799  -13.3841  -46.8641 C.3       1 UNK         0.1400 
      6 C6          0.8795  -13.8661  -48.3383 C.3       23 UNK        -0.0398 
      7 S7          1.4932  -15.5678  -48.5876 S.3       23 UNK        -0.2404 
      8 C8          0.3184  -16.1984  -49.8361 C.3       23 UNK        -0.0205 
      9 C9          0.8104  -17.4269  -50.6010 C.ar      23 UNK        -0.0193 
     10 C10         0.3923  -17.6105  -51.9238 C.ar      23 UNK        -0.1150 
     11 C11         0.8206  -18.7148  -52.6656 C.ar      23 UNK        -0.0193 
     12 C12         1.6827  -19.6423  -52.0776 C.ar      23 UNK        -0.1150 
     13 C13         2.1047  -19.4801  -50.7560 C.ar      23 UNK        -0.0193 
     14 C14         1.6551  -18.3812  -50.0179 C.ar      23 UNK        -0.1150 
     15 C15         3.0642  -20.4851  -50.1398 C.3       23 UNK        -0.0205 
     16 S16         2.2051  -21.9969  -49.6135 S.3       23 UNK        -0.2404 
     17 C17         1.3512  -21.4120  -48.1125 C.3       23 UNK        -0.0398 
     18 CA          0.9179  -22.5881  -47.2071 C.3       11 UNK         0.1400 
     19 N           0.7496  -22.1862  -45.8100 N.am      11 UNK        -0.5000 
     20 C           0.5762  -23.0451  -44.7949 C.2       10 UNK         0.5000 
     21 O           0.5872  -24.2700  -44.9241 O.2       10 UNK        -0.5000 
     22 CA          0.2966  -22.4328  -43.4114 C.3       10 UNK         0.1400 
     23 CB          1.5995  -21.9549  -42.7536 C.3       10 UNK        -0.1800 
     24 N          -0.6637  -21.3296  -43.4708 N.am      10 UNK        -0.5000 
     25 C          -1.9392  -21.4590  -43.8648 C.2       9 UNK         0.5000 
     26 O          -2.4532  -22.5340  -44.1739 O.2       9 UNK        -0.5000 
     27 CA         -2.7687  -20.1675  -43.9780 C.3       9 UNK         0.1400 
     28 CB         -3.2584  -19.7087  -42.5967 C.3       9 UNK        -0.1800 
     29 N          -2.0398  -19.0774  -44.6263 N.am      9 UNK        -0.5000 
     30 C          -1.5725  -19.1061  -45.8824 C.2       8 UNK         0.5000 
     31 O          -1.7180  -20.0565  -46.6474 O.2       8 UNK        -0.5000 
     32 CA         -0.7536  -17.8890  -46.3410 C.3       8 UNK         0.1400 
     33 CB         -1.6738  -16.7042  -46.6767 C.3       8 UNK        -0.1800 
     34 N           0.2313  -17.4944  -45.3339 N.am      8 UNK        -0.5000 
     35 C           1.2703  -18.2545  -44.9565 C.2       7 UNK         0.5000 
     36 O           1.5389  -19.3472  -45.4552 O.2       7 UNK        -0.5000 
     37 CA          2.1195  -17.7275  -43.7878 C.3       7 UNK         0.1400 
     38 CB          3.1706  -16.7274  -44.2896 C.3       7 UNK        -0.1800 
     39 N           1.2935  -17.1030  -42.7533 N.am      7 UNK        -0.5000 
     40 C           0.4731  -17.7864  -41.9393 C.2       6 UNK         0.5000 
     41 O           0.3617  -19.0117  -41.9576 O.2       6 UNK        -0.5000 
     42 CA         -0.4096  -16.9655  -40.9784 C.3       6 UNK         0.1400 
     43 CB          0.3386  -16.6833  -39.6675 C.3       6 UNK        -0.1800 
     44 N          -0.8609  -15.7005  -41.5587 N.am      6 UNK        -0.5000 
     45 C          -1.6109  -15.5920  -42.6639 C.2       5 UNK         0.5000 
     46 O          -2.0870  -16.5602  -43.2545 O.2       5 UNK        -0.5000 
     47 CA         -1.8274  -14.1795  -43.2405 C.3       5 UNK         0.1400 
     48 CB         -3.2421  -13.6781  -42.9168 C.3       5 UNK        -0.1800 
     49 N          -0.8525  -13.1789  -42.7945 N.am      5 UNK        -0.5000 
     50 C           0.4703  -13.2206  -43.0065 C.2       4 UNK         0.5000 
     51 O           1.0469  -14.1560  -43.5675 O.2       4 UNK        -0.5000 
     52 CA          1.2497  -11.9846  -42.5383 C.3       4 UNK         0.1400 
     53 CB          2.7587  -12.0573  -42.8399 C.3       4 UNK        -0.1800 
     54 N           0.6654  -10.8075  -43.1723 N.am      4 UNK        -0.5000 
     55 C           0.7325   -9.5535  -42.7091 C.2       3 UNK         0.5000 
     56 O           1.2594   -9.2535  -41.6363 O.2       3 UNK        -0.5000 
     57 CA          0.0967   -8.4571  -43.5959 C.3       3 UNK         0.1400 
     58 CB          0.7195   -7.0636  -43.3677 C.3       3 UNK        -0.1800 
     59 N           0.0866   -8.8024  -45.0247 N.am      3 UNK        -0.5000 
     60 C           1.1507   -9.0276  -45.8096 C.2       2 UNK         0.5000 
     61 O           2.3226   -8.9057  -45.4481 O.2       2 UNK        -0.5000 
     62 CA          0.8439   -9.5447  -47.2261 C.3       2 UNK         0.1400 
     63 CB          1.6671   -8.8037  -48.2922 C.3       2 UNK        -0.1800 
     64 N           1.1241  -10.9760  -47.3176 N.am      2 UNK        -0.5000 
     65 C           0.4501  -11.9476  -46.6894 C.2       1 UNK         0.5000 
     66 O          -0.5253  -11.7428  -45.9653 O.2       1 UNK        -0.5000 
     67 C          -0.3384  -23.2963  -47.7520 C.2       11 UNK         0.5000 
     68 O          -0.2124  -24.3510  -48.3718 O.2       11 UNK        -0.5000 
     69 N          -1.5251  -22.7410  -47.4682 N.am      12 UNK        -0.5000 
     70 CA         -2.8159  -23.3065  -47.8574 C.3       12 UNK         0.1400 
     71 CB         -3.9467  -22.3306  -47.4971 C.3       12 UNK        -0.1800 
     72 C          -3.0770  -24.6908  -47.2392 C.2       12 UNK         0.5000 
     73 O          -3.5439  -25.5914  -47.9370 O.2       12 UNK        -0.5000 
     74 N          -2.7312  -24.8489  -45.9539 N.am      13 UNK        -0.5000 
     75 CA         -2.8056  -26.1151  -45.2255 C.3       13 UNK         0.1400 
     76 CB         -2.5206  -25.8684  -43.7364 C.3       13 UNK        -0.1800 
     77 C          -1.8589  -27.1887  -45.7940 C.2       13 UNK         0.5000 
     78 O          -2.2512  -28.3525  -45.8831 O.2       13 UNK        -0.5000 
     79 N          -0.6448  -26.7789  -46.1878 N.am      14 UNK        -0.5000 
     80 CA          0.3504  -27.6410  -46.8253 C.3       14 UNK         0.1400 
     81 CB          1.7197  -26.9438  -46.8064 C.3       14 UNK        -0.1800 
     82 C          -0.0439  -28.0417  -48.2599 C.2       14 UNK         0.5000 
     83 O           0.1081  -29.2073  -48.6280 O.2       14 UNK        -0.5000 
     84 N          -0.5441  -27.0740  -49.0399 N.am      15 UNK        -0.5000 
     85 CA         -0.9761  -27.2553  -50.4269 C.3       15 UNK         0.1400 
     86 CB         -1.1234  -25.8762  -51.0901 C.3       15 UNK        -0.1800 
     87 C          -2.2908  -28.0440  -50.5657 C.2       15 UNK         0.5000 
     88 O          -2.4945  -28.6905  -51.5939 O.2       15 UNK        -0.5000 
     89 N          -3.1596  -27.9498  -49.5480 N.am      16 UNK        -0.5000 
     90 CA         -4.5385  -28.4489  -49.5055 C.3       16 UNK         0.1400 
     91 CB         -4.5840  -29.9892  -49.5846 C.3       16 UNK        -0.1800 
     92 C          -5.4384  -27.7491  -50.5483 C.2       16 UNK         0.5000 
     93 O          -6.3049  -28.3812  -51.1558 O.2       16 UNK        -0.5000 
     94 N          -5.2050  -26.4461  -50.7340 N.am      17 UNK        -0.5000 
     95 CA         -5.8946  -25.5531  -51.6577 C.3       17 UNK         0.1400 
     96 CB         -5.3287  -25.7279  -53.0781 C.3       17 UNK        -0.1800 
     97 C          -5.6899  -24.1182  -51.1547 C.2       17 UNK         0.5000 
     98 O          -4.7309  -23.8678  -50.4240 O.2       17 UNK        -0.5000 
     99 N          -6.5857  -23.2009  -51.5356 N.am      18 UNK        -0.5000 
    100 CA        -6.5558  -21.8026  -51.1049 C.3       18 UNK         0.1400 
    101 CB        -7.8495  -21.1065  -51.5572 C.3       18 UNK        -0.1800 
    102 C         -5.3256  -21.0461  -51.6401 C.2       18 UNK         0.5000 
    103 O         -5.1081  -21.0162  -52.8525 O.2       18 UNK        -0.5000 
    104 N         -4.5860  -20.3861  -50.7389 N.am      19 UNK        -0.5000 
    105 CA        -3.4290  -19.5435  -51.0682 C.3       19 UNK         0.1400 
    106 CB        -2.6470  -19.2333  -49.7829 C.3       19 UNK        -0.1800 
    107 C         -3.8049  -18.2464  -51.8177 C.2       19 UNK         0.5000 
    108 O         -2.9365  -17.6060  -52.4061 O.2       19 UNK        -0.5000 
    109 N         -5.0952  -17.8873  -51.8012 N.am      20 UNK        -0.5000 
    110 CA        -5.6645  -16.7945  -52.5862 C.3       20 UNK         0.1400 
    111 CB        -7.0060  -16.3871  -51.9566 C.3       20 UNK        -0.1800 
    112 C         -5.8575  -17.1534  -54.0748 C.2       20 UNK         0.5000 
    113 O         -5.9955  -16.2408  -54.8904 O.2       20 UNK        -0.5000 
    114 N         -5.8992  -18.4538  -54.4087 N.am      21 UNK        -0.5000 
    115 CA        -6.1231  -18.9345  -55.7738 C.3       21 UNK         0.1400 
    116 CB        -6.6997  -20.3585  -55.7333 C.3       21 UNK        -0.1800 
    117 C         -4.8471  -18.8888  -56.6322 C.2       21 UNK         0.5000 
    118 O         -4.9356  -18.6033  -57.8276 O.2       21 UNK        -0.5000 
    119 N         -3.6920  -19.1741  -56.0187 N.am      22 UNK        -0.5000 
    120 CA        -2.3688  -19.0875  -56.6533 C.3       22 UNK         0.1400 
    121 C         -1.8286  -17.6313  -56.7558 C.2       22 UNK         0.5000 
    122 N         -0.8097  -17.4022  -57.5742 N.am      22 UNK        -0.7600 
    123 O         -2.3054  -16.7075  -56.1005 O.2       22 UNK        -0.5000 
    124 C124       -1.3489  -20.0658  -56.0097 C.3       23 UNK        -0.0398 
    125 S125       -1.1449  -19.9024  -54.2023 S.3       23 UNK        -0.2404 
    126 C126        0.3694  -18.8992  -54.1058 C.3       23 UNK        -0.0205 
    127 H127        5.4229  -13.9510  -46.3950 H         1 UNK         0.0600 
    128 H128        4.4404  -13.9321  -44.9281 H         1 UNK         0.0600 
    129 H129        5.1767  -12.4385  -45.5141 H         1 UNK         0.0600 
    130 H130        2.2677  -14.0046  -45.3448 H         1 UNK         0.3000 
    131 H131        0.3200  -14.0240  -46.2767 H         1 UNK         0.0600 
    132 H132       -0.1602  -13.8154  -48.6662 H         1 UNK         0.0800 
    133 H133        1.4376  -13.2118  -49.0093 H         1 UNK         0.0800 
    134 H134        0.1134  -15.3958  -50.5464 H         1 UNK         0.0800 
    135 H135       -0.6299  -16.4373  -49.3561 H         1 UNK         0.0800 
    136 H136       -0.2753  -16.8933  -52.3812 H         1 UNK         0.1150 
    137 H137        2.0236  -20.4953  -52.6478 H         1 UNK         0.1150 
    138 H138        1.9772  -18.2677  -48.9927 H         1 UNK         0.1150 
    139 H139        3.5998  -20.0469  -49.2961 H         1 UNK         0.0800 
    140 H140        3.8255  -20.7527  -50.8741 H         1 UNK         0.0800 
    141 H141        0.5073  -20.7752  -48.3856 H         1 UNK         0.0800 
    142 H142        2.0510  -20.7738  -47.5729 H         1 UNK         0.0800 
    143 H143        1.7253  -23.3242  -47.2080 H         1 UNK         0.0600 
    144 H144        0.7605  -21.1893  -45.6185 H         1 UNK         0.3000 
    145 H145       -0.1334  -23.2159  -42.7835 H         1 UNK         0.0600 
    146 H146        1.4216  -21.6077  -41.7357 H         1 UNK         0.0600 
    147 H147        2.3293  -22.7635  -42.6983 H         1 UNK         0.0600 
    148 H148        2.0559  -21.1363  -43.3109 H         1 UNK         0.0600 
    149 H149       -0.3257  -20.4168  -43.1817 H         1 UNK         0.3000 
    150 H150       -3.6438  -20.3885  -44.5922 H         1 UNK         0.0600 
    151 H151       -3.8380  -20.4927  -42.1078 H         1 UNK         0.0600 
    152 H152       -3.8997  -18.8308  -42.6774 H         1 UNK         0.0600 
    153 H153       -2.4271  -19.4553  -41.9386 H         1 UNK         0.0600 
    154 H154       -1.9106  -18.2293  -44.0798 H         1 UNK         0.3000 
    155 H155       -0.2128  -18.1680  -47.2482 H         1 UNK         0.0600 
    156 H156       -2.2936  -16.4103  -45.8306 H         1 UNK         0.0600 
    157 H157       -1.1029  -15.8316  -46.9880 H         1 UNK         0.0600 
    158 H158       -2.3475  -16.9595  -47.4951 H         1 UNK         0.0600 
    159 H159        0.0632  -16.6310  -44.8401 H         1 UNK         0.3000 
    160 H160        2.6438  -18.5756  -43.3422 H         1 UNK         0.0600 
    161 H161        2.7080  -15.8807  -44.7938 H         1 UNK         0.0600 
    162 H162        3.8474  -17.1999  -45.0025 H         1 UNK         0.0600 
    163 H163        3.7764  -16.3420  -43.4694 H         1 UNK         0.0600 
    164 H164        1.2922  -16.0900  -42.7224 H         1 UNK         0.3000 
    165 H165       -1.2941  -17.5622  -40.7474 H         1 UNK         0.0600 
    166 H166       -0.3024  -16.1715  -38.9495 H         1 UNK         0.0600 
    167 H167        0.6709  -17.6117  -39.2007 H         1 UNK         0.0600 
    168 H168        1.2214  -16.0641  -39.8322 H         1 UNK         0.0600 
    169 H169       -0.5162  -14.8540  -41.1317 H         1 UNK         0.3000 
    170 H170       -1.7356  -14.2610  -44.3256 H         1 UNK         0.0600 
    171 H171       -3.9971  -14.3853  -43.2632 H         1 UNK         0.0600 
    172 H172       -3.3853  -13.5436  -41.8439 H         1 UNK         0.0600 
    173 H173       -3.4443  -12.7252  -43.4063 H         1 UNK         0.0600 
    174 H174       -1.2336  -12.3650  -42.3338 H         1 UNK         0.3000 
    175 H175        1.1160  -11.9209  -41.4566 H         1 UNK         0.0600 
    176 H176        2.9520  -12.0003  -43.9099 H         1 UNK         0.0600 
    177 H177        3.2934  -11.2342  -42.3661 H         1 UNK         0.0600 
    178 H178        3.1966  -12.9841  -42.4670 H         1 UNK         0.0600 
    179 H179        0.1902  -10.9760  -44.0528 H         1 UNK         0.3000 
    180 H180       -0.9494   -8.3999  -43.2922 H         1 UNK         0.0600 
    181 H181        1.7903   -7.0582  -43.5728 H         1 UNK         0.0600 
    182 H182        0.5846   -6.7391  -42.3353 H         1 UNK         0.0600 
    183 H183        0.2516   -6.3133  -44.0051 H         1 UNK         0.0600 
    184 H184       -0.8297   -8.9755  -45.4157 H         1 UNK         0.3000 
    185 H185       -0.2140   -9.3843  -47.4447 H         1 UNK         0.0600 
    186 H186        1.4909   -7.7284  -48.2431 H         1 UNK         0.0600 
    187 H187        2.7378   -8.9683  -48.1636 H         1 UNK         0.0600 
    188 H188        1.3973   -9.1321  -49.2961 H         1 UNK         0.0600 
    189 H189        1.9857  -11.2400  -47.7854 H         1 UNK         0.3000 
    190 H190       -1.5505  -21.8443  -46.9869 H         1 UNK         0.3000 
    191 H191       -2.7870  -23.4231  -48.9405 H         1 UNK         0.0600 
    192 H192       -4.0050  -22.1606  -46.4221 H         1 UNK         0.0600 
    193 H193       -4.9127  -22.7186  -47.8223 H         1 UNK         0.0600 
    194 H194       -3.8051  -21.3648  -47.9788 H         1 UNK         0.0600 
    195 H195       -2.4019  -24.0410  -45.4330 H         1 UNK         0.3000 
    196 H196       -3.8264  -26.4917  -45.3177 H         1 UNK         0.0600 
    197 H197       -2.5857  -26.7960  -43.1665 H         1 UNK         0.0600 
    198 H198       -3.2414  -25.1717  -43.3080 H         1 UNK         0.0600 
    199 H199       -1.5239  -25.4548  -43.5800 H         1 UNK         0.0600 
    200 H200       -0.3851  -25.8093  -46.0440 H         1 UNK         0.3000 
    201 H201        0.4329  -28.5564  -46.2356 H         1 UNK         0.0600 
    202 H202        2.0334  -26.7208  -45.7864 H         1 UNK         0.0600 
    203 H203        1.7046  -26.0059  -47.3621 H         1 UNK         0.0600 
    204 H204        2.4869  -27.5777  -47.2525 H         1 UNK         0.0600 
    205 H205       -0.5725  -26.1218  -48.6796 H         1 UNK         0.3000 
    206 H206       -0.1986  -27.8087  -50.9576 H         1 UNK         0.0600 
    207 H207       -0.1828  -25.3254  -51.0697 H         1 UNK         0.0600 
    208 H208       -1.4221  -25.9722  -52.1348 H         1 UNK         0.0600 
    209 H209       -1.8776  -25.2681  -50.5881 H         1 UNK         0.0600 
    210 H210       -2.9153  -27.3249  -48.7867 H         1 UNK         0.3000 
    211 H211       -4.9297  -28.1611  -48.5286 H         1 UNK         0.0600 
    212 H212       -4.2814  -30.3574  -50.5650 H         1 UNK         0.0600 
    213 H213       -5.5928  -30.3581  -49.3964 H         1 UNK         0.0600 
    214 H214       -3.9293  -30.4405  -48.8390 H         1 UNK         0.0600 
    215 H215       -4.5206  -25.9777  -50.1486 H         1 UNK         0.3000 
    216 H216       -6.9629  -25.7787  -51.6507 H         1 UNK         0.0600 
    217 H217       -5.8162  -25.0516  -53.7811 H         1 UNK         0.0600 
    218 H218       -5.4827  -26.7430  -53.4443 H         1 UNK         0.0600 
    219 H219       -4.2581  -25.5205  -53.1093 H         1 UNK         0.0600 
    220 H220       -7.3277  -23.4642  -52.1674 H         1 UNK         0.3000 
    221 H221       -6.5294  -21.7909  -50.0130 H         1 UNK         0.0600 
    222 H222       -7.9539  -21.1157  -52.6430 H         1 UNK         0.0600 
    223 H223       -8.7282  -21.5919  -51.1321 H         1 UNK         0.0600 
    224 H224       -7.8684  -20.0646  -51.2351 H         1 UNK         0.0600 
    225 H225       -4.8272  -20.4528  -49.7612 H         1 UNK         0.3000 
    226 H226       -2.7734  -20.1154  -51.7270 H         1 UNK         0.0600 
    227 H227       -2.2391  -20.1441  -49.3448 H         1 UNK         0.0600 
    228 H228       -1.8021  -18.5759  -49.9867 H         1 UNK         0.0600 
    229 H229       -3.2721  -18.7459  -49.0344 H         1 UNK         0.0600 
    230 H230       -5.7413  -18.4503  -51.2699 H         1 UNK         0.3000 
    231 H231       -4.9898  -15.9370  -52.5377 H         1 UNK         0.0600 
    232 H232       -7.4518  -15.5492  -52.4944 H         1 UNK         0.0600 
    233 H233       -6.8770  -16.0738  -50.9204 H         1 UNK         0.0600 
    234 H234       -7.7248  -17.2074  -51.9737 H         1 UNK         0.0600 
    235 H235       -5.7407  -19.1605  -53.7008 H         1 UNK         0.3000 
    236 H236       -6.8676  -18.2934  -56.2512 H         1 UNK         0.0600 
    237 H237       -7.6058  -20.4023  -55.1291 H         1 UNK         0.0600 
    238 H238       -6.9609  -20.6986  -56.7361 H         1 UNK         0.0600 
    239 H239       -5.9865  -21.0743  -55.3243 H         1 UNK         0.0600 
    240 H240       -3.6945  -19.3573  -55.0257 H         1 UNK         0.3000 
    241 H241       -2.4933  -19.4200  -57.6860 H         1 UNK         0.0600 
    242 H242       -0.4025  -18.1325  -58.1378 H         1 UNK         0.3800 
    243 H243       -0.4478  -16.4641  -57.6494 H         1 UNK         0.3800 
    244 H244       -0.3760  -19.9930  -56.4980 H         1 UNK         0.0800 
    245 H245       -1.6818  -21.0874  -56.1972 H         1 UNK         0.0800 
    246 H246        0.1918  -17.9268  -54.5671 H         1 UNK         0.0800 
    247 H247        1.1627  -19.3764  -54.6832 H         1 UNK         0.0800 
@<TRIPOS>BOND
     1    1    2 1    
     2    1  127 1    
     3    1  128 1    
     4    1  129 1    
     5    2    3 2    
     6    2    4 am   BACKBONE|DICT|INTERRES
     7    4    5 1    
     8    4  130 1    
     9    5    6 1    
    10    5   65 1    
    11    5  131 1    
    12    6    7 1    
    13    6  132 1    
    14    6  133 1    
    15    7    8 1    
    16    8    9 1    
    17    8  134 1    
    18    8  135 1    
    19    9   10 ar   
    20    9   14 ar   
    21   10   11 ar   
    22   10  136 1    
    23   11   12 ar   
    24   11  126 1    
    25   12   13 ar   
    26   12  137 1    
    27   13   14 ar   
    28   13   15 1    
    29   14  138 1    
    30   15   16 1    
    31   15  139 1    
    32   15  140 1    
    33   16   17 1    
    34   17   18 1    
    35   17  141 1    
    36   17  142 1    
    37   18   19 1    
    38   18   67 1    
    39   18  143 1    
    40   19   20 am   BACKBONE|DICT|INTERRES
    41   19  144 1    
    42   20   21 2    
    43   20   22 1    
    44   22   23 1    
    45   22   24 1    
    46   22  145 1    
    47   23  146 1    
    48   23  147 1    
    49   23  148 1    
    50   24   25 am   BACKBONE|DICT|INTERRES
    51   24  149 1    
    52   25   26 2    
    53   25   27 1    
    54   27   28 1    
    55   27   29 1    
    56   27  150 1    
    57   28  151 1    
    58   28  152 1    
    59   28  153 1    
    60   29   30 am   BACKBONE|DICT|INTERRES
    61   29  154 1    
    62   30   31 2    
    63   30   32 1    
    64   32   33 1    
    65   32   34 1    
    66   32  155 1    
    67   33  156 1    
    68   33  157 1    
    69   33  158 1    
    70   34   35 am   BACKBONE|DICT|INTERRES
    71   34  159 1    
    72   35   36 2    
    73   35   37 1    
    74   37   38 1    
    75   37   39 1    
    76   37  160 1    
    77   38  161 1    
    78   38  162 1    
    79   38  163 1    
    80   39   40 am   BACKBONE|DICT|INTERRES
    81   39  164 1    
    82   40   41 2    
    83   40   42 1    
    84   42   43 1    
    85   42   44 1    
    86   42  165 1    
    87   43  166 1    
    88   43  167 1    
    89   43  168 1    
    90   44   45 am   BACKBONE|DICT|INTERRES
    91   44  169 1    
    92   45   46 2    
    93   45   47 1    
    94   47   48 1    
    95   47   49 1    
    96   47  170 1    
    97   48  171 1    
    98   48  172 1    
    99   48  173 1    
   100   49   50 am   BACKBONE|DICT|INTERRES
   101   49  174 1    
   102   50   51 2    
   103   50   52 1    
   104   52   53 1    
   105   52   54 1    
   106   52  175 1    
   107   53  176 1    
   108   53  177 1    
   109   53  178 1    
   110   54   55 am   BACKBONE|DICT|INTERRES
   111   54  179 1    
   112   55   56 2    
   113   55   57 1    
   114   57   58 1    
   115   57   59 1    
   116   57  180 1    
   117   58  181 1    
   118   58  182 1    
   119   58  183 1    
   120   59   60 am   BACKBONE|DICT|INTERRES
   121   59  184 1    
   122   60   61 2    
   123   60   62 1    
   124   62   63 1    
   125   62   64 1    
   126   62  185 1    
   127   63  186 1    
   128   63  187 1    
   129   63  188 1    
   130   64   65 am   BACKBONE|DICT|INTERRES
   131   64  189 1    
   132   65   66 2    
   133   67   68 2    
   134   67   69 am   BACKBONE|DICT|INTERRES
   135   69   70 1    
   136   69  190 1    
   137   70   71 1    
   138   70   72 1    
   139   70  191 1    
   140   71  192 1    
   141   71  193 1    
   142   71  194 1    
   143   72   73 2    
   144   72   74 am   BACKBONE|DICT|INTERRES
   145   74   75 1    
   146   74  195 1    
   147   75   76 1    
   148   75   77 1    
   149   75  196 1    
   150   76  197 1    
   151   76  198 1    
   152   76  199 1    
   153   77   78 2    
   154   77   79 am   BACKBONE|DICT|INTERRES
   155   79   80 1    
   156   79  200 1    
   157   80   81 1    
   158   80   82 1    
   159   80  201 1    
   160   81  202 1    
   161   81  203 1    
   162   81  204 1    
   163   82   83 2    
   164   82   84 am   BACKBONE|DICT|INTERRES
   165   84   85 1    
   166   84  205 1    
   167   85   86 1    
   168   85   87 1    
   169   85  206 1    
   170   86  207 1    
   171   86  208 1    
   172   86  209 1    
   173   87   88 2    
   174   87   89 am   BACKBONE|DICT|INTERRES
   175   89   90 1    
   176   89  210 1    
   177   90   91 1    
   178   90   92 1    
   179   90  211 1    
   180   91  212 1    
   181   91  213 1    
   182   91  214 1    
   183   92   93 2    
   184   92   94 am   BACKBONE|DICT|INTERRES
   185   94   95 1    
   186   94  215 1    
   187   95   96 1    
   188   95   97 1    
   189   95  216 1    
   190   96  217 1    
   191   96  218 1    
   192   96  219 1    
   193   97   98 2    
   194   97   99 am   BACKBONE|DICT|INTERRES
   195   99  100 1    
   196   99  220 1    
   197  100  101 1    
   198  100  102 1    
   199  100  221 1    
   200  101  222 1    
   201  101  223 1    
   202  101  224 1    
   203  102  103 2    
   204  102  104 am   BACKBONE|DICT|INTERRES
   205  104  105 1    
   206  104  225 1    
   207  105  106 1    
   208  105  107 1    
   209  105  226 1    
   210  106  227 1    
   211  106  228 1    
   212  106  229 1    
   213  107  108 2    
   214  107  109 am   BACKBONE|DICT|INTERRES
   215  109  110 1    
   216  109  230 1    
   217  110  111 1    
   218  110  112 1    
   219  110  231 1    
   220  111  232 1    
   221  111  233 1    
   222  111  234 1    
   223  112  113 2    
   224  112  114 am   BACKBONE|DICT|INTERRES
   225  114  115 1    
   226  114  235 1    
   227  115  116 1    
   228  115  117 1    
   229  115  236 1    
   230  116  237 1    
   231  116  238 1    
   232  116  239 1    
   233  117  118 2    
   234  117  119 am   BACKBONE|DICT|INTERRES
   235  119  120 1    
   236  119  240 1    
   237  120  121 1    
   238  120  124 1    
   239  120  241 1    
   240  121  122 am   BACKBONE|DICT|INTERRES
   241  121  123 2    
   242  122  242 1    
   243  122  243 1    
   244  124  125 1    
   245  124  244 1    
   246  124  245 1    
   247  125  126 1    
   248  126  246 1    
   249  126  247 1    
@<TRIPOS>SUBSTRUCTURE
     1 UNK         1 GROUP             0       ****    0 ROOT    
