@<TRIPOS>MOLECULE
3R540
247   249    1
SMALL
USER_CHARGES


@<TRIPOS>ATOM
      1 CA         -2.2396   -9.4059  -49.7893 C.3       0 UNK        -0.1800 
      2 C          -1.7525  -10.1252  -48.5397 C.2       0 UNK         0.5000 
      3 O          -2.4979  -10.2277  -47.5658 O.2       0 UNK        -0.5000 
      4 N          -0.5086  -10.6244  -48.5718 N.am      1 UNK        -0.5000 
      5 CA          0.1655  -11.3715  -47.4967 C.3       1 UNK         0.1400 
      6 C6         -0.4833  -12.7501  -47.1840 C.3       23 UNK        -0.0398 
      7 S7         -0.5323  -13.8553  -48.6350 S.3       23 UNK        -0.2404 
      8 C8         -2.3066  -13.8185  -49.0265 C.3       23 UNK        -0.0205 
      9 C9         -2.6374  -14.7411  -50.1865 C.ar      23 UNK        -0.0193 
     10 C10        -2.7079  -14.2463  -51.4911 C.ar      23 UNK        -0.1150 
     11 C11        -3.0351  -15.0953  -52.5519 C.ar      23 UNK        -0.0193 
     12 C12        -3.2984  -16.4448  -52.2973 C.ar      23 UNK        -0.1150 
     13 C13        -3.2339  -16.9546  -50.9966 C.ar      23 UNK        -0.0193 
     14 C14        -2.8931  -16.0926  -49.9477 C.ar      23 UNK        -0.1150 
     15 C15        -3.5175  -18.4369  -50.7627 C.3       23 UNK        -0.0205 
     16 S16        -4.4722  -18.7917  -49.2504 S.3       23 UNK        -0.2404 
     17 C17        -3.1332  -19.0927  -48.0449 C.3       23 UNK        -0.0398 
     18 CA         -2.7693  -20.5905  -47.9265 C.3       11 UNK         0.1400 
     19 N          -1.4430  -20.7869  -47.3351 N.am      11 UNK        -0.5000 
     20 C          -0.7829  -21.9527  -47.3113 C.2       10 UNK         0.5000 
     21 O          -1.1994  -22.9765  -47.8476 O.2       10 UNK        -0.5000 
     22 CA          0.5301  -22.0095  -46.5093 C.3       10 UNK         0.1400 
     23 CB          1.7235  -21.5459  -47.3542 C.3       10 UNK        -0.1800 
     24 N           0.4654  -21.2317  -45.2729 N.am      10 UNK        -0.5000 
     25 C          -0.3478  -21.5205  -44.2478 C.2       9 UNK         0.5000 
     26 O          -1.0754  -22.5133  -44.2172 O.2       9 UNK        -0.5000 
     27 CA         -0.3919  -20.5108  -43.0870 C.3       9 UNK         0.1400 
     28 CB          0.7845  -20.7366  -42.1260 C.3       9 UNK        -0.1800 
     29 N          -0.3963  -19.1198  -43.5457 N.am      9 UNK        -0.5000 
     30 C          -1.3760  -18.5587  -44.2695 C.2       8 UNK         0.5000 
     31 O          -2.4057  -19.1498  -44.5952 O.2       8 UNK        -0.5000 
     32 CA         -1.1432  -17.1165  -44.7623 C.3       8 UNK         0.1400 
     33 CB         -1.4021  -16.0959  -43.6448 C.3       8 UNK        -0.1800 
     34 N           0.2013  -16.9209  -45.3048 N.am      8 UNK        -0.5000 
     35 C           0.6788  -17.5572  -46.3839 C.2       7 UNK         0.5000 
     36 O           0.0161  -18.3377  -47.0650 O.2       7 UNK        -0.5000 
     37 CA          2.1623  -17.3355  -46.7178 C.3       7 UNK         0.1400 
     38 CB          2.3595  -16.0414  -47.5203 C.3       7 UNK        -0.1800 
     39 N           2.9888  -17.3107  -45.5096 N.am      7 UNK        -0.5000 
     40 C           3.2452  -18.3887  -44.7537 C.2       6 UNK         0.5000 
     41 O           2.8385  -19.5193  -45.0180 O.2       6 UNK        -0.5000 
     42 CA          4.0580  -18.1615  -43.4657 C.3       6 UNK         0.1400 
     43 CB          5.5628  -18.1358  -43.7718 C.3       6 UNK        -0.1800 
     44 N           3.6828  -16.9302  -42.7703 N.am      6 UNK        -0.5000 
     45 C           2.4877  -16.7129  -42.2030 C.2       5 UNK         0.5000 
     46 O           1.5872  -17.5498  -42.1668 O.2       5 UNK        -0.5000 
     47 CA          2.2379  -15.3068  -41.6254 C.3       5 UNK         0.1400 
     48 CB          2.6824  -15.2388  -40.1572 C.3       5 UNK        -0.1800 
     49 N           2.8959  -14.2373  -42.3812 N.am      5 UNK        -0.5000 
     50 C           2.6826  -13.9693  -43.6761 C.2       4 UNK         0.5000 
     51 O           1.8987  -14.6048  -44.3847 O.2       4 UNK        -0.5000 
     52 CA          3.4740  -12.7853  -44.2506 C.3       4 UNK         0.1400 
     53 CB          3.4489  -12.7420  -45.7879 C.3       4 UNK        -0.1800 
     54 N           2.9179  -11.5433  -43.7220 N.am      4 UNK        -0.5000 
     55 C           3.4083  -10.8644  -42.6759 C.2       3 UNK         0.5000 
     56 O           4.3918  -11.2407  -42.0355 O.2       3 UNK        -0.5000 
     57 CA          2.6709   -9.5739  -42.2475 C.3       3 UNK         0.1400 
     58 CB          3.6396   -8.4768  -41.7579 C.3       3 UNK        -0.1800 
     59 N           1.7427   -9.0450  -43.2558 N.am      3 UNK        -0.5000 
     60 C           2.0385   -8.5670  -44.4732 C.2       2 UNK         0.5000 
     61 O           3.1807   -8.4543  -44.9220 O.2       2 UNK        -0.5000 
     62 CA          0.8312   -8.2112  -45.3622 C.3       2 UNK         0.1400 
     63 CB          0.9973   -6.8272  -46.0108 C.3       2 UNK        -0.1800 
     64 N           0.6131   -9.2076  -46.4127 N.am      2 UNK        -0.5000 
     65 C           0.3741  -10.5147  -46.2244 C.2       1 UNK         0.5000 
     66 O           0.3223  -11.0401  -45.1103 O.2       1 UNK        -0.5000 
     67 C          -3.8573  -21.3942  -47.1823 C.2       11 UNK         0.5000 
     68 O          -4.6922  -22.0292  -47.8271 O.2       11 UNK        -0.5000 
     69 N          -3.8004  -21.3980  -45.8424 N.am      12 UNK        -0.5000 
     70 CA         -4.6817  -22.1905  -44.9822 C.3       12 UNK         0.1400 
     71 CB         -4.4610  -21.8008  -43.5131 C.3       12 UNK        -0.1800 
     72 C          -4.5138  -23.7091  -45.1871 C.2       12 UNK         0.5000 
     73 O          -5.5042  -24.4375  -45.1282 O.2       12 UNK        -0.5000 
     74 N          -3.2804  -24.1554  -45.4649 N.am      13 UNK        -0.5000 
     75 CA         -2.9784  -25.5260  -45.8755 C.3       13 UNK         0.1400 
     76 CB         -1.4706  -25.7925  -45.7528 C.3       13 UNK        -0.1800 
     77 C          -3.4871  -25.8217  -47.2987 C.2       13 UNK         0.5000 
     78 O          -4.1657  -26.8290  -47.4992 O.2       13 UNK        -0.5000 
     79 N          -3.1962  -24.9238  -48.2527 N.am      14 UNK        -0.5000 
     80 CA         -3.5937  -25.0094  -49.6642 C.3       14 UNK         0.1400 
     81 CB         -2.9800  -23.8414  -50.4509 C.3       14 UNK        -0.1800 
     82 C          -5.1157  -25.0680  -49.8947 C.2       14 UNK         0.5000 
     83 O          -5.5538  -25.6333  -50.8948 O.2       14 UNK        -0.5000 
     84 N          -5.9048  -24.5429  -48.9487 N.am      15 UNK        -0.5000 
     85 CA         -7.3632  -24.6698  -48.9153 C.3       15 UNK         0.1400 
     86 CB         -7.9132  -23.8355  -47.7493 C.3       15 UNK        -0.1800 
     87 C          -7.8593  -26.1309  -48.8222 C.2       15 UNK         0.5000 
     88 O          -8.9731  -26.4116  -49.2672 O.2       15 UNK        -0.5000 
     89 N          -7.0300  -27.0289  -48.2706 N.am      16 UNK        -0.5000 
     90 CA         -7.2774  -28.4687  -48.1993 C.3       16 UNK         0.1400 
     91 CB         -7.0788  -28.9382  -46.7494 C.3       16 UNK        -0.1800 
     92 C          -6.3474  -29.2481  -49.1470 C.2       16 UNK         0.5000 
     93 O          -6.7989  -30.1904  -49.7985 O.2       16 UNK        -0.5000 
     94 N          -5.0675  -28.8544  -49.2047 N.am      17 UNK        -0.5000 
     95 CA         -4.0056  -29.5408  -49.9470 C.3       17 UNK         0.1400 
     96 CB         -2.6537  -29.1789  -49.3092 C.3       17 UNK        -0.1800 
     97 C          -3.9844  -29.2469  -51.4618 C.2       17 UNK         0.5000 
     98 O          -3.2284  -29.9037  -52.1794 O.2       17 UNK        -0.5000 
     99 N          -4.7925  -28.2773  -51.9126 N.am      18 UNK        -0.5000 
    100 CA        -4.8556  -27.6993  -53.2599 C.3       18 UNK         0.1400 
    101 CB        -5.0775  -28.7780  -54.3438 C.3       18 UNK        -0.1800 
    102 C         -3.6574  -26.7722  -53.5610 C.2       18 UNK         0.5000 
    103 O         -2.8162  -26.5340  -52.6908 O.2       18 UNK        -0.5000 
    104 N         -3.6327  -26.2337  -54.7887 N.am      19 UNK        -0.5000 
    105 CA        -2.7404  -25.1740  -55.2733 C.3       19 UNK         0.1400 
    106 CB        -1.2560  -25.6047  -55.2213 C.3       19 UNK        -0.1800 
    107 C         -3.0411  -23.8230  -54.5848 C.2       19 UNK         0.5000 
    108 O         -4.2051  -23.5443  -54.2868 O.2       19 UNK        -0.5000 
    109 N         -2.0146  -22.9925  -54.3768 N.am      20 UNK        -0.5000 
    110 CA        -2.0991  -21.6689  -53.7661 C.3       20 UNK         0.1400 
    111 CB        -2.5731  -20.6372  -54.8090 C.3       20 UNK        -0.1800 
    112 C         -0.7266  -21.2916  -53.1878 C.2       20 UNK         0.5000 
    113 O          0.2573  -21.9979  -53.4255 O.2       20 UNK        -0.5000 
    114 N         -0.6898  -20.1762  -52.4512 N.am      21 UNK        -0.5000 
    115 CA         0.4985  -19.6387  -51.7843 C.3       21 UNK         0.1400 
    116 CB         0.4355  -19.9793  -50.2855 C.3       21 UNK        -0.1800 
    117 C          0.6451  -18.1257  -52.0391 C.2       21 UNK         0.5000 
    118 O          1.1722  -17.4084  -51.1885 O.2       21 UNK        -0.5000 
    119 N          0.1727  -17.6645  -53.2059 N.am      22 UNK        -0.5000 
    120 CA         0.2330  -16.2551  -53.6334 C.3       22 UNK         0.1400 
    121 C          1.6597  -15.7485  -54.0121 C.2       22 UNK         0.5000 
    122 N          2.6331  -16.6207  -54.2476 N.am      22 UNK        -0.7600 
    123 O          1.8939  -14.5457  -54.0850 O.2       22 UNK        -0.5000 
    124 C124       -0.7942  -15.9720  -54.7645 C.3       23 UNK        -0.0398 
    125 S125       -1.4706  -14.2764  -54.6995 S.3       23 UNK        -0.2404 
    126 C126       -3.1171  -14.5515  -53.9709 C.3       23 UNK        -0.0205 
    127 H127       -2.5048   -8.3760  -49.5504 H         1 UNK         0.0600 
    128 H128       -1.4796   -9.3892  -50.5709 H         1 UNK         0.0600 
    129 H129       -3.1240   -9.9039  -50.1868 H         1 UNK         0.0600 
    130 H130        0.0376  -10.5077  -49.4140 H         1 UNK         0.3000 
    131 H131        1.1706  -11.5694  -47.8715 H         1 UNK         0.0600 
    132 H132       -1.4865  -12.6216  -46.7753 H         1 UNK         0.0800 
    133 H133        0.0835  -13.2755  -46.4130 H         1 UNK         0.0800 
    134 H134       -2.8798  -14.1146  -48.1465 H         1 UNK         0.0800 
    135 H135       -2.6102  -12.7990  -49.2634 H         1 UNK         0.0800 
    136 H136       -2.5065  -13.2015  -51.6827 H         1 UNK         0.1150 
    137 H137       -3.5561  -17.1002  -53.1173 H         1 UNK         0.1150 
    138 H138       -2.8333  -16.4583  -48.9345 H         1 UNK         0.1150 
    139 H139       -4.0824  -18.8420  -51.6038 H         1 UNK         0.0800 
    140 H140       -2.5753  -18.9812  -50.7354 H         1 UNK         0.0800 
    141 H141       -3.4240  -18.6776  -47.0788 H         1 UNK         0.0800 
    142 H142       -2.2546  -18.5289  -48.3564 H         1 UNK         0.0800 
    143 H143       -2.7060  -20.9916  -48.9394 H         1 UNK         0.0600 
    144 H144       -0.9967  -19.9665  -46.9344 H         1 UNK         0.3000 
    145 H145        0.7001  -23.0534  -46.2377 H         1 UNK         0.0600 
    146 H146        2.6638  -21.7142  -46.8292 H         1 UNK         0.0600 
    147 H147        1.7749  -22.0920  -48.2968 H         1 UNK         0.0600 
    148 H148        1.6596  -20.4839  -47.5862 H         1 UNK         0.0600 
    149 H149        1.0846  -20.4299  -45.2050 H         1 UNK         0.3000 
    150 H150       -1.3181  -20.6818  -42.5349 H         1 UNK         0.0600 
    151 H151        0.8018  -21.7651  -41.7635 H         1 UNK         0.0600 
    152 H152        0.7109  -20.0859  -41.2545 H         1 UNK         0.0600 
    153 H153        1.7423  -20.5411  -42.6090 H         1 UNK         0.0600 
    154 H154        0.3985  -18.5497  -43.2685 H         1 UNK         0.3000 
    155 H155       -1.8546  -16.9223  -45.5678 H         1 UNK         0.0600 
    156 H156       -0.7298  -16.2423  -42.7999 H         1 UNK         0.0600 
    157 H157       -2.4227  -16.1807  -43.2699 H         1 UNK         0.0600 
    158 H158       -1.2696  -15.0751  -44.0047 H         1 UNK         0.0600 
    159 H159        0.8057  -16.2633  -44.8230 H         1 UNK         0.3000 
    160 H160        2.4945  -18.1685  -47.3408 H         1 UNK         0.0600 
    161 H161        1.8145  -16.0883  -48.4644 H         1 UNK         0.0600 
    162 H162        3.4101  -15.8782  -47.7598 H         1 UNK         0.0600 
    163 H163        1.9957  -15.1677  -46.9802 H         1 UNK         0.0600 
    164 H164        3.2956  -16.4042  -45.1890 H         1 UNK         0.3000 
    165 H165        3.8606  -19.0013  -42.7960 H         1 UNK         0.0600 
    166 H166        6.1499  -18.0554  -42.8568 H         1 UNK         0.0600 
    167 H167        5.8733  -19.0519  -44.2762 H         1 UNK         0.0600 
    168 H168        5.8301  -17.2986  -44.4177 H         1 UNK         0.0600 
    169 H169        4.3659  -16.1877  -42.7515 H         1 UNK         0.3000 
    170 H170        1.1626  -15.1227  -41.6647 H         1 UNK         0.0600 
    171 H171        2.1904  -16.0110  -39.5642 H         1 UNK         0.0600 
    172 H172        3.7589  -15.3817  -40.0549 H         1 UNK         0.0600 
    173 H173        2.4270  -14.2770  -39.7118 H         1 UNK         0.0600 
    174 H174        3.5389  -13.6484  -41.8693 H         1 UNK         0.3000 
    175 H175        4.5167  -12.8976  -43.9462 H         1 UNK         0.0600 
    176 H176        2.4332  -12.7165  -46.1763 H         1 UNK         0.0600 
    177 H177        3.9754  -11.8659  -46.1669 H         1 UNK         0.0600 
    178 H178        3.9365  -13.6223  -46.2079 H         1 UNK         0.0600 
    179 H179        2.0537  -11.2237  -44.1491 H         1 UNK         0.3000 
    180 H180        2.0508   -9.8610  -41.3972 H         1 UNK         0.0600 
    181 H181        4.3549   -8.1920  -42.5298 H         1 UNK         0.0600 
    182 H182        4.2125   -8.8168  -40.8945 H         1 UNK         0.0600 
    183 H183        3.0995   -7.5806  -41.4529 H         1 UNK         0.0600 
    184 H184        0.7644   -9.1396  -43.0190 H         1 UNK         0.3000 
    185 H185       -0.0665   -8.1824  -44.7411 H         1 UNK         0.0600 
    186 H186        1.1623   -6.0595  -45.2537 H         1 UNK         0.0600 
    187 H187        1.8458   -6.8005  -46.6957 H         1 UNK         0.0600 
    188 H188        0.1056   -6.5442  -46.5705 H         1 UNK         0.0600 
    189 H189        0.6504   -8.8677  -47.3623 H         1 UNK         0.3000 
    190 H190       -3.1166  -20.8070  -45.3787 H         1 UNK         0.3000 
    191 H191       -5.7107  -21.9372  -45.2461 H         1 UNK         0.0600 
    192 H192       -3.4520  -22.0377  -43.1776 H         1 UNK         0.0600 
    193 H193       -5.1552  -22.3329  -42.8616 H         1 UNK         0.0600 
    194 H194       -4.6225  -20.7336  -43.3593 H         1 UNK         0.0600 
    195 H195       -2.5072  -23.5012  -45.4270 H         1 UNK         0.3000 
    196 H196       -3.4915  -26.2062  -45.1922 H         1 UNK         0.0600 
    197 H197       -0.8862  -25.1522  -46.4125 H         1 UNK         0.0600 
    198 H198       -1.2374  -26.8263  -46.0104 H         1 UNK         0.0600 
    199 H199       -1.1237  -25.6239  -44.7332 H         1 UNK         0.0600 
    200 H200       -2.5959  -24.1381  -48.0102 H         1 UNK         0.3000 
    201 H201       -3.1753  -25.9361  -50.0590 H         1 UNK         0.0600 
    202 H202       -1.8938  -23.8267  -50.3613 H         1 UNK         0.0600 
    203 H203       -3.3643  -22.8818  -50.1087 H         1 UNK         0.0600 
    204 H204       -3.2143  -23.9262  -51.5123 H         1 UNK         0.0600 
    205 H205       -5.4691  -24.0170  -48.2002 H         1 UNK         0.3000 
    206 H206       -7.7497  -24.2512  -49.8466 H         1 UNK         0.0600 
    207 H207       -7.5815  -24.2247  -46.7868 H         1 UNK         0.0600 
    208 H208       -9.0038  -23.8413  -47.7462 H         1 UNK         0.0600 
    209 H209       -7.5927  -22.7957  -47.8199 H         1 UNK         0.0600 
    210 H210       -6.1247  -26.7131  -47.9396 H         1 UNK         0.3000 
    211 H211       -8.3057  -28.6968  -48.4869 H         1 UNK         0.0600 
    212 H212       -6.0683  -28.7341  -46.3926 H         1 UNK         0.0600 
    213 H213       -7.2501  -30.0116  -46.6586 H         1 UNK         0.0600 
    214 H214       -7.7767  -28.4392  -46.0769 H         1 UNK         0.0600 
    215 H215       -4.7639  -28.0886  -48.6065 H         1 UNK         0.3000 
    216 H216       -4.1500  -30.6172  -49.8333 H         1 UNK         0.0600 
    217 H217       -1.8383  -29.7322  -49.7766 H         1 UNK         0.0600 
    218 H218       -2.6406  -29.4196  -48.2460 H         1 UNK         0.0600 
    219 H219       -2.4302  -28.1173  -49.4149 H         1 UNK         0.0600 
    220 H220       -5.3084  -27.7499  -51.2192 H         1 UNK         0.3000 
    221 H221       -5.7386  -27.0587  -53.2540 H         1 UNK         0.0600 
    222 H222       -4.1697  -29.3469  -54.5460 H         1 UNK         0.0600 
    223 H223       -5.8559  -29.4813  -54.0474 H         1 UNK         0.0600 
    224 H224       -5.3947  -28.3312  -55.2862 H         1 UNK         0.0600 
    225 H225       -4.3865  -26.4700  -55.4180 H         1 UNK         0.3000 
    226 H226       -2.9965  -25.0320  -56.3241 H         1 UNK         0.0600 
    227 H227       -1.1204  -26.5943  -55.6579 H         1 UNK         0.0600 
    228 H228       -0.6266  -24.9187  -55.7891 H         1 UNK         0.0600 
    229 H229       -0.8715  -25.6365  -54.2015 H         1 UNK         0.0600 
    230 H230       -1.0695  -23.2933  -54.5813 H         1 UNK         0.3000 
    231 H231       -2.8095  -21.7027  -52.9371 H         1 UNK         0.0600 
    232 H232       -2.6703  -19.6425  -54.3729 H         1 UNK         0.0600 
    233 H233       -3.5501  -20.9026  -55.2131 H         1 UNK         0.0600 
    234 H234       -1.8763  -20.5647  -55.6450 H         1 UNK         0.0600 
    235 H235       -1.5348  -19.6368  -52.3388 H         1 UNK         0.3000 
    236 H236        1.3987  -20.0987  -52.1967 H         1 UNK         0.0600 
    237 H237        1.3526  -19.6754  -49.7806 H         1 UNK         0.0600 
    238 H238       -0.3916  -19.4717  -49.7896 H         1 UNK         0.0600 
    239 H239        0.3158  -21.0512  -50.1287 H         1 UNK         0.0600 
    240 H240       -0.2065  -18.3230  -53.8693 H         1 UNK         0.3000 
    241 H241       -0.0654  -15.6692  -52.7610 H         1 UNK         0.0600 
    242 H242        3.5528  -16.2834  -54.4856 H         1 UNK         0.3800 
    243 H243        2.4635  -17.6116  -54.1902 H         1 UNK         0.3800 
    244 H244       -0.3532  -16.1393  -55.7489 H         1 UNK         0.0800 
    245 H245       -1.6306  -16.6690  -54.7071 H         1 UNK         0.0800 
    246 H246       -3.6903  -15.2231  -54.6119 H         1 UNK         0.0800 
    247 H247       -3.6602  -13.6053  -53.9622 H         1 UNK         0.0800 
@<TRIPOS>BOND
     1    1    2 1    
     2    1  127 1    
     3    1  128 1    
     4    1  129 1    
     5    2    3 2    
     6    2    4 am   BACKBONE|DICT|INTERRES
     7    4    5 1    
     8    4  130 1    
     9    5    6 1    
    10    5   65 1    
    11    5  131 1    
    12    6    7 1    
    13    6  132 1    
    14    6  133 1    
    15    7    8 1    
    16    8    9 1    
    17    8  134 1    
    18    8  135 1    
    19    9   10 ar   
    20    9   14 ar   
    21   10   11 ar   
    22   10  136 1    
    23   11   12 ar   
    24   11  126 1    
    25   12   13 ar   
    26   12  137 1    
    27   13   14 ar   
    28   13   15 1    
    29   14  138 1    
    30   15   16 1    
    31   15  139 1    
    32   15  140 1    
    33   16   17 1    
    34   17   18 1    
    35   17  141 1    
    36   17  142 1    
    37   18   19 1    
    38   18   67 1    
    39   18  143 1    
    40   19   20 am   BACKBONE|DICT|INTERRES
    41   19  144 1    
    42   20   21 2    
    43   20   22 1    
    44   22   23 1    
    45   22   24 1    
    46   22  145 1    
    47   23  146 1    
    48   23  147 1    
    49   23  148 1    
    50   24   25 am   BACKBONE|DICT|INTERRES
    51   24  149 1    
    52   25   26 2    
    53   25   27 1    
    54   27   28 1    
    55   27   29 1    
    56   27  150 1    
    57   28  151 1    
    58   28  152 1    
    59   28  153 1    
    60   29   30 am   BACKBONE|DICT|INTERRES
    61   29  154 1    
    62   30   31 2    
    63   30   32 1    
    64   32   33 1    
    65   32   34 1    
    66   32  155 1    
    67   33  156 1    
    68   33  157 1    
    69   33  158 1    
    70   34   35 am   BACKBONE|DICT|INTERRES
    71   34  159 1    
    72   35   36 2    
    73   35   37 1    
    74   37   38 1    
    75   37   39 1    
    76   37  160 1    
    77   38  161 1    
    78   38  162 1    
    79   38  163 1    
    80   39   40 am   BACKBONE|DICT|INTERRES
    81   39  164 1    
    82   40   41 2    
    83   40   42 1    
    84   42   43 1    
    85   42   44 1    
    86   42  165 1    
    87   43  166 1    
    88   43  167 1    
    89   43  168 1    
    90   44   45 am   BACKBONE|DICT|INTERRES
    91   44  169 1    
    92   45   46 2    
    93   45   47 1    
    94   47   48 1    
    95   47   49 1    
    96   47  170 1    
    97   48  171 1    
    98   48  172 1    
    99   48  173 1    
   100   49   50 am   BACKBONE|DICT|INTERRES
   101   49  174 1    
   102   50   51 2    
   103   50   52 1    
   104   52   53 1    
   105   52   54 1    
   106   52  175 1    
   107   53  176 1    
   108   53  177 1    
   109   53  178 1    
   110   54   55 am   BACKBONE|DICT|INTERRES
   111   54  179 1    
   112   55   56 2    
   113   55   57 1    
   114   57   58 1    
   115   57   59 1    
   116   57  180 1    
   117   58  181 1    
   118   58  182 1    
   119   58  183 1    
   120   59   60 am   BACKBONE|DICT|INTERRES
   121   59  184 1    
   122   60   61 2    
   123   60   62 1    
   124   62   63 1    
   125   62   64 1    
   126   62  185 1    
   127   63  186 1    
   128   63  187 1    
   129   63  188 1    
   130   64   65 am   BACKBONE|DICT|INTERRES
   131   64  189 1    
   132   65   66 2    
   133   67   68 2    
   134   67   69 am   BACKBONE|DICT|INTERRES
   135   69   70 1    
   136   69  190 1    
   137   70   71 1    
   138   70   72 1    
   139   70  191 1    
   140   71  192 1    
   141   71  193 1    
   142   71  194 1    
   143   72   73 2    
   144   72   74 am   BACKBONE|DICT|INTERRES
   145   74   75 1    
   146   74  195 1    
   147   75   76 1    
   148   75   77 1    
   149   75  196 1    
   150   76  197 1    
   151   76  198 1    
   152   76  199 1    
   153   77   78 2    
   154   77   79 am   BACKBONE|DICT|INTERRES
   155   79   80 1    
   156   79  200 1    
   157   80   81 1    
   158   80   82 1    
   159   80  201 1    
   160   81  202 1    
   161   81  203 1    
   162   81  204 1    
   163   82   83 2    
   164   82   84 am   BACKBONE|DICT|INTERRES
   165   84   85 1    
   166   84  205 1    
   167   85   86 1    
   168   85   87 1    
   169   85  206 1    
   170   86  207 1    
   171   86  208 1    
   172   86  209 1    
   173   87   88 2    
   174   87   89 am   BACKBONE|DICT|INTERRES
   175   89   90 1    
   176   89  210 1    
   177   90   91 1    
   178   90   92 1    
   179   90  211 1    
   180   91  212 1    
   181   91  213 1    
   182   91  214 1    
   183   92   93 2    
   184   92   94 am   BACKBONE|DICT|INTERRES
   185   94   95 1    
   186   94  215 1    
   187   95   96 1    
   188   95   97 1    
   189   95  216 1    
   190   96  217 1    
   191   96  218 1    
   192   96  219 1    
   193   97   98 2    
   194   97   99 am   BACKBONE|DICT|INTERRES
   195   99  100 1    
   196   99  220 1    
   197  100  101 1    
   198  100  102 1    
   199  100  221 1    
   200  101  222 1    
   201  101  223 1    
   202  101  224 1    
   203  102  103 2    
   204  102  104 am   BACKBONE|DICT|INTERRES
   205  104  105 1    
   206  104  225 1    
   207  105  106 1    
   208  105  107 1    
   209  105  226 1    
   210  106  227 1    
   211  106  228 1    
   212  106  229 1    
   213  107  108 2    
   214  107  109 am   BACKBONE|DICT|INTERRES
   215  109  110 1    
   216  109  230 1    
   217  110  111 1    
   218  110  112 1    
   219  110  231 1    
   220  111  232 1    
   221  111  233 1    
   222  111  234 1    
   223  112  113 2    
   224  112  114 am   BACKBONE|DICT|INTERRES
   225  114  115 1    
   226  114  235 1    
   227  115  116 1    
   228  115  117 1    
   229  115  236 1    
   230  116  237 1    
   231  116  238 1    
   232  116  239 1    
   233  117  118 2    
   234  117  119 am   BACKBONE|DICT|INTERRES
   235  119  120 1    
   236  119  240 1    
   237  120  121 1    
   238  120  124 1    
   239  120  241 1    
   240  121  122 am   BACKBONE|DICT|INTERRES
   241  121  123 2    
   242  122  242 1    
   243  122  243 1    
   244  124  125 1    
   245  124  244 1    
   246  124  245 1    
   247  125  126 1    
   248  126  246 1    
   249  126  247 1    
@<TRIPOS>SUBSTRUCTURE
     1 UNK         1 GROUP             0       ****    0 ROOT    
