@<TRIPOS>MOLECULE
3R540
247   249    1
SMALL
USER_CHARGES


@<TRIPOS>ATOM
      1 CA          2.8321  -12.2241  -46.0326 C.3       0 UNK        -0.1800 
      2 C           1.5075  -11.4791  -45.9770 C.2       0 UNK         0.5000 
      3 O           1.4786  -10.2664  -46.1879 O.2       0 UNK        -0.5000 
      4 N           0.4132  -12.1966  -45.6916 N.am      1 UNK        -0.5000 
      5 CA         -0.9522  -11.6575  -45.6466 C.3       1 UNK         0.1400 
      6 C6         -1.9028  -12.5521  -44.8109 C.3       23 UNK        -0.0398 
      7 S7         -2.0327  -14.2731  -45.4155 S.3       23 UNK        -0.2404 
      8 C8         -3.7993  -14.6389  -45.1531 C.3       23 UNK        -0.0205 
      9 C9         -4.3574  -15.5786  -46.2132 C.ar      23 UNK        -0.0193 
     10 C10        -4.3801  -15.1725  -47.5500 C.ar      23 UNK        -0.1150 
     11 C11        -4.9413  -15.9888  -48.5339 C.ar      23 UNK        -0.0193 
     12 C12        -5.4986  -17.2172  -48.1715 C.ar      23 UNK        -0.1150 
     13 C13        -5.5029  -17.6290  -46.8357 C.ar      23 UNK        -0.0193 
     14 C14        -4.9136  -16.8143  -45.8616 C.ar      23 UNK        -0.1150 
     15 C15        -6.2144  -18.9185  -46.4521 C.3       23 UNK        -0.0205 
     16 S16        -5.2233  -20.3959  -46.8232 S.3       23 UNK        -0.2404 
     17 C17        -4.3967  -20.6704  -45.2212 C.3       23 UNK        -0.0398 
     18 CA         -3.1621  -21.6014  -45.3286 C.3       11 UNK         0.1400 
     19 N          -2.3213  -21.5951  -44.1324 N.am      11 UNK        -0.5000 
     20 C          -2.6526  -21.9211  -42.8755 C.2       10 UNK         0.5000 
     21 O          -3.7706  -22.3112  -42.5376 O.2       10 UNK        -0.5000 
     22 CA         -1.5412  -21.7769  -41.8227 C.3       10 UNK         0.1400 
     23 CB         -0.5673  -22.9615  -41.8931 C.3       10 UNK        -0.1800 
     24 N          -0.8018  -20.5319  -42.0210 N.am      10 UNK        -0.5000 
     25 C          -1.1472  -19.3552  -41.4810 C.2       9 UNK         0.5000 
     26 O          -2.0515  -19.2162  -40.6565 O.2       9 UNK        -0.5000 
     27 CA         -0.3634  -18.1190  -41.9626 C.3       9 UNK         0.1400 
     28 CB          0.8657  -17.8798  -41.0743 C.3       9 UNK        -0.1800 
     29 N           0.0400  -18.2224  -43.3700 N.am      9 UNK        -0.5000 
     30 C          -0.8394  -18.1840  -44.3841 C.2       8 UNK         0.5000 
     31 O          -2.0458  -18.0053  -44.2214 O.2       8 UNK        -0.5000 
     32 CA         -0.3197  -18.4099  -45.8143 C.3       8 UNK         0.1400 
     33 CB         -0.1913  -17.0823  -46.5709 C.3       8 UNK        -0.1800 
     34 N           0.9452  -19.1376  -45.9172 N.am      8 UNK        -0.5000 
     35 C           1.1011  -20.4401  -45.6454 C.2       7 UNK         0.5000 
     36 O           0.2409  -21.1249  -45.0931 O.2       7 UNK        -0.5000 
     37 CA          2.4247  -21.0908  -46.0740 C.3       7 UNK         0.1400 
     38 CB          2.4379  -21.3260  -47.5916 C.3       7 UNK        -0.1800 
     39 N           3.5566  -20.2463  -45.7071 N.am      7 UNK        -0.5000 
     40 C           4.4370  -20.5336  -44.7391 C.2       6 UNK         0.5000 
     41 O           4.4761  -21.6089  -44.1398 O.2       6 UNK        -0.5000 
     42 CA          5.4299  -19.4192  -44.3471 C.3       6 UNK         0.1400 
     43 CB          6.7538  -19.5882  -45.1078 C.3       6 UNK        -0.1800 
     44 N           4.9233  -18.0625  -44.5721 N.am      6 UNK        -0.5000 
     45 C           3.7982  -17.5544  -44.0489 C.2       5 UNK         0.5000 
     46 O           3.0598  -18.1684  -43.2810 O.2       5 UNK        -0.5000 
     47 CA          3.3904  -16.1442  -44.5069 C.3       5 UNK         0.1400 
     48 CB          3.8858  -15.0960  -43.4993 C.3       5 UNK        -0.1800 
     49 N           3.8459  -15.7807  -45.8537 N.am      5 UNK        -0.5000 
     50 C           3.5552  -16.4380  -46.9856 C.2       4 UNK         0.5000 
     51 O           2.9835  -17.5310  -47.0234 O.2       4 UNK        -0.5000 
     52 CA          4.0106  -15.7699  -48.2955 C.3       4 UNK         0.1400 
     53 CB          5.1726  -16.5583  -48.9185 C.3       4 UNK        -0.1800 
     54 N           2.9302  -15.6504  -49.2775 N.am      4 UNK        -0.5000 
     55 C           1.7823  -14.9842  -49.0926 C.2       3 UNK         0.5000 
     56 O           1.4897  -14.3954  -48.0468 O.2       3 UNK        -0.5000 
     57 CA          0.8044  -14.9623  -50.2856 C.3       3 UNK         0.1400 
     58 CB          0.1919  -16.3482  -50.5400 C.3       3 UNK        -0.1800 
     59 N          -0.2757  -14.0134  -50.0243 N.am      3 UNK        -0.5000 
     60 C          -0.2013  -12.6957  -50.2469 C.2       2 UNK         0.5000 
     61 O           0.6749  -12.1532  -50.9210 O.2       2 UNK        -0.5000 
     62 CA         -1.2288  -11.8421  -49.4965 C.3       2 UNK         0.1400 
     63 CB         -2.6755  -12.1687  -49.9134 C.3       2 UNK        -0.1800 
     64 N          -1.0052  -12.0630  -48.0702 N.am      2 UNK        -0.5000 
     65 C          -1.5080  -11.3473  -47.0570 C.2       1 UNK         0.5000 
     66 O          -2.3389  -10.4487  -47.1965 O.2       1 UNK        -0.5000 
     67 C          -3.5092  -23.0338  -45.7828 C.2       11 UNK         0.5000 
     68 O          -3.0492  -23.4586  -46.8448 O.2       11 UNK        -0.5000 
     69 N          -4.2962  -23.7465  -44.9678 N.am      12 UNK        -0.5000 
     70 CA         -4.8420  -25.0764  -45.2475 C.3       12 UNK         0.1400 
     71 CB         -6.0302  -25.3238  -44.3055 C.3       12 UNK        -0.1800 
     72 C          -3.8129  -26.2170  -45.1309 C.2       12 UNK         0.5000 
     73 O          -4.0766  -27.3173  -45.6166 O.2       12 UNK        -0.5000 
     74 N          -2.6626  -25.9455  -44.4981 N.am      13 UNK        -0.5000 
     75 CA         -1.5249  -26.8669  -44.4153 C.3       13 UNK         0.1400 
     76 CB         -0.5845  -26.4010  -43.2942 C.3       13 UNK        -0.1800 
     77 C          -0.7532  -26.9859  -45.7460 C.2       13 UNK         0.5000 
     78 O          -0.0079  -27.9490  -45.9305 O.2       13 UNK        -0.5000 
     79 N          -0.9442  -26.0076  -46.6374 N.am      14 UNK        -0.5000 
     80 CA         -0.4076  -25.9583  -47.9913 C.3       14 UNK         0.1400 
     81 CB          0.3572  -24.6324  -48.1430 C.3       14 UNK        -0.1800 
     82 C          -1.5667  -26.0549  -49.0002 C.2       14 UNK         0.5000 
     83 O          -2.7258  -26.2105  -48.6055 O.2       14 UNK        -0.5000 
     84 N          -1.2506  -25.9264  -50.2959 N.am      15 UNK        -0.5000 
     85 CA         -2.2140  -25.8631  -51.4011 C.3       15 UNK         0.1400 
     86 CB         -1.4796  -26.1727  -52.7183 C.3       15 UNK        -0.1800 
     87 C          -2.9494  -24.5045  -51.4388 C.2       15 UNK         0.5000 
     88 O          -2.7796  -23.7357  -52.3882 O.2       15 UNK        -0.5000 
     89 N          -3.7000  -24.2218  -50.3626 N.am      16 UNK        -0.5000 
     90 CA         -4.4308  -22.9906  -50.0524 C.3       16 UNK         0.1400 
     91 CB         -5.6813  -22.8666  -50.9390 C.3       16 UNK        -0.1800 
     92 C          -3.5010  -21.7670  -50.1240 C.2       16 UNK         0.5000 
     93 O          -3.4935  -21.0438  -51.1236 O.2       16 UNK        -0.5000 
     94 N          -2.6580  -21.6384  -49.0901 N.am      17 UNK        -0.5000 
     95 CA         -1.5828  -20.6471  -48.9482 C.3       17 UNK         0.1400 
     96 CB         -2.1450  -19.2097  -48.9700 C.3       17 UNK        -0.1800 
     97 C          -0.4313  -20.8502  -49.9555 C.2       17 UNK         0.5000 
     98 O           0.3246  -19.9159  -50.2180 O.2       17 UNK        -0.5000 
     99 N          -0.3283  -22.0754  -50.4970 N.am      18 UNK        -0.5000 
    100 CA         0.5993  -22.5216  -51.5449 C.3       18 UNK         0.1400 
    101 CB         2.0610  -22.4698  -51.0496 C.3       18 UNK        -0.1800 
    102 C          0.4099  -21.7778  -52.8849 C.2       18 UNK         0.5000 
    103 O          1.3454  -21.7148  -53.6848 O.2       18 UNK        -0.5000 
    104 N         -0.7851  -21.2147  -53.1026 N.am      19 UNK        -0.5000 
    105 CA        -1.0728  -20.2977  -54.2015 C.3       19 UNK         0.1400 
    106 CB        -0.7421  -18.8630  -53.7465 C.3       19 UNK        -0.1800 
    107 C         -2.5152  -20.4285  -54.7174 C.2       19 UNK         0.5000 
    108 O         -2.9725  -19.5313  -55.4269 O.2       19 UNK        -0.5000 
    109 N         -3.2164  -21.5166  -54.3582 N.am      20 UNK        -0.5000 
    110 CA        -4.6015  -21.8193  -54.7409 C.3       20 UNK         0.1400 
    111 CB        -4.6903  -22.1424  -56.2474 C.3       20 UNK        -0.1800 
    112 C         -5.5901  -20.7183  -54.2955 C.2       20 UNK         0.5000 
    113 O         -6.4180  -20.2671  -55.0887 O.2       20 UNK        -0.5000 
    114 N         -5.4483  -20.2959  -53.0309 N.am      21 UNK        -0.5000 
    115 CA        -6.1440  -19.1889  -52.3704 C.3       21 UNK         0.1400 
    116 CB        -7.6724  -19.4003  -52.3400 C.3       21 UNK        -0.1800 
    117 C         -5.7116  -17.8226  -52.9364 C.2       21 UNK         0.5000 
    118 O         -6.5483  -16.9469  -53.1647 O.2       21 UNK        -0.5000 
    119 N         -4.3928  -17.6705  -53.1138 N.am      22 UNK        -0.5000 
    120 CA        -3.7036  -16.4395  -53.5374 C.3       22 UNK         0.1400 
    121 C         -4.0251  -16.0169  -55.0016 C.2       22 UNK         0.5000 
    122 N         -4.0893  -16.9560  -55.9364 N.am      22 UNK        -0.7600 
    123 O         -4.2047  -14.8398  -55.3045 O.2       22 UNK        -0.5000 
    124 C124       -3.8398  -15.2761  -52.5147 C.3       23 UNK        -0.0398 
    125 S125       -3.3948  -15.7732  -50.8137 S.3       23 UNK        -0.2404 
    126 C126       -4.9877  -15.5209  -49.9775 C.3       23 UNK        -0.0205 
    127 H127        3.5226  -11.8281  -45.2882 H         1 UNK         0.0600 
    128 H128        2.6925  -13.2865  -45.8421 H         1 UNK         0.0600 
    129 H129        3.2838  -12.1142  -47.0185 H         1 UNK         0.0600 
    130 H130        0.4913  -13.1950  -45.5556 H         1 UNK         0.3000 
    131 H131       -0.9000  -10.6972  -45.1287 H         1 UNK         0.0600 
    132 H132       -2.8905  -12.0918  -44.7624 H         1 UNK         0.0800 
    133 H133       -1.5497  -12.5903  -43.7796 H         1 UNK         0.0800 
    134 H134       -4.3876  -13.7214  -45.1787 H         1 UNK         0.0800 
    135 H135       -3.9245  -15.0596  -44.1543 H         1 UNK         0.0800 
    136 H136       -3.9677  -14.2113  -47.8193 H         1 UNK         0.1150 
    137 H137       -5.9530  -17.8448  -48.9252 H         1 UNK         0.1150 
    138 H138       -4.9175  -17.1262  -44.8266 H         1 UNK         0.1150 
    139 H139       -6.4939  -18.9084  -45.3975 H         1 UNK         0.0800 
    140 H140       -7.1514  -18.9848  -47.0070 H         1 UNK         0.0800 
    141 H141       -5.1283  -21.0574  -44.5107 H         1 UNK         0.0800 
    142 H142       -4.0824  -19.7003  -44.8338 H         1 UNK         0.0800 
    143 H143       -2.5225  -21.1812  -46.1042 H         1 UNK         0.0600 
    144 H144       -1.3487  -21.3583  -44.3205 H         1 UNK         0.3000 
    145 H145       -2.0056  -21.7802  -40.8342 H         1 UNK         0.0600 
    146 H146        0.2067  -22.8793  -41.1300 H         1 UNK         0.0600 
    147 H147       -1.0916  -23.9018  -41.7216 H         1 UNK         0.0600 
    148 H148       -0.0734  -23.0253  -42.8637 H         1 UNK         0.0600 
    149 H149       -0.0613  -20.5448  -42.7082 H         1 UNK         0.3000 
    150 H150       -1.0202  -17.2520  -41.8627 H         1 UNK         0.0600 
    151 H151        0.5731  -17.7479  -40.0320 H         1 UNK         0.0600 
    152 H152        1.4027  -16.9805  -41.3766 H         1 UNK         0.0600 
    153 H153        1.5612  -18.7188  -41.1147 H         1 UNK         0.0600 
    154 H154        1.0270  -18.3648  -43.5562 H         1 UNK         0.3000 
    155 H155       -1.0749  -19.0090  -46.3241 H         1 UNK         0.0600 
    156 H156        0.3962  -16.3500  -46.0170 H         1 UNK         0.0600 
    157 H157       -1.1753  -16.6530  -46.7578 H         1 UNK         0.0600 
    158 H158        0.2847  -17.2222  -47.5404 H         1 UNK         0.0600 
    159 H159        1.7055  -18.6286  -46.3630 H         1 UNK         0.3000 
    160 H160        2.4867  -22.0639  -45.5825 H         1 UNK         0.0600 
    161 H161        3.3437  -21.8478  -47.9003 H         1 UNK         0.0600 
    162 H162        2.3855  -20.3900  -48.1499 H         1 UNK         0.0600 
    163 H163        1.5900  -21.9389  -47.8968 H         1 UNK         0.0600 
    164 H164        3.5906  -19.3267  -46.1319 H         1 UNK         0.3000 
    165 H165        5.6300  -19.5218  -43.2786 H         1 UNK         0.0600 
    166 H166        7.4969  -18.8635  -44.7743 H         1 UNK         0.0600 
    167 H167        7.1747  -20.5812  -44.9446 H         1 UNK         0.0600 
    168 H168        6.6182  -19.4615  -46.1828 H         1 UNK         0.0600 
    169 H169        5.4542  -17.4820  -45.2040 H         1 UNK         0.3000 
    170 H170        2.2993  -16.1151  -44.5147 H         1 UNK         0.0600 
    171 H171        3.5641  -15.3445  -42.4868 H         1 UNK         0.0600 
    172 H172        4.9744  -15.0300  -43.4903 H         1 UNK         0.0600 
    173 H173        3.4903  -14.1063  -43.7250 H         1 UNK         0.0600 
    174 H174        4.3531  -14.9108  -45.9231 H         1 UNK         0.3000 
    175 H175        4.3614  -14.7601  -48.0731 H         1 UNK         0.0600 
    176 H176        4.8689  -17.5684  -49.1976 H         1 UNK         0.0600 
    177 H177        5.5528  -16.0628  -49.8119 H         1 UNK         0.0600 
    178 H178        6.0049  -16.6479  -48.2191 H         1 UNK         0.0600 
    179 H179        3.0742  -16.1327  -50.1521 H         1 UNK         0.3000 
    180 H180        1.3592  -14.6574  -51.1753 H         1 UNK         0.0600 
    181 H181       -0.4564  -16.6519  -49.7200 H         1 UNK         0.0600 
    182 H182        0.9572  -17.1162  -50.6581 H         1 UNK         0.0600 
    183 H183       -0.4068  -16.3496  -51.4508 H         1 UNK         0.0600 
    184 H184       -1.0250  -14.3565  -49.4412 H         1 UNK         0.3000 
    185 H185       -1.0252  -10.7935  -49.7225 H         1 UNK         0.0600 
    186 H186       -2.7898  -12.1286  -50.9973 H         1 UNK         0.0600 
    187 H187       -2.9706  -13.1637  -49.5880 H         1 UNK         0.0600 
    188 H188       -3.3835  -11.4581  -49.4879 H         1 UNK         0.0600 
    189 H189       -0.2967  -12.7545  -47.8514 H         1 UNK         0.3000 
    190 H190       -4.5411  -23.3324  -44.0737 H         1 UNK         0.3000 
    191 H191       -5.2121  -25.0819  -46.2751 H         1 UNK         0.0600 
    192 H192       -5.7222  -25.3107  -43.2592 H         1 UNK         0.0600 
    193 H193       -6.4916  -26.2928  -44.5007 H         1 UNK         0.0600 
    194 H194       -6.8025  -24.5658  -44.4378 H         1 UNK         0.0600 
    195 H195       -2.5369  -25.0232  -44.1097 H         1 UNK         0.3000 
    196 H196       -1.8983  -27.8604  -44.1579 H         1 UNK         0.0600 
    197 H197       -0.1488  -25.4267  -43.5165 H         1 UNK         0.0600 
    198 H198        0.2395  -27.1031  -43.1605 H         1 UNK         0.0600 
    199 H199       -1.1080  -26.3323  -42.3405 H         1 UNK         0.0600 
    200 H200       -1.6497  -25.3112  -46.4353 H         1 UNK         0.3000 
    201 H201        0.2734  -26.7915  -48.1750 H         1 UNK         0.0600 
    202 H202        0.8435  -24.5686  -49.1149 H         1 UNK         0.0600 
    203 H203        1.1396  -24.5424  -47.3890 H         1 UNK         0.0600 
    204 H204       -0.3036  -23.7708  -48.0387 H         1 UNK         0.0600 
    205 H205       -0.2794  -25.8233  -50.5500 H         1 UNK         0.3000 
    206 H206       -2.9700  -26.6374  -51.2540 H         1 UNK         0.0600 
    207 H207       -1.0215  -27.1615  -52.6906 H         1 UNK         0.0600 
    208 H208       -2.1709  -26.1610  -53.5620 H         1 UNK         0.0600 
    209 H209       -0.6949  -25.4455  -52.9284 H         1 UNK         0.0600 
    210 H210       -3.6819  -24.9134  -49.6164 H         1 UNK         0.3000 
    211 H211       -4.7736  -23.0728  -49.0196 H         1 UNK         0.0600 
    212 H212       -5.4320  -22.8924  -51.9970 H         1 UNK         0.0600 
    213 H213       -6.2120  -21.9352  -50.7396 H         1 UNK         0.0600 
    214 H214       -6.3768  -23.6831  -50.7462 H         1 UNK         0.0600 
    215 H215       -2.7379  -22.3151  -48.3346 H         1 UNK         0.3000 
    216 H216       -1.1402  -20.8163  -47.9667 H         1 UNK         0.0600 
    217 H217       -2.9415  -19.0793  -48.2386 H         1 UNK         0.0600 
    218 H218       -2.5386  -18.9329  -49.9481 H         1 UNK         0.0600 
    219 H219       -1.3686  -18.4887  -48.7269 H         1 UNK         0.0600 
    220 H220       -1.0301  -22.7468  -50.2250 H         1 UNK         0.3000 
    221 H221        0.3549  -23.5651  -51.7433 H         1 UNK         0.0600 
    222 H222        2.4051  -21.4446  -50.9109 H         1 UNK         0.0600 
    223 H223        2.1853  -22.9918  -50.1028 H         1 UNK         0.0600 
    224 H224        2.7338  -22.9434  -51.7653 H         1 UNK         0.0600 
    225 H225       -1.5104  -21.3199  -52.4033 H         1 UNK         0.3000 
    226 H226       -0.4394  -20.5397  -55.0572 H         1 UNK         0.0600 
    227 H227       -1.3347  -18.5761  -52.8772 H         1 UNK         0.0600 
    228 H228        0.3086  -18.7705  -53.4710 H         1 UNK         0.0600 
    229 H229       -0.9286  -18.1379  -54.5393 H         1 UNK         0.0600 
    230 H230       -2.7840  -22.2033  -53.7476 H         1 UNK         0.3000 
    231 H231       -4.8788  -22.7257  -54.2030 H         1 UNK         0.0600 
    232 H232       -3.9949  -22.9360  -56.5209 H         1 UNK         0.0600 
    233 H233       -4.4660  -21.2723  -56.8650 H         1 UNK         0.0600 
    234 H234       -5.6913  -22.4828  -56.5144 H         1 UNK         0.0600 
    235 H235       -4.7058  -20.7136  -52.4727 H         1 UNK         0.3000 
    236 H236       -5.8003  -19.2021  -51.3347 H         1 UNK         0.0600 
    237 H237       -8.1523  -18.6559  -51.7037 H         1 UNK         0.0600 
    238 H238       -8.1180  -19.3136  -53.3310 H         1 UNK         0.0600 
    239 H239       -7.9278  -20.3816  -51.9405 H         1 UNK         0.0600 
    240 H240       -3.7974  -18.4601  -52.9177 H         1 UNK         0.3000 
    241 H241       -2.6446  -16.6917  -53.5600 H         1 UNK         0.0600 
    242 H242       -3.8628  -17.9241  -55.7166 H         1 UNK         0.3800 
    243 H243       -4.2965  -16.6973  -56.8874 H         1 UNK         0.3800 
    244 H244       -3.1834  -14.4512  -52.7959 H         1 UNK         0.0800 
    245 H245       -4.8526  -14.8710  -52.5325 H         1 UNK         0.0800 
    246 H246       -5.2501  -14.4625  -50.0122 H         1 UNK         0.0800 
    247 H247       -5.7729  -16.0502  -50.5184 H         1 UNK         0.0800 
@<TRIPOS>BOND
     1    1    2 1    
     2    1  127 1    
     3    1  128 1    
     4    1  129 1    
     5    2    3 2    
     6    2    4 am   BACKBONE|DICT|INTERRES
     7    4    5 1    
     8    4  130 1    
     9    5    6 1    
    10    5   65 1    
    11    5  131 1    
    12    6    7 1    
    13    6  132 1    
    14    6  133 1    
    15    7    8 1    
    16    8    9 1    
    17    8  134 1    
    18    8  135 1    
    19    9   10 ar   
    20    9   14 ar   
    21   10   11 ar   
    22   10  136 1    
    23   11   12 ar   
    24   11  126 1    
    25   12   13 ar   
    26   12  137 1    
    27   13   14 ar   
    28   13   15 1    
    29   14  138 1    
    30   15   16 1    
    31   15  139 1    
    32   15  140 1    
    33   16   17 1    
    34   17   18 1    
    35   17  141 1    
    36   17  142 1    
    37   18   19 1    
    38   18   67 1    
    39   18  143 1    
    40   19   20 am   BACKBONE|DICT|INTERRES
    41   19  144 1    
    42   20   21 2    
    43   20   22 1    
    44   22   23 1    
    45   22   24 1    
    46   22  145 1    
    47   23  146 1    
    48   23  147 1    
    49   23  148 1    
    50   24   25 am   BACKBONE|DICT|INTERRES
    51   24  149 1    
    52   25   26 2    
    53   25   27 1    
    54   27   28 1    
    55   27   29 1    
    56   27  150 1    
    57   28  151 1    
    58   28  152 1    
    59   28  153 1    
    60   29   30 am   BACKBONE|DICT|INTERRES
    61   29  154 1    
    62   30   31 2    
    63   30   32 1    
    64   32   33 1    
    65   32   34 1    
    66   32  155 1    
    67   33  156 1    
    68   33  157 1    
    69   33  158 1    
    70   34   35 am   BACKBONE|DICT|INTERRES
    71   34  159 1    
    72   35   36 2    
    73   35   37 1    
    74   37   38 1    
    75   37   39 1    
    76   37  160 1    
    77   38  161 1    
    78   38  162 1    
    79   38  163 1    
    80   39   40 am   BACKBONE|DICT|INTERRES
    81   39  164 1    
    82   40   41 2    
    83   40   42 1    
    84   42   43 1    
    85   42   44 1    
    86   42  165 1    
    87   43  166 1    
    88   43  167 1    
    89   43  168 1    
    90   44   45 am   BACKBONE|DICT|INTERRES
    91   44  169 1    
    92   45   46 2    
    93   45   47 1    
    94   47   48 1    
    95   47   49 1    
    96   47  170 1    
    97   48  171 1    
    98   48  172 1    
    99   48  173 1    
   100   49   50 am   BACKBONE|DICT|INTERRES
   101   49  174 1    
   102   50   51 2    
   103   50   52 1    
   104   52   53 1    
   105   52   54 1    
   106   52  175 1    
   107   53  176 1    
   108   53  177 1    
   109   53  178 1    
   110   54   55 am   BACKBONE|DICT|INTERRES
   111   54  179 1    
   112   55   56 2    
   113   55   57 1    
   114   57   58 1    
   115   57   59 1    
   116   57  180 1    
   117   58  181 1    
   118   58  182 1    
   119   58  183 1    
   120   59   60 am   BACKBONE|DICT|INTERRES
   121   59  184 1    
   122   60   61 2    
   123   60   62 1    
   124   62   63 1    
   125   62   64 1    
   126   62  185 1    
   127   63  186 1    
   128   63  187 1    
   129   63  188 1    
   130   64   65 am   BACKBONE|DICT|INTERRES
   131   64  189 1    
   132   65   66 2    
   133   67   68 2    
   134   67   69 am   BACKBONE|DICT|INTERRES
   135   69   70 1    
   136   69  190 1    
   137   70   71 1    
   138   70   72 1    
   139   70  191 1    
   140   71  192 1    
   141   71  193 1    
   142   71  194 1    
   143   72   73 2    
   144   72   74 am   BACKBONE|DICT|INTERRES
   145   74   75 1    
   146   74  195 1    
   147   75   76 1    
   148   75   77 1    
   149   75  196 1    
   150   76  197 1    
   151   76  198 1    
   152   76  199 1    
   153   77   78 2    
   154   77   79 am   BACKBONE|DICT|INTERRES
   155   79   80 1    
   156   79  200 1    
   157   80   81 1    
   158   80   82 1    
   159   80  201 1    
   160   81  202 1    
   161   81  203 1    
   162   81  204 1    
   163   82   83 2    
   164   82   84 am   BACKBONE|DICT|INTERRES
   165   84   85 1    
   166   84  205 1    
   167   85   86 1    
   168   85   87 1    
   169   85  206 1    
   170   86  207 1    
   171   86  208 1    
   172   86  209 1    
   173   87   88 2    
   174   87   89 am   BACKBONE|DICT|INTERRES
   175   89   90 1    
   176   89  210 1    
   177   90   91 1    
   178   90   92 1    
   179   90  211 1    
   180   91  212 1    
   181   91  213 1    
   182   91  214 1    
   183   92   93 2    
   184   92   94 am   BACKBONE|DICT|INTERRES
   185   94   95 1    
   186   94  215 1    
   187   95   96 1    
   188   95   97 1    
   189   95  216 1    
   190   96  217 1    
   191   96  218 1    
   192   96  219 1    
   193   97   98 2    
   194   97   99 am   BACKBONE|DICT|INTERRES
   195   99  100 1    
   196   99  220 1    
   197  100  101 1    
   198  100  102 1    
   199  100  221 1    
   200  101  222 1    
   201  101  223 1    
   202  101  224 1    
   203  102  103 2    
   204  102  104 am   BACKBONE|DICT|INTERRES
   205  104  105 1    
   206  104  225 1    
   207  105  106 1    
   208  105  107 1    
   209  105  226 1    
   210  106  227 1    
   211  106  228 1    
   212  106  229 1    
   213  107  108 2    
   214  107  109 am   BACKBONE|DICT|INTERRES
   215  109  110 1    
   216  109  230 1    
   217  110  111 1    
   218  110  112 1    
   219  110  231 1    
   220  111  232 1    
   221  111  233 1    
   222  111  234 1    
   223  112  113 2    
   224  112  114 am   BACKBONE|DICT|INTERRES
   225  114  115 1    
   226  114  235 1    
   227  115  116 1    
   228  115  117 1    
   229  115  236 1    
   230  116  237 1    
   231  116  238 1    
   232  116  239 1    
   233  117  118 2    
   234  117  119 am   BACKBONE|DICT|INTERRES
   235  119  120 1    
   236  119  240 1    
   237  120  121 1    
   238  120  124 1    
   239  120  241 1    
   240  121  122 am   BACKBONE|DICT|INTERRES
   241  121  123 2    
   242  122  242 1    
   243  122  243 1    
   244  124  125 1    
   245  124  244 1    
   246  124  245 1    
   247  125  126 1    
   248  126  246 1    
   249  126  247 1    
@<TRIPOS>SUBSTRUCTURE
     1 UNK         1 GROUP             0       ****    0 ROOT    
