@<TRIPOS>MOLECULE
3R540
247   249    1
SMALL
USER_CHARGES


@<TRIPOS>ATOM
      1 CA          0.2095  -10.8679  -50.1818 C.3       0 UNK        -0.1800 
      2 C          -0.0454  -12.1139  -49.3456 C.2       0 UNK         0.5000 
      3 O          -1.1386  -12.2722  -48.8043 O.2       0 UNK        -0.5000 
      4 N           0.9611  -12.9938  -49.2396 N.am      1 UNK        -0.5000 
      5 CA          0.9345  -14.2558  -48.4823 C.3       1 UNK         0.1400 
      6 C6         -0.1840  -15.2209  -48.9693 C.3       23 UNK        -0.0398 
      7 S7          0.2800  -16.9797  -48.8954 S.3       23 UNK        -0.2404 
      8 C8          1.3303  -17.1523  -50.3698 C.3       23 UNK        -0.0205 
      9 C9          1.8756  -18.5670  -50.5134 C.ar      23 UNK        -0.0193 
     10 C10         1.5077  -19.3570  -51.6048 C.ar      23 UNK        -0.1150 
     11 C11         2.0406  -20.6380  -51.7691 C.ar      23 UNK        -0.0193 
     12 C12         2.9571  -21.1264  -50.8327 C.ar      23 UNK        -0.1150 
     13 C13         3.3470  -20.3457  -49.7372 C.ar      23 UNK        -0.0193 
     14 C14         2.7944  -19.0692  -49.5861 C.ar      23 UNK        -0.1150 
     15 C15         4.4232  -20.8075  -48.7527 C.3       23 UNK        -0.0205 
     16 S16         4.5492  -22.6119  -48.5029 S.3       23 UNK        -0.2404 
     17 C17         2.9615  -23.0330  -47.7098 C.3       23 UNK        -0.0398 
     18 CA          3.1712  -23.7952  -46.3696 C.3       11 UNK         0.1400 
     19 N           3.2043  -22.8760  -45.2229 N.am      11 UNK        -0.5000 
     20 C           3.7335  -23.1474  -44.0219 C.2       10 UNK         0.5000 
     21 O           4.3449  -24.1848  -43.7649 O.2       10 UNK        -0.5000 
     22 CA          3.4954  -22.1103  -42.9046 C.3       10 UNK         0.1400 
     23 CB          4.5728  -21.0154  -42.9276 C.3       10 UNK        -0.1800 
     24 N           2.1645  -21.4978  -42.9690 N.am      10 UNK        -0.5000 
     25 C           1.0161  -22.1526  -42.7382 C.2       9 UNK         0.5000 
     26 O           0.9641  -23.3334  -42.3948 O.2       9 UNK        -0.5000 
     27 CA         -0.2977  -21.3859  -42.9912 C.3       9 UNK         0.1400 
     28 CB         -0.6727  -20.5190  -41.7808 C.3       9 UNK        -0.1800 
     29 N          -0.2486  -20.5588  -44.1969 N.am      9 UNK        -0.5000 
     30 C          -0.0540  -21.0373  -45.4334 C.2       8 UNK         0.5000 
     31 O           0.0577  -22.2314  -45.6985 O.2       8 UNK        -0.5000 
     32 CA          0.1133  -20.0091  -46.5597 C.3       8 UNK         0.1400 
     33 CB         -1.2520  -19.5370  -47.0781 C.3       8 UNK        -0.1800 
     34 N           0.9379  -18.8714  -46.1517 N.am      8 UNK        -0.5000 
     35 C           2.2220  -18.9683  -45.7810 C.2       7 UNK         0.5000 
     36 O           2.8552  -20.0218  -45.7963 O.2       7 UNK        -0.5000 
     37 CA          2.8834  -17.6969  -45.2261 C.3       7 UNK         0.1400 
     38 CB          3.3684  -16.7777  -46.3553 C.3       7 UNK        -0.1800 
     39 N           1.9739  -16.9806  -44.3291 N.am      7 UNK        -0.5000 
     40 C           1.6720  -17.4292  -43.1004 C.2       6 UNK         0.5000 
     41 O           2.1746  -18.4422  -42.6118 O.2       6 UNK        -0.5000 
     42 CA          0.6196  -16.6579  -42.2806 C.3       6 UNK         0.1400 
     43 CB          1.2959  -15.6668  -41.3220 C.3       6 UNK        -0.1800 
     44 N          -0.3994  -15.9676  -43.0744 N.am      6 UNK        -0.5000 
     45 C          -1.2638  -16.5775  -43.9001 C.2       5 UNK         0.5000 
     46 O          -1.2362  -17.7888  -44.1254 O.2       5 UNK        -0.5000 
     47 CA         -2.3383  -15.6893  -44.5672 C.3       5 UNK         0.1400 
     48 CB         -3.5288  -16.4976  -45.1262 C.3       5 UNK        -0.1800 
     49 N          -2.8069  -14.6089  -43.6927 N.am      5 UNK        -0.5000 
     50 C          -3.4373  -14.7333  -42.5123 C.2       4 UNK         0.5000 
     51 O          -3.7674  -15.8152  -42.0242 O.2       4 UNK        -0.5000 
     52 CA         -3.7524  -13.4244  -41.7487 C.3       4 UNK         0.1400 
     53 CB         -3.8036  -13.6286  -40.2196 C.3       4 UNK        -0.1800 
     54 N          -2.8612  -12.3064  -42.0891 N.am      4 UNK        -0.5000 
     55 C          -1.5291  -12.2736  -41.9468 C.2       3 UNK         0.5000 
     56 O          -0.8591  -13.1917  -41.4712 O.2       3 UNK        -0.5000 
     57 CA         -0.8174  -11.0152  -42.4723 C.3       3 UNK         0.1400 
     58 CB         -0.3278  -10.1417  -41.3074 C.3       3 UNK        -0.1800 
     59 N           0.3194  -11.3623  -43.3266 N.am      3 UNK        -0.5000 
     60 C           0.2408  -12.0680  -44.4630 C.2       2 UNK         0.5000 
     61 O          -0.8255  -12.4617  -44.9434 O.2       2 UNK        -0.5000 
     62 CA          1.5868  -12.3485  -45.1630 C.3       2 UNK         0.1400 
     63 CB          2.4902  -13.2694  -44.3182 C.3       2 UNK        -0.1800 
     64 N           1.4470  -12.8596  -46.5305 N.am      2 UNK        -0.5000 
     65 C           0.9694  -14.0440  -46.9457 C.2       1 UNK         0.5000 
     66 O           0.6201  -14.9504  -46.1857 O.2       1 UNK        -0.5000 
     67 C           2.1350  -24.9365  -46.2058 C.2       11 UNK         0.5000 
     68 O           2.1346  -25.8584  -47.0228 O.2       11 UNK        -0.5000 
     69 N           1.2787  -24.8630  -45.1754 N.am      12 UNK        -0.5000 
     70 CA          0.1642  -25.7640  -44.8628 C.3       12 UNK         0.1400 
     71 CB          0.6702  -27.1834  -44.5304 C.3       12 UNK        -0.1800 
     72 C          -0.9551  -25.7486  -45.9280 C.2       12 UNK         0.5000 
     73 O          -1.6406  -26.7552  -46.1194 O.2       12 UNK        -0.5000 
     74 N          -1.1358  -24.5991  -46.5895 N.am      13 UNK        -0.5000 
     75 CA         -2.2405  -24.3186  -47.5013 C.3       13 UNK         0.1400 
     76 CB         -1.8010  -23.2311  -48.4946 C.3       13 UNK        -0.1800 
     77 C          -3.4866  -23.8760  -46.7115 C.2       13 UNK         0.5000 
     78 O          -3.3662  -23.3636  -45.5957 O.2       13 UNK        -0.5000 
     79 N          -4.6671  -24.0786  -47.3098 N.am      14 UNK        -0.5000 
     80 CA         -5.9698  -23.7983  -46.6960 C.3       14 UNK         0.1400 
     81 CB         -7.0635  -24.4828  -47.5312 C.3       14 UNK        -0.1800 
     82 C          -6.2881  -22.2980  -46.5337 C.2       14 UNK         0.5000 
     83 O          -7.0969  -21.9414  -45.6760 O.2       14 UNK        -0.5000 
     84 N          -5.6645  -21.4549  -47.3613 N.am      15 UNK        -0.5000 
     85 CA         -5.8323  -20.0074  -47.4220 C.3       15 UNK         0.1400 
     86 CB         -7.1937  -19.6596  -48.0581 C.3       15 UNK        -0.1800 
     87 C          -4.6741  -19.4298  -48.2470 C.2       15 UNK         0.5000 
     88 O          -3.9015  -20.1970  -48.8304 O.2       15 UNK        -0.5000 
     89 N          -4.5869  -18.0938  -48.3108 N.am      16 UNK        -0.5000 
     90 CA         -3.6335  -17.3491  -49.1396 C.3       16 UNK         0.1400 
     91 CB         -3.8938  -15.8429  -48.9856 C.3       16 UNK        -0.1800 
     92 C          -3.7214  -17.7641  -50.6199 C.2       16 UNK         0.5000 
     93 O          -4.8267  -17.8044  -51.1632 O.2       16 UNK        -0.5000 
     94 N          -2.5734  -18.1233  -51.2143 N.am      17 UNK        -0.5000 
     95 CA         -2.4276  -18.6710  -52.5733 C.3       17 UNK         0.1400 
     96 CB         -2.8157  -17.6123  -53.6264 C.3       17 UNK        -0.1800 
     97 C          -3.1668  -20.0129  -52.7885 C.2       17 UNK         0.5000 
     98 O          -3.5070  -20.3514  -53.9273 O.2       17 UNK        -0.5000 
     99 N          -3.4247  -20.7402  -51.6871 N.am      18 UNK        -0.5000 
    100 CA        -4.2754  -21.9306  -51.5899 C.3       18 UNK         0.1400 
    101 CB        -3.5997  -23.1428  -52.2574 C.3       18 UNK        -0.1800 
    102 C         -5.7057  -21.6408  -52.0889 C.2       18 UNK         0.5000 
    103 O         -6.2780  -22.4229  -52.8481 O.2       18 UNK        -0.5000 
    104 N         -6.2128  -20.4609  -51.7013 N.am      19 UNK        -0.5000 
    105 CA        -7.4067  -19.7622  -52.1830 C.3       19 UNK         0.1400 
    106 CB        -8.6884  -20.6070  -52.0436 C.3       19 UNK        -0.1800 
    107 C         -7.2108  -19.2169  -53.6093 C.2       19 UNK         0.5000 
    108 O         -7.3178  -18.0073  -53.8127 O.2       19 UNK        -0.5000 
    109 N         -6.8945  -20.1098  -54.5532 N.am      20 UNK        -0.5000 
    110 CA        -6.5627  -19.8234  -55.9467 C.3       20 UNK         0.1400 
    111 CB        -7.7772  -19.2317  -56.6997 C.3       20 UNK        -0.1800 
    112 C         -6.0326  -21.1088  -56.6067 C.2       20 UNK         0.5000 
    113 O         -6.5362  -21.5062  -57.6598 O.2       20 UNK        -0.5000 
    114 N         -5.0573  -21.7659  -55.9629 N.am      21 UNK        -0.5000 
    115 CA        -4.5165  -23.0546  -56.4115 C.3       21 UNK         0.1400 
    116 CB        -5.1560  -24.2001  -55.6083 C.3       21 UNK        -0.1800 
    117 C         -2.9793  -23.1289  -56.4035 C.2       21 UNK         0.5000 
    118 O         -2.4406  -24.0687  -56.9912 O.2       21 UNK        -0.5000 
    119 N         -2.2876  -22.1547  -55.7964 N.am      22 UNK        -0.5000 
    120 CA        -0.8204  -22.0281  -55.8673 C.3       22 UNK         0.1400 
    121 C         -0.3164  -20.5817  -56.1418 C.2       22 UNK         0.5000 
    122 N         -1.1863  -19.6009  -56.3500 N.am      22 UNK        -0.7600 
    123 O          0.8865  -20.3492  -56.2169 O.2       22 UNK        -0.5000 
    124 C124       -0.0923  -22.7664  -54.7080 C.3       23 UNK        -0.0398 
    125 S125       -0.0698  -21.9042  -53.0939 S.3       23 UNK        -0.2404 
    126 C126        1.6949  -21.4577  -53.0033 C.3       23 UNK        -0.0205 
    127 H127        0.0864   -9.9741  -49.5702 H         1 UNK         0.0600 
    128 H128       -0.5014  -10.8182  -51.0066 H         1 UNK         0.0600 
    129 H129        1.2163  -10.8579  -50.6001 H         1 UNK         0.0600 
    130 H130        1.8304  -12.7987  -49.7180 H         1 UNK         0.3000 
    131 H131        1.8952  -14.7167  -48.7130 H         1 UNK         0.0600 
    132 H132       -0.4551  -15.0041  -50.0035 H         1 UNK         0.0800 
    133 H133       -1.0968  -15.0735  -48.3905 H         1 UNK         0.0800 
    134 H134        0.7569  -16.8675  -51.2532 H         1 UNK         0.0800 
    135 H135        2.1689  -16.4581  -50.3079 H         1 UNK         0.0800 
    136 H136        0.8306  -18.9670  -52.3493 H         1 UNK         0.1150 
    137 H137        3.3948  -22.1027  -50.9824 H         1 UNK         0.1150 
    138 H138        3.0983  -18.4489  -48.7561 H         1 UNK         0.1150 
    139 H139        5.3849  -20.4555  -49.1271 H         1 UNK         0.0800 
    140 H140        4.2905  -20.3285  -47.7853 H         1 UNK         0.0800 
    141 H141        2.3622  -22.1347  -47.5610 H         1 UNK         0.0800 
    142 H142        2.4107  -23.6277  -48.4412 H         1 UNK         0.0800 
    143 H143        4.1366  -24.3044  -46.4084 H         1 UNK         0.0600 
    144 H144        2.7851  -21.9620  -45.3656 H         1 UNK         0.3000 
    145 H145        3.5730  -22.6336  -41.9493 H         1 UNK         0.0600 
    146 H146        4.4330  -20.3079  -42.1101 H         1 UNK         0.0600 
    147 H147        4.5623  -20.4530  -43.8607 H         1 UNK         0.0600 
    148 H148        5.5682  -21.4474  -42.8182 H         1 UNK         0.0600 
    149 H149        2.1265  -20.5156  -43.2166 H         1 UNK         0.3000 
    150 H150       -1.0897  -22.1237  -43.1373 H         1 UNK         0.0600 
    151 H151        0.1070  -19.7957  -41.5458 H         1 UNK         0.0600 
    152 H152       -1.5985  -19.9706  -41.9571 H         1 UNK         0.0600 
    153 H153       -0.8219  -21.1360  -40.8940 H         1 UNK         0.0600 
    154 H154       -0.3896  -19.5587  -44.0843 H         1 UNK         0.3000 
    155 H155        0.6225  -20.5137  -47.3831 H         1 UNK         0.0600 
    156 H156       -2.0335  -20.2758  -46.8973 H         1 UNK         0.0600 
    157 H157       -1.2165  -19.3748  -48.1543 H         1 UNK         0.0600 
    158 H158       -1.5721  -18.6098  -46.6084 H         1 UNK         0.0600 
    159 H159        0.4754  -17.9768  -46.0771 H         1 UNK         0.3000 
    160 H160        3.7619  -17.9990  -44.6514 H         1 UNK         0.0600 
    161 H161        2.5733  -16.5528  -47.0633 H         1 UNK         0.0600 
    162 H162        4.1760  -17.2504  -46.9149 H         1 UNK         0.0600 
    163 H163        3.7514  -15.8349  -45.9650 H         1 UNK         0.0600 
    164 H164        1.4854  -16.1763  -44.7087 H         1 UNK         0.3000 
    165 H165        0.0965  -17.3957  -41.6698 H         1 UNK         0.0600 
    166 H166        0.5813  -15.2730  -40.5995 H         1 UNK         0.0600 
    167 H167        2.0914  -16.1500  -40.7530 H         1 UNK         0.0600 
    168 H168        1.7365  -14.8225  -41.8508 H         1 UNK         0.0600 
    169 H169       -0.5108  -14.9766  -42.9021 H         1 UNK         0.3000 
    170 H170       -1.8538  -15.2011  -45.4127 H         1 UNK         0.0600 
    171 H171       -3.2058  -17.1647  -45.9238 H         1 UNK         0.0600 
    172 H172       -3.9989  -17.1134  -44.3590 H         1 UNK         0.0600 
    173 H173       -4.2920  -15.8412  -45.5434 H         1 UNK         0.0600 
    174 H174       -2.5416  -13.6781  -43.9915 H         1 UNK         0.3000 
    175 H175       -4.7502  -13.1253  -42.0724 H         1 UNK         0.0600 
    176 H176       -2.8575  -14.0048  -39.8293 H         1 UNK         0.0600 
    177 H177       -4.0321  -12.6958  -39.7042 H         1 UNK         0.0600 
    178 H178       -4.5777  -14.3460  -39.9449 H         1 UNK         0.0600 
    179 H179       -3.3160  -11.5087  -42.5118 H         1 UNK         0.3000 
    180 H180       -1.5185  -10.4308  -43.0717 H         1 UNK         0.0600 
    181 H181        0.3999  -10.6680  -40.6881 H         1 UNK         0.0600 
    182 H182       -1.1580   -9.8511  -40.6624 H         1 UNK         0.0600 
    183 H183        0.1383   -9.2249  -41.6689 H         1 UNK         0.0600 
    184 H184        1.2289  -11.0900  -42.9841 H         1 UNK         0.3000 
    185 H185        2.0927  -11.3869  -45.2620 H         1 UNK         0.0600 
    186 H186        2.7407  -12.8106  -43.3614 H         1 UNK         0.0600 
    187 H187        2.0059  -14.2193  -44.1024 H         1 UNK         0.0600 
    188 H188        3.4293  -13.4802  -44.8296 H         1 UNK         0.0600 
    189 H189        1.6801  -12.1957  -47.2545 H         1 UNK         0.3000 
    190 H190        1.3436  -24.0474  -44.5804 H         1 UNK         0.3000 
    191 H191       -0.2905  -25.3632  -43.9560 H         1 UNK         0.0600 
    192 H192       -0.1361  -27.8026  -44.1357 H         1 UNK         0.0600 
    193 H193        1.4548  -27.1546  -43.7743 H         1 UNK         0.0600 
    194 H194        1.0684  -27.6902  -45.4097 H         1 UNK         0.0600 
    195 H195       -0.5884  -23.7901  -46.2990 H         1 UNK         0.3000 
    196 H196       -2.4819  -25.2235  -48.0631 H         1 UNK         0.0600 
    197 H197       -1.5458  -22.3015  -47.9886 H         1 UNK         0.0600 
    198 H198       -0.9288  -23.5479  -49.0668 H         1 UNK         0.0600 
    199 H199       -2.5925  -23.0061  -49.2081 H         1 UNK         0.0600 
    200 H200       -4.6871  -24.5066  -48.2240 H         1 UNK         0.3000 
    201 H201       -5.9764  -24.2418  -45.6979 H         1 UNK         0.0600 
    202 H202       -8.0488  -24.3253  -47.0902 H         1 UNK         0.0600 
    203 H203       -6.9034  -25.5598  -47.5862 H         1 UNK         0.0600 
    204 H204       -7.0946  -24.0938  -48.5499 H         1 UNK         0.0600 
    205 H205       -4.9577  -21.8077  -47.9937 H         1 UNK         0.3000 
    206 H206       -5.7730  -19.5953  -46.4128 H         1 UNK         0.0600 
    207 H207       -8.0219  -20.0317  -47.4553 H         1 UNK         0.0600 
    208 H208       -7.3293  -18.5818  -48.1516 H         1 UNK         0.0600 
    209 H209       -7.2905  -20.0908  -49.0545 H         1 UNK         0.0600 
    210 H210       -5.2784  -17.5397  -47.8283 H         1 UNK         0.3000 
    211 H211       -2.6319  -17.5632  -48.7679 H         1 UNK         0.0600 
    212 H212       -4.9182  -15.5829  -49.2551 H         1 UNK         0.0600 
    213 H213       -3.2317  -15.2628  -49.6297 H         1 UNK         0.0600 
    214 H214       -3.7200  -15.5119  -47.9622 H         1 UNK         0.0600 
    215 H215       -1.7210  -18.0803  -50.6728 H         1 UNK         0.3000 
    216 H216       -1.3705  -18.8938  -52.7071 H         1 UNK         0.0600 
    217 H217       -2.2894  -16.6735  -53.4548 H         1 UNK         0.0600 
    218 H218       -3.8862  -17.4047  -53.6187 H         1 UNK         0.0600 
    219 H219       -2.5609  -17.9443  -54.6318 H         1 UNK         0.0600 
    220 H220       -3.1307  -20.3654  -50.7923 H         1 UNK         0.3000 
    221 H221       -4.3792  -22.1623  -50.5303 H         1 UNK         0.0600 
    222 H222       -4.2186  -24.0366  -52.1742 H         1 UNK         0.0600 
    223 H223       -3.4040  -22.9671  -53.3130 H         1 UNK         0.0600 
    224 H224       -2.6446  -23.3657  -51.7821 H         1 UNK         0.0600 
    225 H225       -5.5954  -19.8629  -51.1650 H         1 UNK         0.3000 
    226 H226       -7.5187  -18.8969  -51.5274 H         1 UNK         0.0600 
    227 H227       -8.8104  -20.9718  -51.0238 H         1 UNK         0.0600 
    228 H228       -9.5689  -20.0099  -52.2831 H         1 UNK         0.0600 
    229 H229       -8.6939  -21.4686  -52.7109 H         1 UNK         0.0600 
    230 H230       -6.7987  -21.0802  -54.2662 H         1 UNK         0.3000 
    231 H231       -5.7497  -19.0950  -55.9640 H         1 UNK         0.0600 
    232 H232       -7.5405  -19.0563  -57.7498 H         1 UNK         0.0600 
    233 H233       -8.0862  -18.2722  -56.2867 H         1 UNK         0.0600 
    234 H234       -8.6355  -19.9034  -56.6624 H         1 UNK         0.0600 
    235 H235       -4.6655  -21.3670  -55.1144 H         1 UNK         0.3000 
    236 H236       -4.7825  -23.2161  -57.4580 H         1 UNK         0.0600 
    237 H237       -6.2372  -24.2167  -55.7456 H         1 UNK         0.0600 
    238 H238       -4.7744  -25.1695  -55.9310 H         1 UNK         0.0600 
    239 H239       -4.9615  -24.1106  -54.5422 H         1 UNK         0.0600 
    240 H240       -2.7662  -21.4424  -55.2535 H         1 UNK         0.3000 
    241 H241       -0.5034  -22.5395  -56.7782 H         1 UNK         0.0600 
    242 H242       -2.1779  -19.7712  -56.3416 H         1 UNK         0.3800 
    243 H243       -0.8391  -18.6775  -56.5543 H         1 UNK         0.3800 
    244 H244        0.9342  -22.9777  -55.0107 H         1 UNK         0.0800 
    245 H245       -0.5467  -23.7462  -54.5559 H         1 UNK         0.0800 
    246 H246        1.9723  -20.8819  -53.8862 H         1 UNK         0.0800 
    247 H247        2.2902  -22.3716  -53.0334 H         1 UNK         0.0800 
@<TRIPOS>BOND
     1    1    2 1    
     2    1  127 1    
     3    1  128 1    
     4    1  129 1    
     5    2    3 2    
     6    2    4 am   BACKBONE|DICT|INTERRES
     7    4    5 1    
     8    4  130 1    
     9    5    6 1    
    10    5   65 1    
    11    5  131 1    
    12    6    7 1    
    13    6  132 1    
    14    6  133 1    
    15    7    8 1    
    16    8    9 1    
    17    8  134 1    
    18    8  135 1    
    19    9   10 ar   
    20    9   14 ar   
    21   10   11 ar   
    22   10  136 1    
    23   11   12 ar   
    24   11  126 1    
    25   12   13 ar   
    26   12  137 1    
    27   13   14 ar   
    28   13   15 1    
    29   14  138 1    
    30   15   16 1    
    31   15  139 1    
    32   15  140 1    
    33   16   17 1    
    34   17   18 1    
    35   17  141 1    
    36   17  142 1    
    37   18   19 1    
    38   18   67 1    
    39   18  143 1    
    40   19   20 am   BACKBONE|DICT|INTERRES
    41   19  144 1    
    42   20   21 2    
    43   20   22 1    
    44   22   23 1    
    45   22   24 1    
    46   22  145 1    
    47   23  146 1    
    48   23  147 1    
    49   23  148 1    
    50   24   25 am   BACKBONE|DICT|INTERRES
    51   24  149 1    
    52   25   26 2    
    53   25   27 1    
    54   27   28 1    
    55   27   29 1    
    56   27  150 1    
    57   28  151 1    
    58   28  152 1    
    59   28  153 1    
    60   29   30 am   BACKBONE|DICT|INTERRES
    61   29  154 1    
    62   30   31 2    
    63   30   32 1    
    64   32   33 1    
    65   32   34 1    
    66   32  155 1    
    67   33  156 1    
    68   33  157 1    
    69   33  158 1    
    70   34   35 am   BACKBONE|DICT|INTERRES
    71   34  159 1    
    72   35   36 2    
    73   35   37 1    
    74   37   38 1    
    75   37   39 1    
    76   37  160 1    
    77   38  161 1    
    78   38  162 1    
    79   38  163 1    
    80   39   40 am   BACKBONE|DICT|INTERRES
    81   39  164 1    
    82   40   41 2    
    83   40   42 1    
    84   42   43 1    
    85   42   44 1    
    86   42  165 1    
    87   43  166 1    
    88   43  167 1    
    89   43  168 1    
    90   44   45 am   BACKBONE|DICT|INTERRES
    91   44  169 1    
    92   45   46 2    
    93   45   47 1    
    94   47   48 1    
    95   47   49 1    
    96   47  170 1    
    97   48  171 1    
    98   48  172 1    
    99   48  173 1    
   100   49   50 am   BACKBONE|DICT|INTERRES
   101   49  174 1    
   102   50   51 2    
   103   50   52 1    
   104   52   53 1    
   105   52   54 1    
   106   52  175 1    
   107   53  176 1    
   108   53  177 1    
   109   53  178 1    
   110   54   55 am   BACKBONE|DICT|INTERRES
   111   54  179 1    
   112   55   56 2    
   113   55   57 1    
   114   57   58 1    
   115   57   59 1    
   116   57  180 1    
   117   58  181 1    
   118   58  182 1    
   119   58  183 1    
   120   59   60 am   BACKBONE|DICT|INTERRES
   121   59  184 1    
   122   60   61 2    
   123   60   62 1    
   124   62   63 1    
   125   62   64 1    
   126   62  185 1    
   127   63  186 1    
   128   63  187 1    
   129   63  188 1    
   130   64   65 am   BACKBONE|DICT|INTERRES
   131   64  189 1    
   132   65   66 2    
   133   67   68 2    
   134   67   69 am   BACKBONE|DICT|INTERRES
   135   69   70 1    
   136   69  190 1    
   137   70   71 1    
   138   70   72 1    
   139   70  191 1    
   140   71  192 1    
   141   71  193 1    
   142   71  194 1    
   143   72   73 2    
   144   72   74 am   BACKBONE|DICT|INTERRES
   145   74   75 1    
   146   74  195 1    
   147   75   76 1    
   148   75   77 1    
   149   75  196 1    
   150   76  197 1    
   151   76  198 1    
   152   76  199 1    
   153   77   78 2    
   154   77   79 am   BACKBONE|DICT|INTERRES
   155   79   80 1    
   156   79  200 1    
   157   80   81 1    
   158   80   82 1    
   159   80  201 1    
   160   81  202 1    
   161   81  203 1    
   162   81  204 1    
   163   82   83 2    
   164   82   84 am   BACKBONE|DICT|INTERRES
   165   84   85 1    
   166   84  205 1    
   167   85   86 1    
   168   85   87 1    
   169   85  206 1    
   170   86  207 1    
   171   86  208 1    
   172   86  209 1    
   173   87   88 2    
   174   87   89 am   BACKBONE|DICT|INTERRES
   175   89   90 1    
   176   89  210 1    
   177   90   91 1    
   178   90   92 1    
   179   90  211 1    
   180   91  212 1    
   181   91  213 1    
   182   91  214 1    
   183   92   93 2    
   184   92   94 am   BACKBONE|DICT|INTERRES
   185   94   95 1    
   186   94  215 1    
   187   95   96 1    
   188   95   97 1    
   189   95  216 1    
   190   96  217 1    
   191   96  218 1    
   192   96  219 1    
   193   97   98 2    
   194   97   99 am   BACKBONE|DICT|INTERRES
   195   99  100 1    
   196   99  220 1    
   197  100  101 1    
   198  100  102 1    
   199  100  221 1    
   200  101  222 1    
   201  101  223 1    
   202  101  224 1    
   203  102  103 2    
   204  102  104 am   BACKBONE|DICT|INTERRES
   205  104  105 1    
   206  104  225 1    
   207  105  106 1    
   208  105  107 1    
   209  105  226 1    
   210  106  227 1    
   211  106  228 1    
   212  106  229 1    
   213  107  108 2    
   214  107  109 am   BACKBONE|DICT|INTERRES
   215  109  110 1    
   216  109  230 1    
   217  110  111 1    
   218  110  112 1    
   219  110  231 1    
   220  111  232 1    
   221  111  233 1    
   222  111  234 1    
   223  112  113 2    
   224  112  114 am   BACKBONE|DICT|INTERRES
   225  114  115 1    
   226  114  235 1    
   227  115  116 1    
   228  115  117 1    
   229  115  236 1    
   230  116  237 1    
   231  116  238 1    
   232  116  239 1    
   233  117  118 2    
   234  117  119 am   BACKBONE|DICT|INTERRES
   235  119  120 1    
   236  119  240 1    
   237  120  121 1    
   238  120  124 1    
   239  120  241 1    
   240  121  122 am   BACKBONE|DICT|INTERRES
   241  121  123 2    
   242  122  242 1    
   243  122  243 1    
   244  124  125 1    
   245  124  244 1    
   246  124  245 1    
   247  125  126 1    
   248  126  246 1    
   249  126  247 1    
@<TRIPOS>SUBSTRUCTURE
     1 UNK         1 GROUP             0       ****    0 ROOT    
