@<TRIPOS>MOLECULE
3R540
247   249    1
SMALL
USER_CHARGES


@<TRIPOS>ATOM
      1 CA         -0.9917  -15.3001  -42.9232 C.3       0 UNK        -0.1800 
      2 C          -0.3907  -13.9680  -43.3415 C.2       0 UNK         0.5000 
      3 O           0.3837  -13.3820  -42.5846 O.2       0 UNK        -0.5000 
      4 N          -0.7466  -13.4864  -44.5379 N.am      1 UNK        -0.5000 
      5 CA         -0.1767  -12.2810  -45.1454 C.3       1 UNK         0.1400 
      6 C6         -1.0676  -11.7085  -46.2748 C.3       23 UNK        -0.0398 
      7 S7         -2.7244  -11.2433  -45.6644 S.3       23 UNK        -0.2404 
      8 C8         -3.7746  -11.5538  -47.1275 C.3       23 UNK        -0.0205 
      9 C9         -3.8209  -13.0033  -47.6136 C.ar      23 UNK        -0.0193 
     10 C10        -4.0691  -13.2505  -48.9680 C.ar      23 UNK        -0.1150 
     11 C11        -4.1298  -14.5582  -49.4565 C.ar      23 UNK        -0.0193 
     12 C12        -3.9269  -15.6295  -48.5845 C.ar      23 UNK        -0.1150 
     13 C13        -3.6737  -15.4006  -47.2309 C.ar      23 UNK        -0.0193 
     14 C14        -3.6427  -14.0896  -46.7466 C.ar      23 UNK        -0.1150 
     15 C15        -3.3997  -16.5694  -46.3020 C.3       23 UNK        -0.0205 
     16 S16        -1.6215  -16.9322  -46.2809 S.3       23 UNK        -0.2404 
     17 C17        -1.5411  -18.3049  -45.0943 C.3       23 UNK        -0.0398 
     18 CA         -1.2127  -19.6594  -45.7758 C.3       11 UNK         0.1400 
     19 N          -0.2365  -20.4324  -45.0035 N.am      11 UNK        -0.5000 
     20 C           0.3356  -21.5801  -45.3911 C.2       10 UNK         0.5000 
     21 O           0.1379  -22.1119  -46.4812 O.2       10 UNK        -0.5000 
     22 CA          1.2406  -22.2805  -44.3627 C.3       10 UNK         0.1400 
     23 CB          2.6727  -21.7257  -44.4062 C.3       10 UNK        -0.1800 
     24 N           0.7086  -22.1677  -43.0053 N.am      10 UNK        -0.5000 
     25 C          -0.4103  -22.7723  -42.5811 C.2       9 UNK         0.5000 
     26 O          -1.0813  -23.5382  -43.2734 O.2       9 UNK        -0.5000 
     27 CA         -0.8842  -22.4111  -41.1619 C.3       9 UNK         0.1400 
     28 CB         -0.1099  -23.2154  -40.1072 C.3       9 UNK        -0.1800 
     29 N          -0.7524  -20.9799  -40.8788 N.am      9 UNK        -0.5000 
     30 C          -1.4500  -20.0209  -41.5033 C.2       8 UNK         0.5000 
     31 O          -2.2992  -20.2439  -42.3657 O.2       8 UNK        -0.5000 
     32 CA         -1.1094  -18.5644  -41.1420 C.3       8 UNK         0.1400 
     33 CB         -1.9193  -18.1049  -39.9213 C.3       8 UNK        -0.1800 
     34 N           0.3176  -18.3281  -40.8977 N.am      8 UNK        -0.5000 
     35 C           1.2932  -18.5131  -41.7967 C.2       7 UNK         0.5000 
     36 O           1.1067  -18.9614  -42.9299 O.2       7 UNK        -0.5000 
     37 CA          2.7177  -18.1794  -41.3416 C.3       7 UNK         0.1400 
     38 CB          3.3162  -19.3478  -40.5384 C.3       7 UNK        -0.1800 
     39 N           3.5454  -17.9150  -42.5149 N.am      7 UNK        -0.5000 
     40 C           4.6439  -17.1507  -42.5300 C.2       6 UNK         0.5000 
     41 O           5.0776  -16.5687  -41.5345 O.2       6 UNK        -0.5000 
     42 CA          5.4099  -17.0212  -43.8632 C.3       6 UNK         0.1400 
     43 CB          6.6787  -17.8883  -43.8325 C.3       6 UNK        -0.1800 
     44 N           4.6241  -17.3873  -45.0443 N.am      6 UNK        -0.5000 
     45 C           3.6866  -16.6122  -45.6027 C.2       5 UNK         0.5000 
     46 O           3.3618  -15.5102  -45.1615 O.2       5 UNK        -0.5000 
     47 CA          2.9911  -17.1918  -46.8425 C.3       5 UNK         0.1400 
     48 CB          2.0093  -18.3012  -46.4294 C.3       5 UNK        -0.1800 
     49 N           2.2894  -16.1464  -47.5874 N.am      5 UNK        -0.5000 
     50 C           1.8946  -16.2605  -48.8637 C.2       4 UNK         0.5000 
     51 O           2.0996  -17.2625  -49.5505 O.2       4 UNK        -0.5000 
     52 CA          1.1781  -15.0588  -49.5017 C.3       4 UNK         0.1400 
     53 CB         -0.2894  -14.9802  -49.0519 C.3       4 UNK        -0.1800 
     54 N           1.8511  -13.8034  -49.1799 N.am      4 UNK        -0.5000 
     55 C           2.7410  -13.1867  -49.9688 C.2       3 UNK         0.5000 
     56 O           3.1003  -13.6238  -51.0629 O.2       3 UNK        -0.5000 
     57 CA          3.3179  -11.8428  -49.4769 C.3       3 UNK         0.1400 
     58 CB          2.6085  -10.6710  -50.1737 C.3       3 UNK        -0.1800 
     59 N           3.2103  -11.6601  -48.0296 N.am      3 UNK        -0.5000 
     60 C           3.9981  -12.2582  -47.1268 C.2       2 UNK         0.5000 
     61 O           4.9543  -12.9754  -47.4230 O.2       2 UNK        -0.5000 
     62 CA          3.6496  -12.0261  -45.6421 C.3       2 UNK         0.1400 
     63 CB          4.4695  -10.8548  -45.0795 C.3       2 UNK        -0.1800 
     64 N           2.2260  -11.7895  -45.3617 N.am      2 UNK        -0.5000 
     65 C           1.2247  -12.6217  -45.6804 C.2       1 UNK         0.5000 
     66 O           1.3616  -13.6208  -46.3870 O.2       1 UNK        -0.5000 
     67 C          -2.4893  -20.4730  -46.0617 C.2       11 UNK         0.5000 
     68 O          -2.9300  -20.5400  -47.2094 O.2       11 UNK        -0.5000 
     69 N          -3.0269  -21.1160  -45.0154 N.am      12 UNK        -0.5000 
     70 CA         -4.1745  -22.0171  -45.0905 C.3       12 UNK         0.1400 
     71 CB         -4.6007  -22.4255  -43.6725 C.3       12 UNK        -0.1800 
     72 C          -3.8951  -23.2543  -45.9606 C.2       12 UNK         0.5000 
     73 O          -4.7285  -23.6005  -46.7970 O.2       12 UNK        -0.5000 
     74 N          -2.7173  -23.8705  -45.7795 N.am      13 UNK        -0.5000 
     75 CA         -2.2524  -25.0118  -46.5701 C.3       13 UNK         0.1400 
     76 CB         -0.9465  -25.5599  -45.9763 C.3       13 UNK        -0.1800 
     77 C          -2.0787  -24.6755  -48.0625 C.2       13 UNK         0.5000 
     78 O          -2.4990  -25.4637  -48.9083 O.2       13 UNK        -0.5000 
     79 N          -1.4994  -23.5015  -48.3551 N.am      14 UNK        -0.5000 
     80 CA         -1.3529  -22.9496  -49.7014 C.3       14 UNK         0.1400 
     81 CB         -0.5085  -21.6665  -49.6529 C.3       14 UNK        -0.1800 
     82 C          -2.7120  -22.6924  -50.3720 C.2       14 UNK         0.5000 
     83 O          -2.9292  -23.1437  -51.4993 O.2       14 UNK        -0.5000 
     84 N          -3.6122  -22.0077  -49.6524 N.am      15 UNK        -0.5000 
     85 CA         -4.9678  -21.6940  -50.1009 C.3       15 UNK         0.1400 
     86 CB         -5.6678  -20.8077  -49.0613 C.3       15 UNK        -0.1800 
     87 C          -5.8100  -22.9443  -50.4106 C.2       15 UNK         0.5000 
     88 O          -6.5338  -22.9508  -51.4095 O.2       15 UNK        -0.5000 
     89 N          -5.6597  -23.9886  -49.5844 N.am      16 UNK        -0.5000 
     90 CA         -6.2866  -25.3039  -49.7160 C.3       16 UNK         0.1400 
     91 CB         -6.2217  -26.0224  -48.3566 C.3       16 UNK        -0.1800 
     92 C          -5.6814  -26.1488  -50.8594 C.2       16 UNK         0.5000 
     93 O          -5.1301  -27.2236  -50.6196 O.2       16 UNK        -0.5000 
     94 N          -5.8167  -25.6430  -52.0911 N.am      17 UNK        -0.5000 
     95 CA         -5.5391  -26.2783  -53.3860 C.3       17 UNK         0.1400 
     96 CB         -6.3816  -27.5587  -53.5571 C.3       17 UNK        -0.1800 
     97 C          -4.0566  -26.5380  -53.7298 C.2       17 UNK         0.5000 
     98 O          -3.7805  -26.8634  -54.8853 O.2       17 UNK        -0.5000 
     99 N          -3.1269  -26.3900  -52.7744 N.am      18 UNK        -0.5000 
    100 CA        -1.6917  -26.6004  -52.9961 C.3       18 UNK         0.1400 
    101 CB        -0.9587  -26.7008  -51.6519 C.3       18 UNK        -0.1800 
    102 C         -1.0800  -25.5081  -53.8925 C.2       18 UNK         0.5000 
    103 O         -0.4102  -25.8292  -54.8750 O.2       18 UNK        -0.5000 
    104 N         -1.3719  -24.2445  -53.5630 N.am      19 UNK        -0.5000 
    105 CA        -1.1756  -23.0862  -54.4359 C.3       19 UNK         0.1400 
    106 CB        -0.5789  -21.9254  -53.6244 C.3       19 UNK        -0.1800 
    107 C         -2.5155  -22.6681  -55.0711 C.2       19 UNK         0.5000 
    108 O         -2.5080  -22.1475  -56.1860 O.2       19 UNK        -0.5000 
    109 N         -3.6221  -22.9354  -54.3557 N.am      20 UNK        -0.5000 
    110 CA        -5.0244  -22.6628  -54.6772 C.3       20 UNK         0.1400 
    111 CB        -5.4328  -23.2196  -56.0551 C.3       20 UNK        -0.1800 
    112 C         -5.3570  -21.1708  -54.5274 C.2       20 UNK         0.5000 
    113 O         -4.8773  -20.3485  -55.3120 O.2       20 UNK        -0.5000 
    114 N         -6.1627  -20.8563  -53.5026 N.am      21 UNK        -0.5000 
    115 CA        -6.6248  -19.5313  -53.0662 C.3       21 UNK         0.1400 
    116 CB        -7.4943  -18.8507  -54.1417 C.3       21 UNK        -0.1800 
    117 C         -5.4851  -18.6147  -52.5814 C.2       21 UNK         0.5000 
    118 O         -5.4420  -18.2739  -51.4005 O.2       21 UNK        -0.5000 
    119 N         -4.5758  -18.2669  -53.4937 N.am      22 UNK        -0.5000 
    120 CA        -3.3421  -17.5124  -53.2478 C.3       22 UNK         0.1400 
    121 C         -2.1505  -17.9858  -54.1323 C.2       22 UNK         0.5000 
    122 N         -2.2991  -18.9918  -54.9888 N.am      22 UNK        -0.7600 
    123 O         -1.0567  -17.4372  -54.0359 O.2       22 UNK        -0.5000 
    124 C124       -3.5764  -15.9739  -53.3221 C.3       23 UNK        -0.0398 
    125 S125       -2.8998  -15.1026  -51.8698 S.3       23 UNK        -0.2404 
    126 C126       -4.4262  -14.8248  -50.9214 C.3       23 UNK        -0.0205 
    127 H127       -0.2432  -16.0845  -43.0294 H         1 UNK         0.0600 
    128 H128       -1.8579  -15.5614  -43.5308 H         1 UNK         0.0600 
    129 H129       -1.3081  -15.2645  -41.8808 H         1 UNK         0.0600 
    130 H130       -1.3398  -14.0377  -45.1401 H         1 UNK         0.3000 
    131 H131       -0.0801  -11.5155  -44.3721 H         1 UNK         0.0600 
    132 H132       -0.6108  -10.8178  -46.7095 H         1 UNK         0.0800 
    133 H133       -1.1636  -12.4304  -47.0879 H         1 UNK         0.0800 
    134 H134       -3.4306  -10.9029  -47.9331 H         1 UNK         0.0800 
    135 H135       -4.7925  -11.2406  -46.8928 H         1 UNK         0.0800 
    136 H136       -4.2205  -12.4222  -49.6461 H         1 UNK         0.1150 
    137 H137       -3.9533  -16.6417  -48.9645 H         1 UNK         0.1150 
    138 H138       -3.4642  -13.9212  -45.6949 H         1 UNK         0.1150 
    139 H139       -3.7442  -16.3388  -45.2928 H         1 UNK         0.0800 
    140 H140       -3.9498  -17.4531  -46.6301 H         1 UNK         0.0800 
    141 H141       -2.4491  -18.3462  -44.4896 H         1 UNK         0.0800 
    142 H142       -0.7522  -18.0313  -44.3968 H         1 UNK         0.0800 
    143 H143       -0.7405  -19.4673  -46.7412 H         1 UNK         0.0600 
    144 H144        0.0490  -20.0378  -44.1126 H         1 UNK         0.3000 
    145 H145        1.2825  -23.3394  -44.6253 H         1 UNK         0.0600 
    146 H146        3.3338  -22.2967  -43.7543 H         1 UNK         0.0600 
    147 H147        3.0827  -21.7834  -45.4153 H         1 UNK         0.0600 
    148 H148        2.7170  -20.6836  -44.0924 H         1 UNK         0.0600 
    149 H149        1.1702  -21.5153  -42.3896 H         1 UNK         0.3000 
    150 H150       -1.9410  -22.6764  -41.0867 H         1 UNK         0.0600 
    151 H151       -0.2023  -24.2870  -40.2891 H         1 UNK         0.0600 
    152 H152       -0.4938  -23.0230  -39.1052 H         1 UNK         0.0600 
    153 H153        0.9533  -22.9719  -40.1121 H         1 UNK         0.0600 
    154 H154       -0.0732  -20.7089  -40.1833 H         1 UNK         0.3000 
    155 H155       -1.4082  -17.9498  -41.9915 H         1 UNK         0.0600 
    156 H156       -1.6434  -18.6578  -39.0225 H         1 UNK         0.0600 
    157 H157       -1.7667  -17.0437  -39.7240 H         1 UNK         0.0600 
    158 H158       -2.9879  -18.2528  -40.0832 H         1 UNK         0.0600 
    159 H159        0.5592  -17.9728  -39.9837 H         1 UNK         0.3000 
    160 H160        2.6745  -17.2850  -40.7165 H         1 UNK         0.0600 
    161 H161        3.3805  -20.2560  -41.1393 H         1 UNK         0.0600 
    162 H162        2.7108  -19.5751  -39.6601 H         1 UNK         0.0600 
    163 H163        4.3198  -19.1109  -40.1848 H         1 UNK         0.0600 
    164 H164        3.1989  -18.3162  -43.3759 H         1 UNK         0.3000 
    165 H165        5.7160  -15.9773  -43.9615 H         1 UNK         0.0600 
    166 H166        7.2725  -17.7518  -44.7365 H         1 UNK         0.0600 
    167 H167        7.3140  -17.6235  -42.9863 H         1 UNK         0.0600 
    168 H168        6.4392  -18.9488  -43.7432 H         1 UNK         0.0600 
    169 H169        4.8334  -18.2836  -45.4594 H         1 UNK         0.3000 
    170 H170        3.7637  -17.6160  -47.4873 H         1 UNK         0.0600 
    171 H171        2.5243  -19.1177  -45.9250 H         1 UNK         0.0600 
    172 H172        1.2546  -17.9176  -45.7441 H         1 UNK         0.0600 
    173 H173        1.4985  -18.7316  -47.2903 H         1 UNK         0.0600 
    174 H174        2.1016  -15.2915  -47.0661 H         1 UNK         0.3000 
    175 H175        1.1759  -15.2102  -50.5833 H         1 UNK         0.0600 
    176 H176       -0.8193  -15.9054  -49.2819 H         1 UNK         0.0600 
    177 H177       -0.3798  -14.8109  -47.9795 H         1 UNK         0.0600 
    178 H178       -0.8161  -14.1721  -49.5595 H         1 UNK         0.0600 
    179 H179        1.6756  -13.4382  -48.2492 H         1 UNK         0.3000 
    180 H180        4.3736  -11.8154  -49.7556 H         1 UNK         0.0600 
    181 H181        1.5459  -10.6409  -49.9289 H         1 UNK         0.0600 
    182 H182        2.6930  -10.7519  -51.2582 H         1 UNK         0.0600 
    183 H183        3.0478   -9.7158  -49.8856 H         1 UNK         0.0600 
    184 H184        2.4550  -11.0795  -47.6972 H         1 UNK         0.3000 
    185 H185        3.9389  -12.9282  -45.1006 H         1 UNK         0.0600 
    186 H186        5.5367  -11.0082  -45.2460 H         1 UNK         0.0600 
    187 H187        4.1961   -9.9099  -45.5508 H         1 UNK         0.0600 
    188 H188        4.3231  -10.7501  -44.0043 H         1 UNK         0.0600 
    189 H189        2.0209  -10.9844  -44.7875 H         1 UNK         0.3000 
    190 H190       -2.6248  -20.9707  -44.0928 H         1 UNK         0.3000 
    191 H191       -4.9992  -21.4675  -45.5488 H         1 UNK         0.0600 
    192 H192       -3.8026  -22.9500  -43.1462 H         1 UNK         0.0600 
    193 H193       -5.4676  -23.0867  -43.7003 H         1 UNK         0.0600 
    194 H194       -4.8742  -21.5537  -43.0779 H         1 UNK         0.0600 
    195 H195       -2.1007  -23.5456  -45.0420 H         1 UNK         0.3000 
    196 H196       -3.0108  -25.7938  -46.4949 H         1 UNK         0.0600 
    197 H197       -0.6021  -26.4331  -46.5317 H         1 UNK         0.0600 
    198 H198       -1.0829  -25.8666  -44.9392 H         1 UNK         0.0600 
    199 H199       -0.1486  -24.8181  -46.0039 H         1 UNK         0.0600 
    200 H200       -1.1252  -22.9381  -47.5953 H         1 UNK         0.3000 
    201 H201       -0.8113  -23.6762  -50.3068 H         1 UNK         0.0600 
    202 H202        0.4904  -21.8691  -49.2663 H         1 UNK         0.0600 
    203 H203       -0.9610  -20.9049  -49.0178 H         1 UNK         0.0600 
    204 H204       -0.3887  -21.2345  -50.6465 H         1 UNK         0.0600 
    205 H205       -3.3443  -21.6522  -48.7380 H         1 UNK         0.3000 
    206 H206       -4.8719  -21.1229  -51.0244 H         1 UNK         0.0600 
    207 H207       -6.6747  -20.5434  -49.3868 H         1 UNK         0.0600 
    208 H208       -5.7512  -21.3075  -48.0958 H         1 UNK         0.0600 
    209 H209       -5.1225  -19.8757  -48.9100 H         1 UNK         0.0600 
    210 H210       -5.0565  -23.8712  -48.7761 H         1 UNK         0.3000 
    211 H211       -7.3411  -25.1538  -49.9560 H         1 UNK         0.0600 
    212 H212       -5.1911  -26.1836  -48.0378 H         1 UNK         0.0600 
    213 H213       -6.7102  -26.9965  -48.4020 H         1 UNK         0.0600 
    214 H214       -6.7246  -25.4444  -47.5811 H         1 UNK         0.0600 
    215 H215       -6.2295  -24.7161  -52.1394 H         1 UNK         0.3000 
    216 H216       -5.8927  -25.5700  -54.1348 H         1 UNK         0.0600 
    217 H217       -6.2923  -27.9538  -54.5698 H         1 UNK         0.0600 
    218 H218       -7.4391  -27.3626  -53.3802 H         1 UNK         0.0600 
    219 H219       -6.0665  -28.3477  -52.8737 H         1 UNK         0.0600 
    220 H220       -3.4259  -26.1614  -51.8356 H         1 UNK         0.3000 
    221 H221       -1.5682  -27.5567  -53.5089 H         1 UNK         0.0600 
    222 H222       -1.0365  -25.7773  -51.0831 H         1 UNK         0.0600 
    223 H223       -1.3660  -27.5048  -51.0387 H         1 UNK         0.0600 
    224 H224        0.1020  -26.9068  -51.7999 H         1 UNK         0.0600 
    225 H225       -1.9242  -24.0740  -52.7273 H         1 UNK         0.3000 
    226 H226       -0.4799  -23.3309  -55.2412 H         1 UNK         0.0600 
    227 H227        0.3169  -22.2359  -53.0865 H         1 UNK         0.0600 
    228 H228       -0.2951  -21.1024  -54.2808 H         1 UNK         0.0600 
    229 H229       -1.2889  -21.5281  -52.8992 H         1 UNK         0.0600 
    230 H230       -3.4687  -23.2670  -53.4097 H         1 UNK         0.3000 
    231 H231       -5.6024  -23.2100  -53.9332 H         1 UNK         0.0600 
    232 H232       -6.5132  -23.1583  -56.1895 H         1 UNK         0.0600 
    233 H233       -5.1487  -24.2666  -56.1605 H         1 UNK         0.0600 
    234 H234       -4.9757  -22.6650  -56.8749 H         1 UNK         0.0600 
    235 H235       -6.4648  -21.6163  -52.9000 H         1 UNK         0.3000 
    236 H236       -7.2659  -19.7134  -52.2019 H         1 UNK         0.0600 
    237 H237       -8.3524  -19.4709  -54.4007 H         1 UNK         0.0600 
    238 H238       -7.8807  -17.8967  -53.7809 H         1 UNK         0.0600 
    239 H239       -6.9404  -18.6504  -55.0590 H         1 UNK         0.0600 
    240 H240       -4.6799  -18.6612  -54.4227 H         1 UNK         0.3000 
    241 H241       -3.0249  -17.7735  -52.2361 H         1 UNK         0.0600 
    242 H242       -1.5095  -19.2649  -55.5511 H         1 UNK         0.3800 
    243 H243       -3.1749  -19.4905  -55.1060 H         1 UNK         0.3800 
    244 H244       -4.6398  -15.7433  -53.4021 H         1 UNK         0.0800 
    245 H245       -3.1325  -15.5404  -54.2200 H         1 UNK         0.0800 
    246 H246       -4.9785  -13.9927  -51.3605 H         1 UNK         0.0800 
    247 H247       -5.0748  -15.6979  -50.9979 H         1 UNK         0.0800 
@<TRIPOS>BOND
     1    1    2 1    
     2    1  127 1    
     3    1  128 1    
     4    1  129 1    
     5    2    3 2    
     6    2    4 am   BACKBONE|DICT|INTERRES
     7    4    5 1    
     8    4  130 1    
     9    5    6 1    
    10    5   65 1    
    11    5  131 1    
    12    6    7 1    
    13    6  132 1    
    14    6  133 1    
    15    7    8 1    
    16    8    9 1    
    17    8  134 1    
    18    8  135 1    
    19    9   10 ar   
    20    9   14 ar   
    21   10   11 ar   
    22   10  136 1    
    23   11   12 ar   
    24   11  126 1    
    25   12   13 ar   
    26   12  137 1    
    27   13   14 ar   
    28   13   15 1    
    29   14  138 1    
    30   15   16 1    
    31   15  139 1    
    32   15  140 1    
    33   16   17 1    
    34   17   18 1    
    35   17  141 1    
    36   17  142 1    
    37   18   19 1    
    38   18   67 1    
    39   18  143 1    
    40   19   20 am   BACKBONE|DICT|INTERRES
    41   19  144 1    
    42   20   21 2    
    43   20   22 1    
    44   22   23 1    
    45   22   24 1    
    46   22  145 1    
    47   23  146 1    
    48   23  147 1    
    49   23  148 1    
    50   24   25 am   BACKBONE|DICT|INTERRES
    51   24  149 1    
    52   25   26 2    
    53   25   27 1    
    54   27   28 1    
    55   27   29 1    
    56   27  150 1    
    57   28  151 1    
    58   28  152 1    
    59   28  153 1    
    60   29   30 am   BACKBONE|DICT|INTERRES
    61   29  154 1    
    62   30   31 2    
    63   30   32 1    
    64   32   33 1    
    65   32   34 1    
    66   32  155 1    
    67   33  156 1    
    68   33  157 1    
    69   33  158 1    
    70   34   35 am   BACKBONE|DICT|INTERRES
    71   34  159 1    
    72   35   36 2    
    73   35   37 1    
    74   37   38 1    
    75   37   39 1    
    76   37  160 1    
    77   38  161 1    
    78   38  162 1    
    79   38  163 1    
    80   39   40 am   BACKBONE|DICT|INTERRES
    81   39  164 1    
    82   40   41 2    
    83   40   42 1    
    84   42   43 1    
    85   42   44 1    
    86   42  165 1    
    87   43  166 1    
    88   43  167 1    
    89   43  168 1    
    90   44   45 am   BACKBONE|DICT|INTERRES
    91   44  169 1    
    92   45   46 2    
    93   45   47 1    
    94   47   48 1    
    95   47   49 1    
    96   47  170 1    
    97   48  171 1    
    98   48  172 1    
    99   48  173 1    
   100   49   50 am   BACKBONE|DICT|INTERRES
   101   49  174 1    
   102   50   51 2    
   103   50   52 1    
   104   52   53 1    
   105   52   54 1    
   106   52  175 1    
   107   53  176 1    
   108   53  177 1    
   109   53  178 1    
   110   54   55 am   BACKBONE|DICT|INTERRES
   111   54  179 1    
   112   55   56 2    
   113   55   57 1    
   114   57   58 1    
   115   57   59 1    
   116   57  180 1    
   117   58  181 1    
   118   58  182 1    
   119   58  183 1    
   120   59   60 am   BACKBONE|DICT|INTERRES
   121   59  184 1    
   122   60   61 2    
   123   60   62 1    
   124   62   63 1    
   125   62   64 1    
   126   62  185 1    
   127   63  186 1    
   128   63  187 1    
   129   63  188 1    
   130   64   65 am   BACKBONE|DICT|INTERRES
   131   64  189 1    
   132   65   66 2    
   133   67   68 2    
   134   67   69 am   BACKBONE|DICT|INTERRES
   135   69   70 1    
   136   69  190 1    
   137   70   71 1    
   138   70   72 1    
   139   70  191 1    
   140   71  192 1    
   141   71  193 1    
   142   71  194 1    
   143   72   73 2    
   144   72   74 am   BACKBONE|DICT|INTERRES
   145   74   75 1    
   146   74  195 1    
   147   75   76 1    
   148   75   77 1    
   149   75  196 1    
   150   76  197 1    
   151   76  198 1    
   152   76  199 1    
   153   77   78 2    
   154   77   79 am   BACKBONE|DICT|INTERRES
   155   79   80 1    
   156   79  200 1    
   157   80   81 1    
   158   80   82 1    
   159   80  201 1    
   160   81  202 1    
   161   81  203 1    
   162   81  204 1    
   163   82   83 2    
   164   82   84 am   BACKBONE|DICT|INTERRES
   165   84   85 1    
   166   84  205 1    
   167   85   86 1    
   168   85   87 1    
   169   85  206 1    
   170   86  207 1    
   171   86  208 1    
   172   86  209 1    
   173   87   88 2    
   174   87   89 am   BACKBONE|DICT|INTERRES
   175   89   90 1    
   176   89  210 1    
   177   90   91 1    
   178   90   92 1    
   179   90  211 1    
   180   91  212 1    
   181   91  213 1    
   182   91  214 1    
   183   92   93 2    
   184   92   94 am   BACKBONE|DICT|INTERRES
   185   94   95 1    
   186   94  215 1    
   187   95   96 1    
   188   95   97 1    
   189   95  216 1    
   190   96  217 1    
   191   96  218 1    
   192   96  219 1    
   193   97   98 2    
   194   97   99 am   BACKBONE|DICT|INTERRES
   195   99  100 1    
   196   99  220 1    
   197  100  101 1    
   198  100  102 1    
   199  100  221 1    
   200  101  222 1    
   201  101  223 1    
   202  101  224 1    
   203  102  103 2    
   204  102  104 am   BACKBONE|DICT|INTERRES
   205  104  105 1    
   206  104  225 1    
   207  105  106 1    
   208  105  107 1    
   209  105  226 1    
   210  106  227 1    
   211  106  228 1    
   212  106  229 1    
   213  107  108 2    
   214  107  109 am   BACKBONE|DICT|INTERRES
   215  109  110 1    
   216  109  230 1    
   217  110  111 1    
   218  110  112 1    
   219  110  231 1    
   220  111  232 1    
   221  111  233 1    
   222  111  234 1    
   223  112  113 2    
   224  112  114 am   BACKBONE|DICT|INTERRES
   225  114  115 1    
   226  114  235 1    
   227  115  116 1    
   228  115  117 1    
   229  115  236 1    
   230  116  237 1    
   231  116  238 1    
   232  116  239 1    
   233  117  118 2    
   234  117  119 am   BACKBONE|DICT|INTERRES
   235  119  120 1    
   236  119  240 1    
   237  120  121 1    
   238  120  124 1    
   239  120  241 1    
   240  121  122 am   BACKBONE|DICT|INTERRES
   241  121  123 2    
   242  122  242 1    
   243  122  243 1    
   244  124  125 1    
   245  124  244 1    
   246  124  245 1    
   247  125  126 1    
   248  126  246 1    
   249  126  247 1    
@<TRIPOS>SUBSTRUCTURE
     1 UNK         1 GROUP             0       ****    0 ROOT    
