@<TRIPOS>MOLECULE
3R540
247   249    1
SMALL
USER_CHARGES


@<TRIPOS>ATOM
      1 CA         -4.0911  -16.0517  -47.1214 C.3       0 UNK        -0.1800 
      2 C          -3.1452  -15.0589  -47.7845 C.2       0 UNK         0.5000 
      3 O          -3.5952  -14.0849  -48.3881 O.2       0 UNK        -0.5000 
      4 N          -1.8374  -15.3133  -47.6760 N.am      1 UNK        -0.5000 
      5 CA         -0.7490  -14.4878  -48.2091 C.3       1 UNK         0.1400 
      6 C6          0.6222  -15.1937  -48.0584 C.3       23 UNK        -0.0398 
      7 S7          0.6424  -16.8586  -48.7906 S.3       23 UNK        -0.2404 
      8 C8          2.0150  -16.7335  -49.9794 C.3       23 UNK        -0.0205 
      9 C9          2.3108  -18.1039  -50.5615 C.ar      23 UNK        -0.0193 
     10 C10         1.9737  -18.4177  -51.8800 C.ar      23 UNK        -0.1150 
     11 C11         2.1677  -19.7136  -52.3688 C.ar      23 UNK        -0.0193 
     12 C12         2.6798  -20.7018  -51.5208 C.ar      23 UNK        -0.1150 
     13 C13         3.0105  -20.4007  -50.1951 C.ar      23 UNK        -0.0193 
     14 C14         2.8675  -19.0858  -49.7423 C.ar      23 UNK        -0.1150 
     15 C15         3.4570  -21.5142  -49.2475 C.3       23 UNK        -0.0205 
     16 S16         2.8515  -21.3282  -47.5258 S.3       23 UNK        -0.2404 
     17 C17         1.0679  -21.0005  -47.7668 C.3       23 UNK        -0.0398 
     18 CA          0.1813  -22.0669  -47.0990 C.3       11 UNK         0.1400 
     19 N           0.2174  -21.9958  -45.6365 N.am      11 UNK        -0.5000 
     20 C          -0.2303  -22.9700  -44.8344 C.2       10 UNK         0.5000 
     21 O          -0.7468  -24.0068  -45.2501 O.2       10 UNK        -0.5000 
     22 CA         -0.1348  -22.7287  -43.3203 C.3       10 UNK         0.1400 
     23 CB          1.3223  -22.8032  -42.8398 C.3       10 UNK        -0.1800 
     24 N          -0.7327  -21.4534  -42.9278 N.am      10 UNK        -0.5000 
     25 C          -2.0343  -21.1585  -43.0632 C.2       9 UNK         0.5000 
     26 O          -2.8749  -21.9491  -43.4931 O.2       9 UNK        -0.5000 
     27 CA         -2.4718  -19.7352  -42.6758 C.3       9 UNK         0.1400 
     28 CB         -2.7043  -19.6383  -41.1608 C.3       9 UNK        -0.1800 
     29 N          -1.5208  -18.7052  -43.0969 N.am      9 UNK        -0.5000 
     30 C          -1.2212  -18.4249  -44.3738 C.2       8 UNK         0.5000 
     31 O          -1.7194  -19.0012  -45.3384 O.2       8 UNK        -0.5000 
     32 CA         -0.1452  -17.3549  -44.6195 C.3       8 UNK         0.1400 
     33 CB         -0.6910  -15.9460  -44.3411 C.3       8 UNK        -0.1800 
     34 N           1.0554  -17.5797  -43.8206 N.am      8 UNK        -0.5000 
     35 C           1.8188  -18.6803  -43.8689 C.2       7 UNK         0.5000 
     36 O           1.6172  -19.6299  -44.6263 O.2       7 UNK        -0.5000 
     37 CA          2.9713  -18.7473  -42.8547 C.3       7 UNK         0.1400 
     38 CB          4.1635  -17.8973  -43.3209 C.3       7 UNK        -0.1800 
     39 N           2.5476  -18.3129  -41.5230 N.am      7 UNK        -0.5000 
     40 C           1.6882  -18.9859  -40.7445 C.2       6 UNK         0.5000 
     41 O           1.1733  -20.0588  -41.0578 O.2       6 UNK        -0.5000 
     42 CA          1.3139  -18.3272  -39.4050 C.3       6 UNK         0.1400 
     43 CB          2.4174  -18.5496  -38.3598 C.3       6 UNK        -0.1800 
     44 N           1.0491  -16.8940  -39.5376 N.am      6 UNK        -0.5000 
     45 C           0.0166  -16.3802  -40.2199 C.2       5 UNK         0.5000 
     46 O          -0.8245  -17.0601  -40.8059 O.2       5 UNK        -0.5000 
     47 CA         -0.0709  -14.8461  -40.2938 C.3       5 UNK         0.1400 
     48 CB         -0.7568  -14.2842  -39.0394 C.3       5 UNK        -0.1800 
     49 N           1.2183  -14.1750  -40.4855 N.am      5 UNK        -0.5000 
     50 C           2.0533  -14.3922  -41.5100 C.2       4 UNK         0.5000 
     51 O           1.9088  -15.2913  -42.3413 O.2       4 UNK        -0.5000 
     52 CA          3.2637  -13.4483  -41.6255 C.3       4 UNK         0.1400 
     53 CB          4.5290  -14.1359  -41.0902 C.3       4 UNK        -0.1800 
     54 N           3.4881  -13.0430  -43.0146 N.am      4 UNK        -0.5000 
     55 C           2.6149  -12.3489  -43.7579 C.2       3 UNK         0.5000 
     56 O           1.5735  -11.8622  -43.3072 O.2       3 UNK        -0.5000 
     57 CA          2.9596  -12.1719  -45.2478 C.3       3 UNK         0.1400 
     58 CB          3.5201  -13.4610  -45.8855 C.3       3 UNK        -0.1800 
     59 N           1.7575  -11.7659  -45.9687 N.am      3 UNK        -0.5000 
     60 C           1.7061  -10.9992  -47.0608 C.2       2 UNK         0.5000 
     61 O           2.6989  -10.4974  -47.5916 O.2       2 UNK        -0.5000 
     62 CA          0.3084  -10.8340  -47.6959 C.3       2 UNK         0.1400 
     63 CB          0.2835   -9.7817  -48.8191 C.3       2 UNK        -0.1800 
     64 N          -0.1367  -12.1185  -48.2402 N.am      2 UNK        -0.5000 
     65 C          -0.6685  -13.1121  -47.5168 C.2       1 UNK         0.5000 
     66 O          -0.9850  -12.9949  -46.3298 O.2       1 UNK        -0.5000 
     67 C          -1.2524  -22.0265  -47.6645 C.2       11 UNK         0.5000 
     68 O          -1.4980  -22.6619  -48.6896 O.2       11 UNK        -0.5000 
     69 N          -2.1887  -21.3433  -46.9909 N.am      12 UNK        -0.5000 
     70 CA         -3.6135  -21.3475  -47.3405 C.3       12 UNK         0.1400 
     71 CB         -4.3611  -20.2925  -46.5129 C.3       12 UNK        -0.1800 
     72 C          -4.2810  -22.7297  -47.1901 C.2       12 UNK         0.5000 
     73 O          -5.2974  -22.9749  -47.8389 O.2       12 UNK        -0.5000 
     74 N          -3.6971  -23.6100  -46.3665 N.am      13 UNK        -0.5000 
     75 CA         -4.1012  -25.0054  -46.2294 C.3       13 UNK         0.1400 
     76 CB         -3.9706  -25.4303  -44.7577 C.3       13 UNK        -0.1800 
     77 C          -3.2627  -25.9165  -47.1433 C.2       13 UNK         0.5000 
     78 O          -3.8309  -26.7170  -47.8860 O.2       13 UNK        -0.5000 
     79 N          -1.9301  -25.7968  -47.0592 N.am      14 UNK        -0.5000 
     80 CA         -0.9743  -26.7106  -47.6872 C.3       14 UNK         0.1400 
     81 CB          0.3972  -26.5490  -47.0123 C.3       14 UNK        -0.1800 
     82 C          -0.8446  -26.5381  -49.2100 C.2       14 UNK         0.5000 
     83 O          -0.8043  -27.5380  -49.9281 O.2       14 UNK        -0.5000 
     84 N          -0.7622  -25.2847  -49.6712 N.am      15 UNK        -0.5000 
     85 CA         -0.5728  -24.9257  -51.0802 C.3       15 UNK         0.1400 
     86 CB          0.5542  -23.8806  -51.1700 C.3       15 UNK        -0.1800 
     87 C          -1.8614  -24.3758  -51.7178 C.2       15 UNK         0.5000 
     88 O          -1.8979  -24.1938  -52.9350 O.2       15 UNK        -0.5000 
     89 N          -2.8753  -24.0948  -50.8845 N.am      16 UNK        -0.5000 
     90 CA         -4.1064  -23.3670  -51.2016 C.3       16 UNK         0.1400 
     91 CB         -5.0216  -24.1874  -52.1330 C.3       16 UNK        -0.1800 
     92 C          -3.8270  -21.9236  -51.6762 C.2       16 UNK         0.5000 
     93 O          -4.5214  -21.4049  -52.5528 O.2       16 UNK        -0.5000 
     94 N          -2.8038  -21.2983  -51.0746 N.am      17 UNK        -0.5000 
     95 CA         -2.3629  -19.9353  -51.3610 C.3       17 UNK         0.1400 
     96 CB         -1.1084  -19.6207  -50.5401 C.3       17 UNK        -0.1800 
     97 C          -3.4750  -18.9100  -51.0870 C.2       17 UNK         0.5000 
     98 O          -3.9519  -18.8155  -49.9544 O.2       17 UNK        -0.5000 
     99 N          -3.8921  -18.2087  -52.1491 N.am      18 UNK        -0.5000 
    100 CA        -5.0249  -17.2796  -52.2127 C.3       18 UNK         0.1400 
    101 CB        -4.7726  -16.0440  -51.3242 C.3       18 UNK        -0.1800 
    102 C         -6.3971  -17.9403  -51.9380 C.2       18 UNK         0.5000 
    103 O         -7.3634  -17.2320  -51.6508 O.2       18 UNK        -0.5000 
    104 N         -6.4747  -19.2728  -52.0562 N.am      19 UNK        -0.5000 
    105 CA        -7.6672  -20.0866  -51.8322 C.3       19 UNK         0.1400 
    106 CB        -7.4590  -20.9553  -50.5773 C.3       19 UNK        -0.1800 
    107 C         -7.9665  -20.9073  -53.0989 C.2       19 UNK         0.5000 
    108 O         -8.1273  -22.1265  -53.0306 O.2       19 UNK        -0.5000 
    109 N         -8.0332  -20.2015  -54.2377 N.am      20 UNK        -0.5000 
    110 CA        -8.3268  -20.7074  -55.5842 C.3       20 UNK         0.1400 
    111 CB        -9.7406  -21.3247  -55.6544 C.3       20 UNK        -0.1800 
    112 C         -7.2294  -21.6294  -56.1599 C.2       20 UNK         0.5000 
    113 O         -7.5352  -22.5511  -56.9196 O.2       20 UNK        -0.5000 
    114 N         -5.9675  -21.3384  -55.8243 N.am      21 UNK        -0.5000 
    115 CA        -4.7809  -21.9525  -56.4132 C.3       21 UNK         0.1400 
    116 CB        -4.3194  -23.1617  -55.5787 C.3       21 UNK        -0.1800 
    117 C         -3.7189  -20.8585  -56.6101 C.2       21 UNK         0.5000 
    118 O         -3.9956  -19.8899  -57.3212 O.2       21 UNK        -0.5000 
    119 N         -2.5295  -21.0257  -56.0182 N.am      22 UNK        -0.5000 
    120 CA        -1.4006  -20.0914  -56.1363 C.3       22 UNK         0.1400 
    121 C         -1.6296  -18.7138  -55.4419 C.2       22 UNK         0.5000 
    122 N         -0.8137  -17.7160  -55.7543 N.am      22 UNK        -0.7600 
    123 O         -2.5226  -18.5398  -54.6144 O.2       22 UNK        -0.5000 
    124 C124       -0.0610  -20.7767  -55.7485 C.3       23 UNK        -0.0398 
    125 S125        0.2474  -20.9508  -53.9528 S.3       23 UNK        -0.2404 
    126 C126        1.8188  -20.0407  -53.8114 C.3       23 UNK        -0.0205 
    127 H127       -4.8078  -15.5259  -46.4900 H         1 UNK         0.0600 
    128 H128       -4.6439  -16.6106  -47.8769 H         1 UNK         0.0600 
    129 H129       -3.5531  -16.7675  -46.4982 H         1 UNK         0.0600 
    130 H130       -1.5410  -16.1480  -47.1941 H         1 UNK         0.3000 
    131 H131       -0.9476  -14.3290  -49.2712 H         1 UNK         0.0600 
    132 H132        1.4133  -14.5937  -48.5120 H         1 UNK         0.0800 
    133 H133        0.8905  -15.2969  -47.0055 H         1 UNK         0.0800 
    134 H134        2.9064  -16.3520  -49.4791 H         1 UNK         0.0800 
    135 H135        1.7576  -16.0204  -50.7640 H         1 UNK         0.0800 
    136 H136        1.5420  -17.6603  -52.5190 H         1 UNK         0.1150 
    137 H137        2.7946  -21.7113  -51.8899 H         1 UNK         0.1150 
    138 H138        3.1151  -18.8346  -48.7208 H         1 UNK         0.1150 
    139 H139        3.1166  -22.4809  -49.6219 H         1 UNK         0.0800 
    140 H140        4.5467  -21.5508  -49.2366 H         1 UNK         0.0800 
    141 H141        0.8602  -20.9684  -48.8352 H         1 UNK         0.0800 
    142 H142        0.8348  -20.0052  -47.3835 H         1 UNK         0.0800 
    143 H143        0.5825  -23.0424  -47.3828 H         1 UNK         0.0600 
    144 H144        0.6408  -21.1641  -45.2304 H         1 UNK         0.3000 
    145 H145       -0.6925  -23.5255  -42.8237 H         1 UNK         0.0600 
    146 H146        1.3807  -22.7424  -41.7531 H         1 UNK         0.0600 
    147 H147        1.7842  -23.7455  -43.1372 H         1 UNK         0.0600 
    148 H148        1.9278  -21.9958  -43.2522 H         1 UNK         0.0600 
    149 H149       -0.1081  -20.7628  -42.5254 H         1 UNK         0.3000 
    150 H150       -3.4207  -19.5338  -43.1771 H         1 UNK         0.0600 
    151 H151       -3.4125  -20.3961  -40.8234 H         1 UNK         0.0600 
    152 H152       -3.1143  -18.6661  -40.8870 H         1 UNK         0.0600 
    153 H153       -1.7779  -19.7803  -40.6026 H         1 UNK         0.0600 
    154 H154       -1.0849  -18.1644  -42.3545 H         1 UNK         0.3000 
    155 H155        0.1435  -17.4108  -45.6709 H         1 UNK         0.0600 
    156 H156       -0.9329  -15.8102  -43.2875 H         1 UNK         0.0600 
    157 H157       -1.6013  -15.7530  -44.9083 H         1 UNK         0.0600 
    158 H158        0.0341  -15.1792  -44.6147 H         1 UNK         0.0600 
    159 H159        1.3195  -16.8335  -43.1807 H         1 UNK         0.3000 
    160 H160        3.2991  -19.7868  -42.7867 H         1 UNK         0.0600 
    161 H161        5.0025  -17.9819  -42.6302 H         1 UNK         0.0600 
    162 H162        3.9024  -16.8417  -43.4041 H         1 UNK         0.0600 
    163 H163        4.5141  -18.2253  -44.3003 H         1 UNK         0.0600 
    164 H164        2.8691  -17.4064  -41.2177 H         1 UNK         0.3000 
    165 H165        0.4018  -18.8072  -39.0435 H         1 UNK         0.0600 
    166 H166        2.1215  -18.1596  -37.3857 H         1 UNK         0.0600 
    167 H167        2.6256  -19.6129  -38.2333 H         1 UNK         0.0600 
    168 H168        3.3509  -18.0639  -38.6467 H         1 UNK         0.0600 
    169 H169        1.6986  -16.2612  -39.0946 H         1 UNK         0.3000 
    170 H170       -0.6934  -14.5987  -41.1558 H         1 UNK         0.0600 
    171 H171       -1.7285  -14.7545  -38.8817 H         1 UNK         0.0600 
    172 H172       -0.1601  -14.4547  -38.1425 H         1 UNK         0.0600 
    173 H173       -0.9286  -13.2115  -39.1302 H         1 UNK         0.0600 
    174 H174        1.4258  -13.4239  -39.8433 H         1 UNK         0.3000 
    175 H175        3.0756  -12.5489  -41.0356 H         1 UNK         0.0600 
    176 H176        4.7721  -15.0339  -41.6600 H         1 UNK         0.0600 
    177 H177        5.3895  -13.4679  -41.1334 H         1 UNK         0.0600 
    178 H178        4.4018  -14.4329  -40.0484 H         1 UNK         0.0600 
    179 H179        4.3063  -13.4270  -43.4630 H         1 UNK         0.3000 
    180 H180        3.7083  -11.3801  -45.3148 H         1 UNK         0.0600 
    181 H181        2.8507  -14.3081  -45.7296 H         1 UNK         0.0600 
    182 H182        4.4914  -13.7251  -45.4667 H         1 UNK         0.0600 
    183 H183        3.6620  -13.3428  -46.9600 H         1 UNK         0.0600 
    184 H184        0.8868  -12.1083  -45.5758 H         1 UNK         0.3000 
    185 H185       -0.3802  -10.5059  -46.9142 H         1 UNK         0.0600 
    186 H186        0.6076   -8.8085  -48.4485 H         1 UNK         0.0600 
    187 H187        0.9400  -10.0546  -49.6464 H         1 UNK         0.0600 
    188 H188       -0.7233   -9.6573  -49.2184 H         1 UNK         0.0600 
    189 H189        0.1229  -12.2983  -49.1997 H         1 UNK         0.3000 
    190 H190       -1.9198  -20.7691  -46.1972 H         1 UNK         0.3000 
    191 H191       -3.6997  -21.0647  -48.3907 H         1 UNK         0.0600 
    192 H192       -4.2530  -20.4691  -45.4427 H         1 UNK         0.0600 
    193 H193       -5.4272  -20.2959  -46.7431 H         1 UNK         0.0600 
    194 H194       -3.9908  -19.2912  -46.7320 H         1 UNK         0.0600 
    195 H195       -2.8708  -23.3246  -45.8568 H         1 UNK         0.3000 
    196 H196       -5.1497  -25.1213  -46.5120 H         1 UNK         0.0600 
    197 H197       -4.2695  -26.4706  -44.6238 H         1 UNK         0.0600 
    198 H198       -4.6100  -24.8224  -44.1173 H         1 UNK         0.0600 
    199 H199       -2.9482  -25.3323  -44.3916 H         1 UNK         0.0600 
    200 H200       -1.5382  -25.1212  -46.4051 H         1 UNK         0.3000 
    201 H201       -1.3158  -27.7313  -47.5011 H         1 UNK         0.0600 
    202 H202        0.3357  -26.7505  -45.9426 H         1 UNK         0.0600 
    203 H203        0.7940  -25.5412  -47.1389 H         1 UNK         0.0600 
    204 H204        1.1251  -27.2440  -47.4328 H         1 UNK         0.0600 
    205 H205       -0.8513  -24.5077  -49.0261 H         1 UNK         0.3000 
    206 H206       -0.2699  -25.7982  -51.6623 H         1 UNK         0.0600 
    207 H207        1.4786  -24.2582  -50.7332 H         1 UNK         0.0600 
    208 H208        0.7676  -23.6250  -52.2087 H         1 UNK         0.0600 
    209 H209        0.2948  -22.9544  -50.6567 H         1 UNK         0.0600 
    210 H210       -2.7105  -24.2597  -49.9017 H         1 UNK         0.3000 
    211 H211       -4.6436  -23.2549  -50.2628 H         1 UNK         0.0600 
    212 H212       -4.5235  -24.4715  -53.0574 H         1 UNK         0.0600 
    213 H213       -5.9207  -23.6313  -52.3991 H         1 UNK         0.0600 
    214 H214       -5.3457  -25.1051  -51.6428 H         1 UNK         0.0600 
    215 H215       -2.2979  -21.7929  -50.3487 H         1 UNK         0.3000 
    216 H216       -2.0922  -19.8994  -52.4163 H         1 UNK         0.0600 
    217 H217       -0.7311  -18.6293  -50.7894 H         1 UNK         0.0600 
    218 H218       -0.3125  -20.3333  -50.7538 H         1 UNK         0.0600 
    219 H219       -1.3075  -19.6353  -49.4684 H         1 UNK         0.0600 
    220 H220       -3.4249  -18.3735  -53.0413 H         1 UNK         0.3000 
    221 H221       -5.0631  -16.9354  -53.2469 H         1 UNK         0.0600 
    222 H222       -4.8128  -16.2941  -50.2646 H         1 UNK         0.0600 
    223 H223       -3.7972  -15.6018  -51.5269 H         1 UNK         0.0600 
    224 H224       -5.5212  -15.2718  -51.5035 H         1 UNK         0.0600 
    225 H225       -5.6404  -19.7962  -52.3086 H         1 UNK         0.3000 
    226 H226       -8.5392  -19.4531  -51.6588 H         1 UNK         0.0600 
    227 H227       -7.2309  -20.3410  -49.7060 H         1 UNK         0.0600 
    228 H228       -8.3574  -21.5285  -50.3457 H         1 UNK         0.0600 
    229 H229       -6.6426  -21.6648  -50.7058 H         1 UNK         0.0600 
    230 H230       -7.8726  -19.2059  -54.1748 H         1 UNK         0.3000 
    231 H231       -8.3333  -19.8292  -56.2314 H         1 UNK         0.0600 
    232 H232      -10.4900  -20.6425  -55.2532 H         1 UNK         0.0600 
    233 H233       -9.8047  -22.2600  -55.0980 H         1 UNK         0.0600 
    234 H234      -10.0215  -21.5411  -56.6858 H         1 UNK         0.0600 
    235 H235       -5.7948  -20.5618  -55.2018 H         1 UNK         0.3000 
    236 H236       -5.0215  -22.3136  -57.4154 H         1 UNK         0.0600 
    237 H237       -3.5035  -23.6913  -56.0717 H         1 UNK         0.0600 
    238 H238       -3.9689  -22.8612  -54.5938 H         1 UNK         0.0600 
    239 H239       -5.1307  -23.8765  -55.4412 H         1 UNK         0.0600 
    240 H240       -2.3923  -21.8164  -55.4052 H         1 UNK         0.3000 
    241 H241       -1.3266  -19.8642  -57.2019 H         1 UNK         0.0600 
    242 H242       -0.9502  -16.8217  -55.3107 H         1 UNK         0.3800 
    243 H243       -0.0794  -17.8208  -56.4366 H         1 UNK         0.3800 
    244 H244       -0.0104  -21.7706  -56.1952 H         1 UNK         0.0800 
    245 H245        0.7636  -20.2272  -56.2039 H         1 UNK         0.0800 
    246 H246        2.6193  -20.6321  -54.2580 H         1 UNK         0.0800 
    247 H247        1.7571  -19.1178  -54.3902 H         1 UNK         0.0800 
@<TRIPOS>BOND
     1    1    2 1    
     2    1  127 1    
     3    1  128 1    
     4    1  129 1    
     5    2    3 2    
     6    2    4 am   BACKBONE|DICT|INTERRES
     7    4    5 1    
     8    4  130 1    
     9    5    6 1    
    10    5   65 1    
    11    5  131 1    
    12    6    7 1    
    13    6  132 1    
    14    6  133 1    
    15    7    8 1    
    16    8    9 1    
    17    8  134 1    
    18    8  135 1    
    19    9   10 ar   
    20    9   14 ar   
    21   10   11 ar   
    22   10  136 1    
    23   11   12 ar   
    24   11  126 1    
    25   12   13 ar   
    26   12  137 1    
    27   13   14 ar   
    28   13   15 1    
    29   14  138 1    
    30   15   16 1    
    31   15  139 1    
    32   15  140 1    
    33   16   17 1    
    34   17   18 1    
    35   17  141 1    
    36   17  142 1    
    37   18   19 1    
    38   18   67 1    
    39   18  143 1    
    40   19   20 am   BACKBONE|DICT|INTERRES
    41   19  144 1    
    42   20   21 2    
    43   20   22 1    
    44   22   23 1    
    45   22   24 1    
    46   22  145 1    
    47   23  146 1    
    48   23  147 1    
    49   23  148 1    
    50   24   25 am   BACKBONE|DICT|INTERRES
    51   24  149 1    
    52   25   26 2    
    53   25   27 1    
    54   27   28 1    
    55   27   29 1    
    56   27  150 1    
    57   28  151 1    
    58   28  152 1    
    59   28  153 1    
    60   29   30 am   BACKBONE|DICT|INTERRES
    61   29  154 1    
    62   30   31 2    
    63   30   32 1    
    64   32   33 1    
    65   32   34 1    
    66   32  155 1    
    67   33  156 1    
    68   33  157 1    
    69   33  158 1    
    70   34   35 am   BACKBONE|DICT|INTERRES
    71   34  159 1    
    72   35   36 2    
    73   35   37 1    
    74   37   38 1    
    75   37   39 1    
    76   37  160 1    
    77   38  161 1    
    78   38  162 1    
    79   38  163 1    
    80   39   40 am   BACKBONE|DICT|INTERRES
    81   39  164 1    
    82   40   41 2    
    83   40   42 1    
    84   42   43 1    
    85   42   44 1    
    86   42  165 1    
    87   43  166 1    
    88   43  167 1    
    89   43  168 1    
    90   44   45 am   BACKBONE|DICT|INTERRES
    91   44  169 1    
    92   45   46 2    
    93   45   47 1    
    94   47   48 1    
    95   47   49 1    
    96   47  170 1    
    97   48  171 1    
    98   48  172 1    
    99   48  173 1    
   100   49   50 am   BACKBONE|DICT|INTERRES
   101   49  174 1    
   102   50   51 2    
   103   50   52 1    
   104   52   53 1    
   105   52   54 1    
   106   52  175 1    
   107   53  176 1    
   108   53  177 1    
   109   53  178 1    
   110   54   55 am   BACKBONE|DICT|INTERRES
   111   54  179 1    
   112   55   56 2    
   113   55   57 1    
   114   57   58 1    
   115   57   59 1    
   116   57  180 1    
   117   58  181 1    
   118   58  182 1    
   119   58  183 1    
   120   59   60 am   BACKBONE|DICT|INTERRES
   121   59  184 1    
   122   60   61 2    
   123   60   62 1    
   124   62   63 1    
   125   62   64 1    
   126   62  185 1    
   127   63  186 1    
   128   63  187 1    
   129   63  188 1    
   130   64   65 am   BACKBONE|DICT|INTERRES
   131   64  189 1    
   132   65   66 2    
   133   67   68 2    
   134   67   69 am   BACKBONE|DICT|INTERRES
   135   69   70 1    
   136   69  190 1    
   137   70   71 1    
   138   70   72 1    
   139   70  191 1    
   140   71  192 1    
   141   71  193 1    
   142   71  194 1    
   143   72   73 2    
   144   72   74 am   BACKBONE|DICT|INTERRES
   145   74   75 1    
   146   74  195 1    
   147   75   76 1    
   148   75   77 1    
   149   75  196 1    
   150   76  197 1    
   151   76  198 1    
   152   76  199 1    
   153   77   78 2    
   154   77   79 am   BACKBONE|DICT|INTERRES
   155   79   80 1    
   156   79  200 1    
   157   80   81 1    
   158   80   82 1    
   159   80  201 1    
   160   81  202 1    
   161   81  203 1    
   162   81  204 1    
   163   82   83 2    
   164   82   84 am   BACKBONE|DICT|INTERRES
   165   84   85 1    
   166   84  205 1    
   167   85   86 1    
   168   85   87 1    
   169   85  206 1    
   170   86  207 1    
   171   86  208 1    
   172   86  209 1    
   173   87   88 2    
   174   87   89 am   BACKBONE|DICT|INTERRES
   175   89   90 1    
   176   89  210 1    
   177   90   91 1    
   178   90   92 1    
   179   90  211 1    
   180   91  212 1    
   181   91  213 1    
   182   91  214 1    
   183   92   93 2    
   184   92   94 am   BACKBONE|DICT|INTERRES
   185   94   95 1    
   186   94  215 1    
   187   95   96 1    
   188   95   97 1    
   189   95  216 1    
   190   96  217 1    
   191   96  218 1    
   192   96  219 1    
   193   97   98 2    
   194   97   99 am   BACKBONE|DICT|INTERRES
   195   99  100 1    
   196   99  220 1    
   197  100  101 1    
   198  100  102 1    
   199  100  221 1    
   200  101  222 1    
   201  101  223 1    
   202  101  224 1    
   203  102  103 2    
   204  102  104 am   BACKBONE|DICT|INTERRES
   205  104  105 1    
   206  104  225 1    
   207  105  106 1    
   208  105  107 1    
   209  105  226 1    
   210  106  227 1    
   211  106  228 1    
   212  106  229 1    
   213  107  108 2    
   214  107  109 am   BACKBONE|DICT|INTERRES
   215  109  110 1    
   216  109  230 1    
   217  110  111 1    
   218  110  112 1    
   219  110  231 1    
   220  111  232 1    
   221  111  233 1    
   222  111  234 1    
   223  112  113 2    
   224  112  114 am   BACKBONE|DICT|INTERRES
   225  114  115 1    
   226  114  235 1    
   227  115  116 1    
   228  115  117 1    
   229  115  236 1    
   230  116  237 1    
   231  116  238 1    
   232  116  239 1    
   233  117  118 2    
   234  117  119 am   BACKBONE|DICT|INTERRES
   235  119  120 1    
   236  119  240 1    
   237  120  121 1    
   238  120  124 1    
   239  120  241 1    
   240  121  122 am   BACKBONE|DICT|INTERRES
   241  121  123 2    
   242  122  242 1    
   243  122  243 1    
   244  124  125 1    
   245  124  244 1    
   246  124  245 1    
   247  125  126 1    
   248  126  246 1    
   249  126  247 1    
@<TRIPOS>SUBSTRUCTURE
     1 UNK         1 GROUP             0       ****    0 ROOT    
