@<TRIPOS>MOLECULE
3R540
247   249    1
SMALL
USER_CHARGES


@<TRIPOS>ATOM
      1 CA          7.6025  -17.3491  -45.6773 C.3       0 UNK        -0.1800 
      2 C           6.3677  -17.4868  -46.5568 C.2       0 UNK         0.5000 
      3 O           5.6828  -18.5064  -46.4894 O.2       0 UNK        -0.5000 
      4 N           6.0917  -16.4653  -47.3784 N.am      1 UNK        -0.5000 
      5 CA          4.9235  -16.3778  -48.2625 C.3       1 UNK         0.1400 
      6 C6          5.1270  -15.3168  -49.3894 C.3       23 UNK        -0.0398 
      7 S7          3.6612  -14.4456  -50.0593 S.3       23 UNK        -0.2404 
      8 C8          3.3266  -15.3628  -51.5969 C.3       23 UNK        -0.0205 
      9 C9          2.3345  -16.4957  -51.3790 C.ar      23 UNK        -0.0193 
     10 C10         0.9620  -16.2466  -51.4721 C.ar      23 UNK        -0.1150 
     11 C11         0.0324  -17.2773  -51.2963 C.ar      23 UNK        -0.0193 
     12 C12         0.4921  -18.5703  -51.0265 C.ar      23 UNK        -0.1150 
     13 C13         1.8636  -18.8370  -50.9465 C.ar      23 UNK        -0.0193 
     14 C14         2.7799  -17.7952  -51.1226 C.ar      23 UNK        -0.1150 
     15 C15         2.3552  -20.2605  -50.7211 C.3       23 UNK        -0.0205 
     16 S16         3.1291  -20.5061  -49.0889 S.3       23 UNK        -0.2404 
     17 C17         1.7627  -20.1397  -47.9348 C.3       23 UNK        -0.0398 
     18 CA          0.9882  -21.3958  -47.4738 C.3       11 UNK         0.1400 
     19 N           0.3142  -21.1807  -46.1914 N.am      11 UNK        -0.5000 
     20 C          -0.2908  -22.1351  -45.4716 C.2       10 UNK         0.5000 
     21 O          -0.2980  -23.3240  -45.7859 O.2       10 UNK        -0.5000 
     22 CA         -1.0612  -21.6841  -44.2175 C.3       10 UNK         0.1400 
     23 CB         -0.1138  -21.5163  -43.0209 C.3       10 UNK        -0.1800 
     24 N          -1.8197  -20.4508  -44.4349 N.am      10 UNK        -0.5000 
     25 C          -2.8352  -20.3363  -45.3037 C.2       9 UNK         0.5000 
     26 O          -3.2681  -21.2740  -45.9729 O.2       9 UNK        -0.5000 
     27 CA         -3.4424  -18.9363  -45.4959 C.3       9 UNK         0.1400 
     28 CB         -4.4534  -18.6182  -44.3855 C.3       9 UNK        -0.1800 
     29 N          -2.4314  -17.8821  -45.5634 N.am      9 UNK        -0.5000 
     30 C          -1.5011  -17.7853  -46.5236 C.2       8 UNK         0.5000 
     31 O          -1.4193  -18.5638  -47.4749 O.2       8 UNK        -0.5000 
     32 CA         -0.4481  -16.6739  -46.3540 C.3       8 UNK         0.1400 
     33 CB         -1.0087  -15.2912  -46.7138 C.3       8 UNK        -0.1800 
     34 N           0.1067  -16.6271  -45.0013 N.am      8 UNK        -0.5000 
     35 C           0.7661  -17.6324  -44.4092 C.2       7 UNK         0.5000 
     36 O           1.0154  -18.7073  -44.9506 O.2       7 UNK        -0.5000 
     37 CA          1.1628  -17.4210  -42.9400 C.3       7 UNK         0.1400 
     38 CB          2.4427  -16.5798  -42.8342 C.3       7 UNK        -0.1800 
     39 N           0.0871  -16.7906  -42.1752 N.am      7 UNK        -0.5000 
     40 C          -1.0778  -17.3864  -41.8810 C.2       6 UNK         0.5000 
     41 O          -1.3510  -18.5467  -42.1876 O.2       6 UNK        -0.5000 
     42 CA         -2.1303  -16.5228  -41.1633 C.3       6 UNK         0.1400 
     43 CB         -1.8485  -16.4629  -39.6546 C.3       6 UNK        -0.1800 
     44 N          -2.1976  -15.1632  -41.7009 N.am      6 UNK        -0.5000 
     45 C          -2.6044  -14.8613  -42.9421 C.2       5 UNK         0.5000 
     46 O          -3.0016  -15.6971  -43.7526 O.2       5 UNK        -0.5000 
     47 CA         -2.5116  -13.3832  -43.3629 C.3       5 UNK         0.1400 
     48 CB         -3.7987  -12.6343  -42.9873 C.3       5 UNK        -0.1800 
     49 N          -1.3569  -12.6817  -42.7937 N.am      5 UNK        -0.5000 
     50 C          -0.0790  -13.0008  -43.0352 C.2       4 UNK         0.5000 
     51 O           0.2696  -13.9687  -43.7155 O.2       4 UNK        -0.5000 
     52 CA          0.9902  -12.1192  -42.3692 C.3       4 UNK         0.1400 
     53 CB          1.6530  -12.8668  -41.2017 C.3       4 UNK        -0.1800 
     54 N           2.0138  -11.7380  -43.3385 N.am      4 UNK        -0.5000 
     55 C           1.8503  -10.8107  -44.2925 C.2       3 UNK         0.5000 
     56 O           0.8532  -10.0929  -44.3829 O.2       3 UNK        -0.5000 
     57 CA          2.9892  -10.6593  -45.3230 C.3       3 UNK         0.1400 
     58 CB          3.9521   -9.5391  -44.9002 C.3       3 UNK        -0.1800 
     59 N           3.7532  -11.8933  -45.5334 N.am      3 UNK        -0.5000 
     60 C           3.2583  -13.0001  -46.1039 C.2       2 UNK         0.5000 
     61 O           2.1174  -13.0697  -46.5662 O.2       2 UNK        -0.5000 
     62 CA          4.1895  -14.2268  -46.1527 C.3       2 UNK         0.1400 
     63 CB          4.8766  -14.4739  -44.7945 C.3       2 UNK        -0.1800 
     64 N           3.3901  -15.3970  -46.5056 N.am      2 UNK        -0.5000 
     65 C           3.5885  -16.3024  -47.4746 C.2       1 UNK         0.5000 
     66 O           2.7187  -17.1238  -47.7387 O.2       1 UNK        -0.5000 
     67 C           0.0051  -21.8863  -48.5552 C.2       11 UNK         0.5000 
     68 O           0.3069  -22.8527  -49.2546 O.2       11 UNK        -0.5000 
     69 N          -1.1698  -21.2468  -48.6490 N.am      12 UNK        -0.5000 
     70 CA         -2.2459  -21.6443  -49.5571 C.3       12 UNK         0.1400 
     71 CB         -3.3547  -20.5863  -49.5374 C.3       12 UNK        -0.1800 
     72 C          -2.8041  -23.0463  -49.2461 C.2       12 UNK         0.5000 
     73 O          -3.0254  -23.8259  -50.1728 O.2       12 UNK        -0.5000 
     74 N          -2.9683  -23.3648  -47.9544 N.am      13 UNK        -0.5000 
     75 CA         -3.3659  -24.6875  -47.4702 C.3       13 UNK         0.1400 
     76 CB         -3.6768  -24.6194  -45.9681 C.3       13 UNK        -0.1800 
     77 C          -2.3119  -25.7711  -47.7675 C.2       13 UNK         0.5000 
     78 O          -2.6765  -26.8609  -48.2095 O.2       13 UNK        -0.5000 
     79 N          -1.0251  -25.4444  -47.5736 N.am      14 UNK        -0.5000 
     80 CA          0.1183  -26.2977  -47.9169 C.3       14 UNK         0.1400 
     81 CB          1.4109  -25.6808  -47.3624 C.3       14 UNK        -0.1800 
     82 C           0.2419  -26.5586  -49.4313 C.2       14 UNK         0.5000 
     83 O           0.6675  -27.6429  -49.8291 O.2       14 UNK        -0.5000 
     84 N          -0.1965  -25.5892  -50.2451 N.am      15 UNK        -0.5000 
     85 CA         -0.3580  -25.6881  -51.6970 C.3       15 UNK         0.1400 
     86 CB         -0.2687  -24.2762  -52.3045 C.3       15 UNK        -0.1800 
     87 C          -1.6589  -26.4114  -52.1206 C.2       15 UNK         0.5000 
     88 O          -2.0617  -26.2947  -53.2777 O.2       15 UNK        -0.5000 
     89 N          -2.3048  -27.1332  -51.1915 N.am      16 UNK        -0.5000 
     90 CA         -3.5139  -27.9458  -51.3637 C.3       16 UNK         0.1400 
     91 CB         -3.2525  -29.1226  -52.3274 C.3       16 UNK        -0.1800 
     92 C          -4.7589  -27.1189  -51.7427 C.2       16 UNK         0.5000 
     93 O          -5.6315  -27.6125  -52.4591 O.2       16 UNK        -0.5000 
     94 N          -4.8124  -25.8719  -51.2522 N.am      17 UNK        -0.5000 
     95 CA         -5.8558  -24.8692  -51.4808 C.3       17 UNK         0.1400 
     96 CB         -7.2210  -25.3354  -50.9342 C.3       17 UNK        -0.1800 
     97 C          -5.9254  -24.3741  -52.9396 C.2       17 UNK         0.5000 
     98 O          -6.9570  -23.8413  -53.3512 O.2       17 UNK        -0.5000 
     99 N          -4.8189  -24.4965  -53.6909 N.am      18 UNK        -0.5000 
    100 CA        -4.6839  -23.9925  -55.0634 C.3       18 UNK         0.1400 
    101 CB        -3.3562  -24.4828  -55.6583 C.3       18 UNK        -0.1800 
    102 C         -4.7813  -22.4563  -55.1593 C.2       18 UNK         0.5000 
    103 O         -5.2290  -21.9366  -56.1817 O.2       18 UNK        -0.5000 
    104 N         -4.3951  -21.7703  -54.0761 N.am      19 UNK        -0.5000 
    105 CA        -4.5374  -20.3273  -53.8825 C.3       19 UNK         0.1400 
    106 CB        -3.1888  -19.7615  -53.4030 C.3       19 UNK        -0.1800 
    107 C         -5.6785  -20.0015  -52.8949 C.2       19 UNK         0.5000 
    108 O         -5.6765  -18.9185  -52.3079 O.2       19 UNK        -0.5000 
    109 N         -6.6183  -20.9421  -52.7009 N.am      20 UNK        -0.5000 
    110 CA        -7.7267  -20.9089  -51.7420 C.3       20 UNK         0.1400 
    111 CB        -8.7692  -19.8410  -52.1446 C.3       20 UNK        -0.1800 
    112 C         -7.1980  -20.7714  -50.3004 C.2       20 UNK         0.5000 
    113 O         -6.6170  -21.7264  -49.7846 O.2       20 UNK        -0.5000 
    114 N         -7.3726  -19.5880  -49.7033 N.am      21 UNK        -0.5000 
    115 CA        -6.8031  -19.1895  -48.4156 C.3       21 UNK         0.1400 
    116 CB        -7.9426  -19.0226  -47.3949 C.3       21 UNK        -0.1800 
    117 C         -5.9587  -17.9051  -48.5564 C.2       21 UNK         0.5000 
    118 O         -5.7178  -17.2289  -47.5568 O.2       21 UNK        -0.5000 
    119 N         -5.5333  -17.5770  -49.7864 N.am      22 UNK        -0.5000 
    120 CA        -4.7586  -16.3763  -50.1445 C.3       22 UNK         0.1400 
    121 C         -5.5425  -15.0302  -50.0170 C.2       22 UNK         0.5000 
    122 N         -6.8696  -15.0429  -49.9757 N.am      22 UNK        -0.7600 
    123 O         -4.9538  -13.9536  -49.9798 O.2       22 UNK        -0.5000 
    124 C124       -3.3605  -16.3555  -49.4630 C.3       23 UNK        -0.0398 
    125 S125       -2.0667  -15.5954  -50.5041 S.3       23 UNK        -0.2404 
    126 C126       -1.4599  -17.0161  -51.4743 C.3       23 UNK        -0.0205 
    127 H127        8.3134  -18.1446  -45.9007 H         1 UNK         0.0600 
    128 H128        7.3238  -17.4246  -44.6262 H         1 UNK         0.0600 
    129 H129        8.1039  -16.3925  -45.8269 H         1 UNK         0.0600 
    130 H130        6.7096  -15.6672  -47.3827 H         1 UNK         0.3000 
    131 H131        4.8774  -17.3383  -48.7819 H         1 UNK         0.0600 
    132 H132        5.7841  -14.5247  -49.0294 H         1 UNK         0.0800 
    133 H133        5.6820  -15.7709  -50.2109 H         1 UNK         0.0800 
    134 H134        4.2531  -15.7404  -52.0311 H         1 UNK         0.0800 
    135 H135        2.9201  -14.6652  -52.3307 H         1 UNK         0.0800 
    136 H136        0.6157  -15.2466  -51.6923 H         1 UNK         0.1150 
    137 H137       -0.2176  -19.3762  -50.9032 H         1 UNK         0.1150 
    138 H138        3.8395  -18.0001  -51.0649 H         1 UNK         0.1150 
    139 H139        1.5434  -20.9763  -50.8527 H         1 UNK         0.0800 
    140 H140        3.0899  -20.5028  -51.4899 H         1 UNK         0.0800 
    141 H141        2.2360  -19.6743  -47.0699 H         1 UNK         0.0800 
    142 H142        1.0978  -19.3764  -48.3411 H         1 UNK         0.0800 
    143 H143        1.7127  -22.1954  -47.3057 H         1 UNK         0.0600 
    144 H144        0.3250  -20.2300  -45.8295 H         1 UNK         0.3000 
    145 H145       -1.7762  -22.4711  -43.9699 H         1 UNK         0.0600 
    146 H146       -0.6660  -21.2775  -42.1119 H         1 UNK         0.0600 
    147 H147        0.4418  -22.4356  -42.8317 H         1 UNK         0.0600 
    148 H148        0.6135  -20.7224  -43.1887 H         1 UNK         0.0600 
    149 H149       -1.5454  -19.6436  -43.8843 H         1 UNK         0.3000 
    150 H150       -3.9746  -18.9434  -46.4479 H         1 UNK         0.0600 
    151 H151       -5.2216  -19.3899  -44.3229 H         1 UNK         0.0600 
    152 H152       -4.9591  -17.6715  -44.5776 H         1 UNK         0.0600 
    153 H153       -3.9716  -18.5492  -43.4096 H         1 UNK         0.0600 
    154 H154       -2.4635  -17.1748  -44.8338 H         1 UNK         0.3000 
    155 H155        0.3655  -16.8932  -47.0420 H         1 UNK         0.0600 
    156 H156       -0.2906  -14.5015  -46.4918 H         1 UNK         0.0600 
    157 H157       -1.9291  -15.0693  -46.1746 H         1 UNK         0.0600 
    158 H158       -1.2243  -15.2300  -47.7778 H         1 UNK         0.0600 
    159 H159       -0.0242  -15.7622  -44.4850 H         1 UNK         0.3000 
    160 H160        1.3643  -18.4006  -42.5014 H         1 UNK         0.0600 
    161 H161        2.2985  -15.5811  -43.2438 H         1 UNK         0.0600 
    162 H162        3.2613  -17.0441  -43.3860 H         1 UNK         0.0600 
    163 H163        2.7643  -16.4759  -41.7980 H         1 UNK         0.0600 
    164 H164        0.2072  -15.8170  -41.9396 H         1 UNK         0.3000 
    165 H165       -3.1043  -16.9945  -41.3107 H         1 UNK         0.0600 
    166 H166       -2.6330  -15.9185  -39.1286 H         1 UNK         0.0600 
    167 H167       -1.8067  -17.4652  -39.2261 H         1 UNK         0.0600 
    168 H168       -0.8977  -15.9737  -39.4393 H         1 UNK         0.0600 
    169 H169       -1.8897  -14.4142  -41.0988 H         1 UNK         0.3000 
    170 H170       -2.4094  -13.3581  -44.4496 H         1 UNK         0.0600 
    171 H171       -4.6741  -13.1237  -43.4166 H         1 UNK         0.0600 
    172 H172       -3.9418  -12.5944  -41.9067 H         1 UNK         0.0600 
    173 H173       -3.7840  -11.6111  -43.3630 H         1 UNK         0.0600 
    174 H174       -1.5607  -11.8771  -42.2184 H         1 UNK         0.3000 
    175 H175        0.5210  -11.2143  -41.9769 H         1 UNK         0.0600 
    176 H176        2.1649  -13.7696  -41.5361 H         1 UNK         0.0600 
    177 H177        2.3849  -12.2363  -40.6967 H         1 UNK         0.0600 
    178 H178        0.9135  -13.1647  -40.4573 H         1 UNK         0.0600 
    179 H179        2.8479  -12.3037  -43.3604 H         1 UNK         0.3000 
    180 H180        2.5343  -10.3760  -46.2746 H         1 UNK         0.0600 
    181 H181        4.4550   -9.7731  -43.9610 H         1 UNK         0.0600 
    182 H182        3.4188   -8.5977  -44.7610 H         1 UNK         0.0600 
    183 H183        4.7166   -9.3682  -45.6584 H         1 UNK         0.0600 
    184 H184        4.7015  -11.8988  -45.1867 H         1 UNK         0.3000 
    185 H185        4.9442  -14.0247  -46.9105 H         1 UNK         0.0600 
    186 H186        5.6631  -13.7413  -44.6117 H         1 UNK         0.0600 
    187 H187        4.1719  -14.4095  -43.9658 H         1 UNK         0.0600 
    188 H188        5.3418  -15.4570  -44.7479 H         1 UNK         0.0600 
    189 H189        2.4700  -15.3796  -46.0897 H         1 UNK         0.3000 
    190 H190       -1.3360  -20.4311  -48.0652 H         1 UNK         0.3000 
    191 H191       -1.8292  -21.6736  -50.5658 H         1 UNK         0.0600 
    192 H192       -3.8117  -20.4999  -48.5521 H         1 UNK         0.0600 
    193 H193       -4.1407  -20.8359  -50.2490 H         1 UNK         0.0600 
    194 H194       -2.9674  -19.6078  -49.8145 H         1 UNK         0.0600 
    195 H195       -2.8230  -22.6458  -47.2507 H         1 UNK         0.3000 
    196 H196       -4.2838  -24.9678  -47.9913 H         1 UNK         0.0600 
    197 H197       -4.0077  -25.5888  -45.5936 H         1 UNK         0.0600 
    198 H198       -4.4719  -23.9022  -45.7632 H         1 UNK         0.0600 
    199 H199       -2.8032  -24.3237  -45.3875 H         1 UNK         0.0600 
    200 H200       -0.8067  -24.5478  -47.1462 H         1 UNK         0.3000 
    201 H201       -0.0318  -27.2630  -47.4293 H         1 UNK         0.0600 
    202 H202        1.3582  -25.5617  -46.2802 H         1 UNK         0.0600 
    203 H203        1.6098  -24.7016  -47.7975 H         1 UNK         0.0600 
    204 H204        2.2707  -26.3163  -47.5780 H         1 UNK         0.0600 
    205 H205       -0.4653  -24.7049  -49.8271 H         1 UNK         0.3000 
    206 H206        0.4716  -26.2738  -52.0971 H         1 UNK         0.0600 
    207 H207        0.6506  -23.7740  -52.0024 H         1 UNK         0.0600 
    208 H208       -0.2716  -24.3150  -53.3944 H         1 UNK         0.0600 
    209 H209       -1.1062  -23.6507  -51.9977 H         1 UNK         0.0600 
    210 H210       -1.9420  -27.1152  -50.2465 H         1 UNK         0.3000 
    211 H211       -3.7291  -28.3715  -50.3827 H         1 UNK         0.0600 
    212 H212       -3.1005  -28.7822  -53.3521 H         1 UNK         0.0600 
    213 H213       -4.0944  -29.8158  -52.3359 H         1 UNK         0.0600 
    214 H214       -2.3712  -29.6894  -52.0274 H         1 UNK         0.0600 
    215 H215       -4.0158  -25.5311  -50.7230 H         1 UNK         0.3000 
    216 H216       -5.5626  -23.9987  -50.8938 H         1 UNK         0.0600 
    217 H217       -7.9421  -24.5172  -50.9409 H         1 UNK         0.0600 
    218 H218       -7.1357  -25.6797  -49.9036 H         1 UNK         0.0600 
    219 H219       -7.6435  -26.1462  -51.5278 H         1 UNK         0.0600 
    220 H220       -4.0149  -24.9734  -53.3024 H         1 UNK         0.3000 
    221 H221       -5.4997  -24.4116  -55.6558 H         1 UNK         0.0600 
    222 H222       -2.5010  -24.1225  -55.0850 H         1 UNK         0.0600 
    223 H223       -3.3120  -25.5719  -55.6774 H         1 UNK         0.0600 
    224 H224       -3.2342  -24.1357  -56.6851 H         1 UNK         0.0600 
    225 H225       -4.0459  -22.2950  -53.2873 H         1 UNK         0.3000 
    226 H226       -4.7896  -19.8396  -54.8260 H         1 UNK         0.0600 
    227 H227       -2.3909  -19.9949  -54.1081 H         1 UNK         0.0600 
    228 H228       -3.2307  -18.6756  -53.3147 H         1 UNK         0.0600 
    229 H229       -2.9033  -20.1631  -52.4310 H         1 UNK         0.0600 
    230 H230       -6.5376  -21.8119  -53.2147 H         1 UNK         0.3000 
    231 H231       -8.2170  -21.8820  -51.7957 H         1 UNK         0.0600 
    232 H232       -9.1736  -20.0529  -53.1345 H         1 UNK         0.0600 
    233 H233       -8.3518  -18.8342  -52.1729 H         1 UNK         0.0600 
    234 H234       -9.6112  -19.8340  -51.4513 H         1 UNK         0.0600 
    235 H235       -7.8578  -18.8662  -50.2170 H         1 UNK         0.3000 
    236 H236       -6.1270  -19.9612  -48.0432 H         1 UNK         0.0600 
    237 H237       -7.5530  -18.7851  -46.4041 H         1 UNK         0.0600 
    238 H238       -8.6252  -18.2222  -47.6825 H         1 UNK         0.0600 
    239 H239       -8.5227  -19.9407  -47.3008 H         1 UNK         0.0600 
    240 H240       -5.7464  -18.1888  -50.5707 H         1 UNK         0.3000 
    241 H241       -4.5954  -16.4899  -51.2168 H         1 UNK         0.0600 
    242 H242       -7.3702  -14.1713  -49.9014 H         1 UNK         0.3800 
    243 H243       -7.3771  -15.9109  -50.0155 H         1 UNK         0.3800 
    244 H244       -3.4102  -15.8292  -48.5088 H         1 UNK         0.0800 
    245 H245       -3.0379  -17.3651  -49.2136 H         1 UNK         0.0800 
    246 H246       -2.0359  -17.9083  -51.2299 H         1 UNK         0.0800 
    247 H247       -1.6491  -16.8161  -52.5295 H         1 UNK         0.0800 
@<TRIPOS>BOND
     1    1    2 1    
     2    1  127 1    
     3    1  128 1    
     4    1  129 1    
     5    2    3 2    
     6    2    4 am   BACKBONE|DICT|INTERRES
     7    4    5 1    
     8    4  130 1    
     9    5    6 1    
    10    5   65 1    
    11    5  131 1    
    12    6    7 1    
    13    6  132 1    
    14    6  133 1    
    15    7    8 1    
    16    8    9 1    
    17    8  134 1    
    18    8  135 1    
    19    9   10 ar   
    20    9   14 ar   
    21   10   11 ar   
    22   10  136 1    
    23   11   12 ar   
    24   11  126 1    
    25   12   13 ar   
    26   12  137 1    
    27   13   14 ar   
    28   13   15 1    
    29   14  138 1    
    30   15   16 1    
    31   15  139 1    
    32   15  140 1    
    33   16   17 1    
    34   17   18 1    
    35   17  141 1    
    36   17  142 1    
    37   18   19 1    
    38   18   67 1    
    39   18  143 1    
    40   19   20 am   BACKBONE|DICT|INTERRES
    41   19  144 1    
    42   20   21 2    
    43   20   22 1    
    44   22   23 1    
    45   22   24 1    
    46   22  145 1    
    47   23  146 1    
    48   23  147 1    
    49   23  148 1    
    50   24   25 am   BACKBONE|DICT|INTERRES
    51   24  149 1    
    52   25   26 2    
    53   25   27 1    
    54   27   28 1    
    55   27   29 1    
    56   27  150 1    
    57   28  151 1    
    58   28  152 1    
    59   28  153 1    
    60   29   30 am   BACKBONE|DICT|INTERRES
    61   29  154 1    
    62   30   31 2    
    63   30   32 1    
    64   32   33 1    
    65   32   34 1    
    66   32  155 1    
    67   33  156 1    
    68   33  157 1    
    69   33  158 1    
    70   34   35 am   BACKBONE|DICT|INTERRES
    71   34  159 1    
    72   35   36 2    
    73   35   37 1    
    74   37   38 1    
    75   37   39 1    
    76   37  160 1    
    77   38  161 1    
    78   38  162 1    
    79   38  163 1    
    80   39   40 am   BACKBONE|DICT|INTERRES
    81   39  164 1    
    82   40   41 2    
    83   40   42 1    
    84   42   43 1    
    85   42   44 1    
    86   42  165 1    
    87   43  166 1    
    88   43  167 1    
    89   43  168 1    
    90   44   45 am   BACKBONE|DICT|INTERRES
    91   44  169 1    
    92   45   46 2    
    93   45   47 1    
    94   47   48 1    
    95   47   49 1    
    96   47  170 1    
    97   48  171 1    
    98   48  172 1    
    99   48  173 1    
   100   49   50 am   BACKBONE|DICT|INTERRES
   101   49  174 1    
   102   50   51 2    
   103   50   52 1    
   104   52   53 1    
   105   52   54 1    
   106   52  175 1    
   107   53  176 1    
   108   53  177 1    
   109   53  178 1    
   110   54   55 am   BACKBONE|DICT|INTERRES
   111   54  179 1    
   112   55   56 2    
   113   55   57 1    
   114   57   58 1    
   115   57   59 1    
   116   57  180 1    
   117   58  181 1    
   118   58  182 1    
   119   58  183 1    
   120   59   60 am   BACKBONE|DICT|INTERRES
   121   59  184 1    
   122   60   61 2    
   123   60   62 1    
   124   62   63 1    
   125   62   64 1    
   126   62  185 1    
   127   63  186 1    
   128   63  187 1    
   129   63  188 1    
   130   64   65 am   BACKBONE|DICT|INTERRES
   131   64  189 1    
   132   65   66 2    
   133   67   68 2    
   134   67   69 am   BACKBONE|DICT|INTERRES
   135   69   70 1    
   136   69  190 1    
   137   70   71 1    
   138   70   72 1    
   139   70  191 1    
   140   71  192 1    
   141   71  193 1    
   142   71  194 1    
   143   72   73 2    
   144   72   74 am   BACKBONE|DICT|INTERRES
   145   74   75 1    
   146   74  195 1    
   147   75   76 1    
   148   75   77 1    
   149   75  196 1    
   150   76  197 1    
   151   76  198 1    
   152   76  199 1    
   153   77   78 2    
   154   77   79 am   BACKBONE|DICT|INTERRES
   155   79   80 1    
   156   79  200 1    
   157   80   81 1    
   158   80   82 1    
   159   80  201 1    
   160   81  202 1    
   161   81  203 1    
   162   81  204 1    
   163   82   83 2    
   164   82   84 am   BACKBONE|DICT|INTERRES
   165   84   85 1    
   166   84  205 1    
   167   85   86 1    
   168   85   87 1    
   169   85  206 1    
   170   86  207 1    
   171   86  208 1    
   172   86  209 1    
   173   87   88 2    
   174   87   89 am   BACKBONE|DICT|INTERRES
   175   89   90 1    
   176   89  210 1    
   177   90   91 1    
   178   90   92 1    
   179   90  211 1    
   180   91  212 1    
   181   91  213 1    
   182   91  214 1    
   183   92   93 2    
   184   92   94 am   BACKBONE|DICT|INTERRES
   185   94   95 1    
   186   94  215 1    
   187   95   96 1    
   188   95   97 1    
   189   95  216 1    
   190   96  217 1    
   191   96  218 1    
   192   96  219 1    
   193   97   98 2    
   194   97   99 am   BACKBONE|DICT|INTERRES
   195   99  100 1    
   196   99  220 1    
   197  100  101 1    
   198  100  102 1    
   199  100  221 1    
   200  101  222 1    
   201  101  223 1    
   202  101  224 1    
   203  102  103 2    
   204  102  104 am   BACKBONE|DICT|INTERRES
   205  104  105 1    
   206  104  225 1    
   207  105  106 1    
   208  105  107 1    
   209  105  226 1    
   210  106  227 1    
   211  106  228 1    
   212  106  229 1    
   213  107  108 2    
   214  107  109 am   BACKBONE|DICT|INTERRES
   215  109  110 1    
   216  109  230 1    
   217  110  111 1    
   218  110  112 1    
   219  110  231 1    
   220  111  232 1    
   221  111  233 1    
   222  111  234 1    
   223  112  113 2    
   224  112  114 am   BACKBONE|DICT|INTERRES
   225  114  115 1    
   226  114  235 1    
   227  115  116 1    
   228  115  117 1    
   229  115  236 1    
   230  116  237 1    
   231  116  238 1    
   232  116  239 1    
   233  117  118 2    
   234  117  119 am   BACKBONE|DICT|INTERRES
   235  119  120 1    
   236  119  240 1    
   237  120  121 1    
   238  120  124 1    
   239  120  241 1    
   240  121  122 am   BACKBONE|DICT|INTERRES
   241  121  123 2    
   242  122  242 1    
   243  122  243 1    
   244  124  125 1    
   245  124  244 1    
   246  124  245 1    
   247  125  126 1    
   248  126  246 1    
   249  126  247 1    
@<TRIPOS>SUBSTRUCTURE
     1 UNK         1 GROUP             0       ****    0 ROOT    
