@<TRIPOS>MOLECULE
3R540
247   249    1
SMALL
USER_CHARGES


@<TRIPOS>ATOM
      1 CA          6.0401  -16.9955  -44.7212 C.3       0 UNK        -0.1800 
      2 C           4.9251  -15.9665  -44.8287 C.2       0 UNK         0.5000 
      3 O           4.6291  -15.2808  -43.8524 O.2       0 UNK        -0.5000 
      4 N           4.3236  -15.8319  -46.0173 N.am      1 UNK        -0.5000 
      5 CA          3.2154  -14.9143  -46.3210 C.3       1 UNK         0.1400 
      6 C6          2.7282  -15.1364  -47.7756 C.3       23 UNK        -0.0398 
      7 S7          1.1996  -14.2464  -48.2235 S.3       23 UNK        -0.2404 
      8 C8          1.0975  -14.5988  -50.0069 C.3       23 UNK        -0.0205 
      9 C9          0.3675  -15.9049  -50.2794 C.ar      23 UNK        -0.0193 
     10 C10        -1.0048  -15.8970  -50.5410 C.ar      23 UNK        -0.1150 
     11 C11        -1.6968  -17.0839  -50.8011 C.ar      23 UNK        -0.0193 
     12 C12        -0.9943  -18.2961  -50.7640 C.ar      23 UNK        -0.1150 
     13 C13         0.3783  -18.3211  -50.4936 C.ar      23 UNK        -0.0193 
     14 C14         1.0572  -17.1189  -50.2758 C.ar      23 UNK        -0.1150 
     15 C15         1.1224  -19.6505  -50.4461 C.3       23 UNK        -0.0205 
     16 S16         2.1038  -19.9005  -48.9235 S.3       23 UNK        -0.2404 
     17 C17         0.9295  -19.5314  -47.5733 C.3       23 UNK        -0.0398 
     18 CA          0.0595  -20.7457  -47.1601 C.3       11 UNK         0.1400 
     19 N          -0.2939  -20.7246  -45.7392 N.am      11 UNK        -0.5000 
     20 C          -0.8798  -21.7337  -45.0781 C.2       10 UNK         0.5000 
     21 O          -1.0942  -22.8411  -45.5707 O.2       10 UNK        -0.5000 
     22 CA         -1.3468  -21.4441  -43.6382 C.3       10 UNK         0.1400 
     23 CB         -0.2023  -21.6548  -42.6363 C.3       10 UNK        -0.1800 
     24 N          -1.8995  -20.0962  -43.4843 N.am      10 UNK        -0.5000 
     25 C          -3.0110  -19.6627  -44.0972 C.2       9 UNK         0.5000 
     26 O          -3.7205  -20.3774  -44.8054 O.2       9 UNK        -0.5000 
     27 CA         -3.3619  -18.1716  -43.9363 C.3       9 UNK         0.1400 
     28 CB         -4.0940  -17.9177  -42.6105 C.3       9 UNK        -0.1800 
     29 N          -2.1894  -17.2998  -44.0294 N.am      9 UNK        -0.5000 
     30 C          -1.4257  -17.1686  -45.1236 C.2       8 UNK         0.5000 
     31 O          -1.6533  -17.7416  -46.1871 O.2       8 UNK        -0.5000 
     32 CA         -0.1624  -16.3005  -44.9942 C.3       8 UNK         0.1400 
     33 CB         -0.5195  -14.8089  -45.0774 C.3       8 UNK        -0.1800 
     34 N           0.5784  -16.5757  -43.7603 N.am      8 UNK        -0.5000 
     35 C           1.1194  -17.7635  -43.4498 C.2       7 UNK         0.5000 
     36 O           1.1321  -18.7233  -44.2181 O.2       7 UNK        -0.5000 
     37 CA          1.6717  -17.9407  -42.0239 C.3       7 UNK         0.1400 
     38 CB          3.1285  -17.4790  -41.9111 C.3       7 UNK        -0.1800 
     39 N           0.8599  -17.2418  -41.0316 N.am      7 UNK        -0.5000 
     40 C          -0.3630  -17.6329  -40.6497 C.2       6 UNK         0.5000 
     41 O          -0.9124  -18.6557  -41.0585 O.2       6 UNK        -0.5000 
     42 CA         -1.1098  -16.6924  -39.6866 C.3       6 UNK         0.1400 
     43 CB         -0.6869  -16.9553  -38.2337 C.3       6 UNK        -0.1800 
     44 N          -0.8860  -15.2818  -40.0113 N.am      6 UNK        -0.5000 
     45 C          -1.3343  -14.6872  -41.1262 C.2       5 UNK         0.5000 
     46 O          -2.0381  -15.2547  -41.9604 O.2       5 UNK        -0.5000 
     47 CA         -0.8865  -13.2338  -41.3712 C.3       5 UNK         0.1400 
     48 CB         -1.8830  -12.2502  -40.7407 C.3       5 UNK        -0.1800 
     49 N           0.4594  -12.9554  -40.8623 N.am      5 UNK        -0.5000 
     50 C           1.5859  -13.4885  -41.3536 C.2       4 UNK         0.5000 
     51 O           1.6169  -14.2775  -42.2993 O.2       4 UNK        -0.5000 
     52 CA          2.8768  -13.1353  -40.6078 C.3       4 UNK         0.1400 
     53 CB          3.1074  -14.1237  -39.4484 C.3       4 UNK        -0.1800 
     54 N           4.0250  -13.1530  -41.5129 N.am      4 UNK        -0.5000 
     55 C           5.1686  -12.4964  -41.2741 C.2       3 UNK         0.5000 
     56 O           5.3475  -11.7806  -40.2871 O.2       3 UNK        -0.5000 
     57 CA          6.3123  -12.6560  -42.2877 C.3       3 UNK         0.1400 
     58 CB          7.1037  -13.9454  -42.0128 C.3       3 UNK        -0.1800 
     59 N           5.8418  -12.6520  -43.6720 N.am      3 UNK        -0.5000 
     60 C           5.7063  -11.5464  -44.4187 C.2       2 UNK         0.5000 
     61 O           5.8983  -10.4097  -43.9842 O.2       2 UNK        -0.5000 
     62 CA          5.3365  -11.7189  -45.9073 C.3       2 UNK         0.1400 
     63 CB          6.5617  -11.4499  -46.7957 C.3       2 UNK        -0.1800 
     64 N           4.8157  -13.0474  -46.2282 N.am      2 UNK        -0.5000 
     65 C           3.5496  -13.4317  -46.0210 C.2       1 UNK         0.5000 
     66 O           2.6808  -12.6834  -45.5720 O.2       1 UNK        -0.5000 
     67 C          -1.2007  -20.8562  -48.0391 C.2       11 UNK         0.5000 
     68 O          -1.2573  -21.7284  -48.9046 O.2       11 UNK        -0.5000 
     69 N          -2.2021  -20.0032  -47.7780 N.am      12 UNK        -0.5000 
     70 CA         -3.4770  -19.9473  -48.4974 C.3       12 UNK         0.1400 
     71 CB         -4.3158  -18.7714  -47.9768 C.3       12 UNK        -0.1800 
     72 C          -4.2817  -21.2544  -48.4350 C.2       12 UNK         0.5000 
     73 O          -4.9180  -21.6179  -49.4204 O.2       12 UNK        -0.5000 
     74 N          -4.1959  -21.9608  -47.3010 N.am      13 UNK        -0.5000 
     75 CA         -4.7894  -23.2804  -47.0837 C.3       13 UNK         0.1400 
     76 CB         -4.7189  -23.6091  -45.5839 C.3       13 UNK        -0.1800 
     77 C          -4.1538  -24.4121  -47.9224 C.2       13 UNK         0.5000 
     78 O          -4.7240  -25.5024  -47.9703 O.2       13 UNK        -0.5000 
     79 N          -2.9995  -24.1557  -48.5530 N.am      14 UNK        -0.5000 
     80 CA         -2.3226  -25.0716  -49.4680 C.3       14 UNK         0.1400 
     81 CB         -0.8767  -25.2899  -48.9936 C.3       14 UNK        -0.1800 
     82 C          -2.3487  -24.5220  -50.9023 C.2       14 UNK         0.5000 
     83 O          -2.7155  -25.2528  -51.8222 O.2       14 UNK        -0.5000 
     84 N          -1.9379  -23.2550  -51.0714 N.am      15 UNK        -0.5000 
     85 CA         -1.8632  -22.4787  -52.3182 C.3       15 UNK         0.1400 
     86 CB         -3.2787  -22.1052  -52.7944 C.3       15 UNK        -0.1800 
     87 C          -1.0426  -23.1564  -53.4387 C.2       15 UNK         0.5000 
     88 O          -1.3269  -22.9480  -54.6182 O.2       15 UNK        -0.5000 
     89 N          -0.0762  -24.0066  -53.0550 N.am      16 UNK        -0.5000 
     90 CA          0.7000  -24.9063  -53.9214 C.3       16 UNK         0.1400 
     91 CB          1.6798  -24.0992  -54.7984 C.3       16 UNK        -0.1800 
     92 C          -0.1837  -25.8749  -54.7466 C.2       16 UNK         0.5000 
     93 O           0.1991  -26.2673  -55.8495 O.2       16 UNK        -0.5000 
     94 N          -1.3641  -26.2129  -54.2019 N.am      17 UNK        -0.5000 
     95 CA         -2.4555  -26.9996  -54.7871 C.3       17 UNK         0.1400 
     96 CB         -1.9883  -28.4178  -55.1738 C.3       17 UNK        -0.1800 
     97 C          -3.2078  -26.2974  -55.9394 C.2       17 UNK         0.5000 
     98 O          -4.1213  -26.8971  -56.5094 O.2       17 UNK        -0.5000 
     99 N          -2.8669  -25.0392  -56.2503 N.am      18 UNK        -0.5000 
    100 CA        -3.5163  -24.2220  -57.2734 C.3       18 UNK         0.1400 
    101 CB        -2.4750  -23.2694  -57.8884 C.3       18 UNK        -0.1800 
    102 C         -4.7194  -23.4843  -56.6581 C.2       18 UNK         0.5000 
    103 O         -4.6664  -22.2681  -56.4725 O.2       18 UNK        -0.5000 
    104 N         -5.7646  -24.2615  -56.3332 N.am      19 UNK        -0.5000 
    105 CA        -6.9790  -23.8870  -55.6004 C.3       19 UNK         0.1400 
    106 CB        -7.7715  -22.7776  -56.3233 C.3       19 UNK        -0.1800 
    107 C         -6.6391  -23.5217  -54.1445 C.2       19 UNK         0.5000 
    108 O         -6.3847  -22.3537  -53.8421 O.2       19 UNK        -0.5000 
    109 N         -6.6161  -24.5457  -53.2783 N.am      20 UNK        -0.5000 
    110 CA        -6.2017  -24.5433  -51.8660 C.3       20 UNK         0.1400 
    111 CB        -6.0722  -26.0056  -51.4045 C.3       20 UNK        -0.1800 
    112 C         -7.0623  -23.6861  -50.9042 C.2       20 UNK         0.5000 
    113 O         -7.4182  -24.1308  -49.8115 O.2       20 UNK        -0.5000 
    114 N         -7.3635  -22.4623  -51.3333 N.am      21 UNK        -0.5000 
    115 CA        -7.9829  -21.3803  -50.5776 C.3       21 UNK         0.1400 
    116 CB        -9.5130  -21.5517  -50.5941 C.3       21 UNK        -0.1800 
    117 C         -7.5698  -19.9947  -51.1205 C.2       21 UNK         0.5000 
    118 O         -7.9296  -18.9926  -50.5014 O.2       21 UNK        -0.5000 
    119 N         -6.8675  -19.9421  -52.2675 N.am      22 UNK        -0.5000 
    120 CA        -6.5343  -18.7257  -53.0352 C.3       22 UNK         0.1400 
    121 C         -7.7697  -18.0140  -53.6745 C.2       22 UNK         0.5000 
    122 N         -8.9149  -18.6717  -53.8144 N.am      22 UNK        -0.7600 
    123 O         -7.6891  -16.8588  -54.0842 O.2       22 UNK        -0.5000 
    124 C124       -5.5976  -17.7391  -52.2787 C.3       23 UNK        -0.0398 
    125 S125       -3.9365  -18.4200  -51.9603 S.3       23 UNK        -0.2404 
    126 C126       -3.1965  -16.9926  -51.0928 C.3       23 UNK        -0.0205 
    127 H127        6.9763  -16.5041  -44.4567 H         1 UNK         0.0600 
    128 H128        5.8074  -17.7238  -43.9450 H         1 UNK         0.0600 
    129 H129        6.1889  -17.5325  -45.6581 H         1 UNK         0.0600 
    130 H130        4.6272  -16.4184  -46.7816 H         1 UNK         0.3000 
    131 H131        2.4062  -15.1882  -45.6447 H         1 UNK         0.0600 
    132 H132        3.5144  -14.8617  -48.4809 H         1 UNK         0.0800 
    133 H133        2.5374  -16.1992  -47.9290 H         1 UNK         0.0800 
    134 H134        0.5732  -13.7749  -50.4933 H         1 UNK         0.0800 
    135 H135        2.0949  -14.6208  -50.4484 H         1 UNK         0.0800 
    136 H136       -1.5379  -14.9564  -50.5460 H         1 UNK         0.1150 
    137 H137       -1.5088  -19.2276  -50.9449 H         1 UNK         0.1150 
    138 H138        2.1204  -17.1329  -50.0833 H         1 UNK         0.1150 
    139 H139        0.4315  -20.4861  -50.5578 H         1 UNK         0.0800 
    140 H140        1.7946  -19.7016  -51.3034 H         1 UNK         0.0800 
    141 H141        0.3299  -18.6504  -47.8071 H         1 UNK         0.0800 
    142 H142        1.5535  -19.2294  -46.7323 H         1 UNK         0.0800 
    143 H143        0.6457  -21.6545  -47.3136 H         1 UNK         0.0600 
    144 H144       -0.0866  -19.8697  -45.2320 H         1 UNK         0.3000 
    145 H145       -2.1399  -22.1557  -43.3989 H         1 UNK         0.0600 
    146 H146       -0.5372  -21.4863  -41.6126 H         1 UNK         0.0600 
    147 H147        0.1788  -22.6752  -42.6909 H         1 UNK         0.0600 
    148 H148        0.6334  -20.9834  -42.8305 H         1 UNK         0.0600 
    149 H149       -1.4022  -19.4632  -42.8668 H         1 UNK         0.3000 
    150 H150       -4.0378  -17.9019  -44.7500 H         1 UNK         0.0600 
    151 H151       -4.9909  -18.5339  -42.5363 H         1 UNK         0.0600 
    152 H152       -4.4062  -16.8766  -42.5265 H         1 UNK         0.0600 
    153 H153       -3.4657  -18.1476  -41.7502 H         1 UNK         0.0600 
    154 H154       -1.9679  -16.7430  -43.2091 H         1 UNK         0.3000 
    155 H155        0.4903  -16.5437  -45.8348 H         1 UNK         0.0600 
    156 H156       -0.9528  -14.5715  -46.0495 H         1 UNK         0.0600 
    157 H157        0.3582  -14.1762  -44.9482 H         1 UNK         0.0600 
    158 H158       -1.2503  -14.5213  -44.3240 H         1 UNK         0.0600 
    159 H159        0.6873  -15.8059  -43.1075 H         1 UNK         0.3000 
    160 H160        1.6467  -19.0079  -41.7944 H         1 UNK         0.0600 
    161 H161        3.5488  -17.7365  -40.9391 H         1 UNK         0.0600 
    162 H162        3.2174  -16.4011  -42.0354 H         1 UNK         0.0600 
    163 H163        3.7481  -17.9560  -42.6703 H         1 UNK         0.0600 
    164 H164        1.2211  -16.3671  -40.6839 H         1 UNK         0.3000 
    165 H165       -2.1781  -16.9007  -39.7763 H         1 UNK         0.0600 
    166 H166       -1.2614  -16.3421  -37.5392 H         1 UNK         0.0600 
    167 H167       -0.8562  -17.9980  -37.9615 H         1 UNK         0.0600 
    168 H168        0.3709  -16.7419  -38.0748 H         1 UNK         0.0600 
    169 H169       -0.3266  -14.7439  -39.3665 H         1 UNK         0.3000 
    170 H170       -0.8792  -13.0651  -42.4497 H         1 UNK         0.0600 
    171 H171       -2.8916  -12.4202  -41.1202 H         1 UNK         0.0600 
    172 H172       -1.9193  -12.3516  -39.6553 H         1 UNK         0.0600 
    173 H173       -1.6197  -11.2183  -40.9736 H         1 UNK         0.0600 
    174 H174        0.5182  -12.3237  -40.0764 H         1 UNK         0.3000 
    175 H175        2.7605  -12.1277  -40.2025 H         1 UNK         0.0600 
    176 H176        3.9734  -13.8394  -38.8506 H         1 UNK         0.0600 
    177 H177        2.2498  -14.1521  -38.7751 H         1 UNK         0.0600 
    178 H178        3.2746  -15.1376  -39.8130 H         1 UNK         0.0600 
    179 H179        3.9242  -13.7243  -42.3463 H         1 UNK         0.3000 
    180 H180        7.0005  -11.8200  -42.1440 H         1 UNK         0.0600 
    181 H181        6.4732  -14.8329  -42.0662 H         1 UNK         0.0600 
    182 H182        7.5447  -13.9225  -41.0155 H         1 UNK         0.0600 
    183 H183        7.9190  -14.0689  -42.7257 H         1 UNK         0.0600 
    184 H184        5.5702  -13.5508  -44.0544 H         1 UNK         0.3000 
    185 H185        4.5771  -10.9708  -46.1449 H         1 UNK         0.0600 
    186 H186        6.3031  -11.5091  -47.8531 H         1 UNK         0.0600 
    187 H187        6.9638  -10.4516  -46.6172 H         1 UNK         0.0600 
    188 H188        7.3628  -12.1650  -46.6043 H         1 UNK         0.0600 
    189 H189        5.4774  -13.7240  -46.5800 H         1 UNK         0.3000 
    190 H190       -2.0561  -19.2844  -47.0715 H         1 UNK         0.3000 
    191 H191       -3.2448  -19.7670  -49.5450 H         1 UNK         0.0600 
    192 H192       -4.6336  -18.9294  -46.9465 H         1 UNK         0.0600 
    193 H193       -5.2137  -18.6387  -48.5822 H         1 UNK         0.0600 
    194 H194       -3.7553  -17.8377  -48.0123 H         1 UNK         0.0600 
    195 H195       -3.6989  -21.5510  -46.5171 H         1 UNK         0.3000 
    196 H196       -5.8414  -23.2235  -47.3712 H         1 UNK         0.0600 
    197 H197       -3.6877  -23.6714  -45.2355 H         1 UNK         0.0600 
    198 H198       -5.1972  -24.5652  -45.3681 H         1 UNK         0.0600 
    199 H199       -5.2280  -22.8504  -44.9890 H         1 UNK         0.0600 
    200 H200       -2.5937  -23.2317  -48.4614 H         1 UNK         0.3000 
    201 H201       -2.8204  -26.0433  -49.4829 H         1 UNK         0.0600 
    202 H202       -0.3183  -24.3547  -48.9381 H         1 UNK         0.0600 
    203 H203       -0.3394  -25.9568  -49.6690 H         1 UNK         0.0600 
    204 H204       -0.8566  -25.7451  -48.0033 H         1 UNK         0.0600 
    205 H205       -1.6420  -22.7390  -50.2425 H         1 UNK         0.3000 
    206 H206       -1.3421  -21.5538  -52.0694 H         1 UNK         0.0600 
    207 H207       -3.8883  -21.7111  -51.9813 H         1 UNK         0.0600 
    208 H208       -3.2433  -21.3404  -53.5711 H         1 UNK         0.0600 
    209 H209       -3.7907  -22.9678  -53.2186 H         1 UNK         0.0600 
    210 H210        0.0786  -24.1142  -52.0628 H         1 UNK         0.3000 
    211 H211        1.2936  -25.5348  -53.2561 H         1 UNK         0.0600 
    212 H212        1.1565  -23.4963  -55.5412 H         1 UNK         0.0600 
    213 H213        2.3609  -24.7601  -55.3356 H         1 UNK         0.0600 
    214 H214        2.2907  -23.4296  -54.1931 H         1 UNK         0.0600 
    215 H215       -1.6016  -25.8041  -53.3016 H         1 UNK         0.3000 
    216 H216       -3.1889  -27.1093  -53.9869 H         1 UNK         0.0600 
    217 H217       -1.4687  -28.9018  -54.3469 H         1 UNK         0.0600 
    218 H218       -2.8378  -29.0498  -55.4353 H         1 UNK         0.0600 
    219 H219       -1.3184  -28.4069  -56.0336 H         1 UNK         0.0600 
    220 H220       -2.1613  -24.5682  -55.6948 H         1 UNK         0.3000 
    221 H221       -3.8890  -24.8600  -58.0776 H         1 UNK         0.0600 
    222 H222       -2.0606  -22.5850  -57.1478 H         1 UNK         0.0600 
    223 H223       -1.6467  -23.8243  -58.3293 H         1 UNK         0.0600 
    224 H224       -2.9205  -22.6653  -58.6795 H         1 UNK         0.0600 
    225 H225       -5.6566  -25.2537  -56.5078 H         1 UNK         0.3000 
    226 H226       -7.6147  -24.7736  -55.5823 H         1 UNK         0.0600 
    227 H227       -8.0031  -23.0641  -57.3491 H         1 UNK         0.0600 
    228 H228       -8.7182  -22.5892  -55.8161 H         1 UNK         0.0600 
    229 H229       -7.2311  -21.8313  -56.3542 H         1 UNK         0.0600 
    230 H230       -6.8689  -25.4555  -53.6353 H         1 UNK         0.3000 
    231 H231       -5.2048  -24.1063  -51.8234 H         1 UNK         0.0600 
    232 H232       -5.3794  -26.5592  -52.0387 H         1 UNK         0.0600 
    233 H233       -7.0340  -26.5192  -51.4226 H         1 UNK         0.0600 
    234 H234       -5.6852  -26.0657  -50.3876 H         1 UNK         0.0600 
    235 H235       -7.0331  -22.2350  -52.2676 H         1 UNK         0.3000 
    236 H236       -7.6350  -21.4308  -49.5440 H         1 UNK         0.0600 
    237 H237      -10.0041  -20.7557  -50.0331 H         1 UNK         0.0600 
    238 H238       -9.9064  -21.5303  -51.6109 H         1 UNK         0.0600 
    239 H239       -9.8104  -22.4967  -50.1396 H         1 UNK         0.0600 
    240 H240       -6.5933  -20.7997  -52.7322 H         1 UNK         0.3000 
    241 H241       -5.9748  -19.0880  -53.8984 H         1 UNK         0.0600 
    242 H242       -9.7034  -18.2084  -54.2383 H         1 UNK         0.3800 
    243 H243       -8.9990  -19.6267  -53.5075 H         1 UNK         0.3800 
    244 H244       -5.4491  -16.8301  -52.8636 H         1 UNK         0.0800 
    245 H245       -6.0434  -17.4192  -51.3367 H         1 UNK         0.0800 
    246 H246       -3.7265  -16.8359  -50.1537 H         1 UNK         0.0800 
    247 H247       -3.3781  -16.1036  -51.6989 H         1 UNK         0.0800 
@<TRIPOS>BOND
     1    1    2 1    
     2    1  127 1    
     3    1  128 1    
     4    1  129 1    
     5    2    3 2    
     6    2    4 am   BACKBONE|DICT|INTERRES
     7    4    5 1    
     8    4  130 1    
     9    5    6 1    
    10    5   65 1    
    11    5  131 1    
    12    6    7 1    
    13    6  132 1    
    14    6  133 1    
    15    7    8 1    
    16    8    9 1    
    17    8  134 1    
    18    8  135 1    
    19    9   10 ar   
    20    9   14 ar   
    21   10   11 ar   
    22   10  136 1    
    23   11   12 ar   
    24   11  126 1    
    25   12   13 ar   
    26   12  137 1    
    27   13   14 ar   
    28   13   15 1    
    29   14  138 1    
    30   15   16 1    
    31   15  139 1    
    32   15  140 1    
    33   16   17 1    
    34   17   18 1    
    35   17  141 1    
    36   17  142 1    
    37   18   19 1    
    38   18   67 1    
    39   18  143 1    
    40   19   20 am   BACKBONE|DICT|INTERRES
    41   19  144 1    
    42   20   21 2    
    43   20   22 1    
    44   22   23 1    
    45   22   24 1    
    46   22  145 1    
    47   23  146 1    
    48   23  147 1    
    49   23  148 1    
    50   24   25 am   BACKBONE|DICT|INTERRES
    51   24  149 1    
    52   25   26 2    
    53   25   27 1    
    54   27   28 1    
    55   27   29 1    
    56   27  150 1    
    57   28  151 1    
    58   28  152 1    
    59   28  153 1    
    60   29   30 am   BACKBONE|DICT|INTERRES
    61   29  154 1    
    62   30   31 2    
    63   30   32 1    
    64   32   33 1    
    65   32   34 1    
    66   32  155 1    
    67   33  156 1    
    68   33  157 1    
    69   33  158 1    
    70   34   35 am   BACKBONE|DICT|INTERRES
    71   34  159 1    
    72   35   36 2    
    73   35   37 1    
    74   37   38 1    
    75   37   39 1    
    76   37  160 1    
    77   38  161 1    
    78   38  162 1    
    79   38  163 1    
    80   39   40 am   BACKBONE|DICT|INTERRES
    81   39  164 1    
    82   40   41 2    
    83   40   42 1    
    84   42   43 1    
    85   42   44 1    
    86   42  165 1    
    87   43  166 1    
    88   43  167 1    
    89   43  168 1    
    90   44   45 am   BACKBONE|DICT|INTERRES
    91   44  169 1    
    92   45   46 2    
    93   45   47 1    
    94   47   48 1    
    95   47   49 1    
    96   47  170 1    
    97   48  171 1    
    98   48  172 1    
    99   48  173 1    
   100   49   50 am   BACKBONE|DICT|INTERRES
   101   49  174 1    
   102   50   51 2    
   103   50   52 1    
   104   52   53 1    
   105   52   54 1    
   106   52  175 1    
   107   53  176 1    
   108   53  177 1    
   109   53  178 1    
   110   54   55 am   BACKBONE|DICT|INTERRES
   111   54  179 1    
   112   55   56 2    
   113   55   57 1    
   114   57   58 1    
   115   57   59 1    
   116   57  180 1    
   117   58  181 1    
   118   58  182 1    
   119   58  183 1    
   120   59   60 am   BACKBONE|DICT|INTERRES
   121   59  184 1    
   122   60   61 2    
   123   60   62 1    
   124   62   63 1    
   125   62   64 1    
   126   62  185 1    
   127   63  186 1    
   128   63  187 1    
   129   63  188 1    
   130   64   65 am   BACKBONE|DICT|INTERRES
   131   64  189 1    
   132   65   66 2    
   133   67   68 2    
   134   67   69 am   BACKBONE|DICT|INTERRES
   135   69   70 1    
   136   69  190 1    
   137   70   71 1    
   138   70   72 1    
   139   70  191 1    
   140   71  192 1    
   141   71  193 1    
   142   71  194 1    
   143   72   73 2    
   144   72   74 am   BACKBONE|DICT|INTERRES
   145   74   75 1    
   146   74  195 1    
   147   75   76 1    
   148   75   77 1    
   149   75  196 1    
   150   76  197 1    
   151   76  198 1    
   152   76  199 1    
   153   77   78 2    
   154   77   79 am   BACKBONE|DICT|INTERRES
   155   79   80 1    
   156   79  200 1    
   157   80   81 1    
   158   80   82 1    
   159   80  201 1    
   160   81  202 1    
   161   81  203 1    
   162   81  204 1    
   163   82   83 2    
   164   82   84 am   BACKBONE|DICT|INTERRES
   165   84   85 1    
   166   84  205 1    
   167   85   86 1    
   168   85   87 1    
   169   85  206 1    
   170   86  207 1    
   171   86  208 1    
   172   86  209 1    
   173   87   88 2    
   174   87   89 am   BACKBONE|DICT|INTERRES
   175   89   90 1    
   176   89  210 1    
   177   90   91 1    
   178   90   92 1    
   179   90  211 1    
   180   91  212 1    
   181   91  213 1    
   182   91  214 1    
   183   92   93 2    
   184   92   94 am   BACKBONE|DICT|INTERRES
   185   94   95 1    
   186   94  215 1    
   187   95   96 1    
   188   95   97 1    
   189   95  216 1    
   190   96  217 1    
   191   96  218 1    
   192   96  219 1    
   193   97   98 2    
   194   97   99 am   BACKBONE|DICT|INTERRES
   195   99  100 1    
   196   99  220 1    
   197  100  101 1    
   198  100  102 1    
   199  100  221 1    
   200  101  222 1    
   201  101  223 1    
   202  101  224 1    
   203  102  103 2    
   204  102  104 am   BACKBONE|DICT|INTERRES
   205  104  105 1    
   206  104  225 1    
   207  105  106 1    
   208  105  107 1    
   209  105  226 1    
   210  106  227 1    
   211  106  228 1    
   212  106  229 1    
   213  107  108 2    
   214  107  109 am   BACKBONE|DICT|INTERRES
   215  109  110 1    
   216  109  230 1    
   217  110  111 1    
   218  110  112 1    
   219  110  231 1    
   220  111  232 1    
   221  111  233 1    
   222  111  234 1    
   223  112  113 2    
   224  112  114 am   BACKBONE|DICT|INTERRES
   225  114  115 1    
   226  114  235 1    
   227  115  116 1    
   228  115  117 1    
   229  115  236 1    
   230  116  237 1    
   231  116  238 1    
   232  116  239 1    
   233  117  118 2    
   234  117  119 am   BACKBONE|DICT|INTERRES
   235  119  120 1    
   236  119  240 1    
   237  120  121 1    
   238  120  124 1    
   239  120  241 1    
   240  121  122 am   BACKBONE|DICT|INTERRES
   241  121  123 2    
   242  122  242 1    
   243  122  243 1    
   244  124  125 1    
   245  124  244 1    
   246  124  245 1    
   247  125  126 1    
   248  126  246 1    
   249  126  247 1    
@<TRIPOS>SUBSTRUCTURE
     1 UNK         1 GROUP             0       ****    0 ROOT    
