@<TRIPOS>MOLECULE
3R540
247   249    1
SMALL
USER_CHARGES


@<TRIPOS>ATOM
      1 CA          1.0735  -10.8226  -50.3530 C.3       0 UNK        -0.1800 
      2 C           1.2289  -11.9534  -49.3467 C.2       0 UNK         0.5000 
      3 O           2.3508  -12.3813  -49.0751 O.2       0 UNK        -0.5000 
      4 N           0.1095  -12.4272  -48.7812 N.am      1 UNK        -0.5000 
      5 CA          0.0343  -13.5453  -47.8274 C.3       1 UNK         0.1400 
      6 C6         -1.4275  -13.8914  -47.4480 C.3       23 UNK        -0.0398 
      7 S7         -2.4895  -14.2647  -48.8873 S.3       23 UNK        -0.2404 
      8 C8         -2.6567  -16.0733  -48.7740 C.3       23 UNK        -0.0205 
      9 C9         -1.4591  -16.7873  -49.3783 C.ar      23 UNK        -0.0193 
     10 C10        -1.4933  -17.2152  -50.7086 C.ar      23 UNK        -0.1150 
     11 C11        -0.3887  -17.8600  -51.2845 C.ar      23 UNK        -0.0193 
     12 C12         0.7513  -18.0670  -50.5015 C.ar      23 UNK        -0.1150 
     13 C13         0.7963  -17.6454  -49.1701 C.ar      23 UNK        -0.0193 
     14 C14        -0.3170  -17.0175  -48.6100 C.ar      23 UNK        -0.1150 
     15 C15         2.0600  -17.8414  -48.3499 C.3       23 UNK        -0.0205 
     16 S16         2.1701  -19.5182  -47.6541 S.3       23 UNK        -0.2404 
     17 C17         0.9918  -19.4278  -46.2663 C.3       23 UNK        -0.0398 
     18 CA         -0.0294  -20.5909  -46.2692 C.3       11 UNK         0.1400 
     19 N          -0.4550  -20.9281  -44.9086 N.am      11 UNK        -0.5000 
     20 C          -1.2272  -21.9677  -44.5657 C.2       10 UNK         0.5000 
     21 O          -1.6716  -22.7849  -45.3709 O.2       10 UNK        -0.5000 
     22 CA         -1.6063  -22.0774  -43.0806 C.3       10 UNK         0.1400 
     23 CB         -0.4761  -22.7314  -42.2713 C.3       10 UNK        -0.1800 
     24 N          -1.9176  -20.7620  -42.5214 N.am      10 UNK        -0.5000 
     25 C          -3.0804  -20.1222  -42.7084 C.2       9 UNK         0.5000 
     26 O          -4.0400  -20.6118  -43.3042 O.2       9 UNK        -0.5000 
     27 CA         -3.1802  -18.6849  -42.1597 C.3       9 UNK         0.1400 
     28 CB         -3.6335  -18.6974  -40.6923 C.3       9 UNK        -0.1800 
     29 N          -1.9256  -17.9367  -42.2694 N.am      9 UNK        -0.5000 
     30 C          -1.3625  -17.5693  -43.4286 C.2       8 UNK         0.5000 
     31 O          -1.8529  -17.8046  -44.5316 O.2       8 UNK        -0.5000 
     32 CA          0.0078  -16.8722  -43.3544 C.3       8 UNK         0.1400 
     33 CB         -0.1663  -15.3512  -43.2515 C.3       8 UNK        -0.1800 
     34 N           0.8797  -17.3484  -42.2730 N.am      8 UNK        -0.5000 
     35 C           1.2535  -18.6260  -42.0903 C.2       7 UNK         0.5000 
     36 O           0.8584  -19.5456  -42.8063 O.2       7 UNK        -0.5000 
     37 CA          2.2088  -18.9595  -40.9284 C.3       7 UNK         0.1400 
     38 CB          3.4697  -19.6755  -41.4393 C.3       7 UNK        -0.1800 
     39 N           2.6016  -17.7855  -40.1493 N.am      7 UNK        -0.5000 
     40 C           1.9012  -17.2915  -39.1182 C.2       6 UNK         0.5000 
     41 O           0.8498  -17.7882  -38.7127 O.2       6 UNK        -0.5000 
     42 CA          2.4480  -16.0240  -38.4291 C.3       6 UNK         0.1400 
     43 CB          3.1890  -16.3946  -37.1353 C.3       6 UNK        -0.1800 
     44 N           3.3391  -15.2228  -39.2716 N.am      6 UNK        -0.5000 
     45 C           2.9736  -14.5943  -40.3964 C.2       5 UNK         0.5000 
     46 O           1.8264  -14.6236  -40.8426 O.2       5 UNK        -0.5000 
     47 CA          4.0649  -13.8323  -41.1766 C.3       5 UNK         0.1400 
     48 CB          5.4359  -13.7751  -40.4658 C.3       5 UNK        -0.1800 
     49 N           4.2217  -14.3539  -42.5368 N.am      5 UNK        -0.5000 
     50 C           4.5042  -15.6167  -42.8954 C.2       4 UNK         0.5000 
     51 O           4.6668  -16.5283  -42.0830 O.2       4 UNK        -0.5000 
     52 CA          4.6300  -15.9278  -44.4033 C.3       4 UNK         0.1400 
     53 CB          3.5776  -16.9517  -44.8520 C.3       4 UNK        -0.1800 
     54 N           4.5142  -14.7408  -45.2529 N.am      4 UNK        -0.5000 
     55 C           5.5211  -13.9018  -45.5364 C.2       3 UNK         0.5000 
     56 O           6.6844  -14.0873  -45.1778 O.2       3 UNK        -0.5000 
     57 CA          5.1680  -12.6221  -46.3249 C.3       3 UNK         0.1400 
     58 CB          5.4554  -12.8190  -47.8205 C.3       3 UNK        -0.1800 
     59 N           3.7766  -12.1905  -46.1574 N.am      3 UNK        -0.5000 
     60 C           3.2161  -11.8377  -44.9899 C.2       2 UNK         0.5000 
     61 O           3.8448  -11.7737  -43.9338 O.2       2 UNK        -0.5000 
     62 CA          1.7016  -11.5494  -44.9693 C.3       2 UNK         0.1400 
     63 CB          1.4445  -10.0431  -44.8123 C.3       2 UNK        -0.1800 
     64 N           0.9690  -12.0306  -46.1413 N.am      2 UNK        -0.5000 
     65 C           0.8548  -13.3055  -46.5420 C.2       1 UNK         0.5000 
     66 O           1.3841  -14.2573  -45.9662 O.2       1 UNK        -0.5000 
     67 C          -1.2284  -20.3286  -47.2088 C.2       11 UNK         0.5000 
     68 O          -1.2214  -20.7931  -48.3478 O.2       11 UNK        -0.5000 
     69 N          -2.2706  -19.6655  -46.6846 N.am      12 UNK        -0.5000 
     70 CA         -3.5496  -19.4325  -47.3569 C.3       12 UNK         0.1400 
     71 CB         -4.4390  -18.5508  -46.4656 C.3       12 UNK        -0.1800 
     72 C          -4.3052  -20.7216  -47.7295 C.2       12 UNK         0.5000 
     73 O          -4.9917  -20.7335  -48.7487 O.2       12 UNK        -0.5000 
     74 N          -4.1709  -21.7755  -46.9126 N.am      13 UNK        -0.5000 
     75 CA         -4.7415  -23.0954  -47.1822 C.3       13 UNK         0.1400 
     76 CB         -4.9563  -23.8464  -45.8593 C.3       13 UNK        -0.1800 
     77 C          -3.8516  -23.9049  -48.1397 C.2       13 UNK         0.5000 
     78 O          -4.3674  -24.5531  -49.0510 O.2       13 UNK        -0.5000 
     79 N          -2.5294  -23.8315  -47.9277 N.am      14 UNK        -0.5000 
     80 CA         -1.5022  -24.5040  -48.7259 C.3       14 UNK         0.1400 
     81 CB         -0.1402  -24.3446  -48.0357 C.3       14 UNK        -0.1800 
     82 C          -1.4234  -24.0176  -50.1854 C.2       14 UNK         0.5000 
     83 O          -0.9536  -24.7719  -51.0378 O.2       14 UNK        -0.5000 
     84 N          -1.8953  -22.7907  -50.4486 N.am      15 UNK        -0.5000 
     85 CA         -2.0647  -22.1627  -51.7588 C.3       15 UNK         0.1400 
     86 CB         -2.7678  -20.8116  -51.5555 C.3       15 UNK        -0.1800 
     87 C          -2.8575  -23.0567  -52.7322 C.2       15 UNK         0.5000 
     88 O          -4.0824  -23.1401  -52.6328 O.2       15 UNK        -0.5000 
     89 N          -2.1323  -23.7603  -53.6132 N.am      16 UNK        -0.5000 
     90 CA         -2.6347  -24.7927  -54.5300 C.3       16 UNK         0.1400 
     91 CB         -3.5002  -24.1612  -55.6385 C.3       16 UNK        -0.1800 
     92 C          -3.3166  -25.9834  -53.8115 C.2       16 UNK         0.5000 
     93 O          -4.1965  -26.6290  -54.3812 O.2       16 UNK        -0.5000 
     94 N          -2.8864  -26.2464  -52.5677 N.am      17 UNK        -0.5000 
     95 CA         -3.2681  -27.3377  -51.6631 C.3       17 UNK         0.1400 
     96 CB         -2.8675  -28.6988  -52.2682 C.3       17 UNK        -0.1800 
     97 C          -4.7345  -27.3409  -51.1765 C.2       17 UNK         0.5000 
     98 O          -5.1115  -28.2629  -50.4503 O.2       17 UNK        -0.5000 
     99 N          -5.5380  -26.3399  -51.5560 N.am      18 UNK        -0.5000 
    100 CA        -6.9653  -26.2606  -51.2345 C.3       18 UNK         0.1400 
    101 CB        -7.7620  -27.1909  -52.1743 C.3       18 UNK        -0.1800 
    102 C         -7.4878  -24.8127  -51.2668 C.2       18 UNK         0.5000 
    103 O         -8.6729  -24.6041  -51.5316 O.2       18 UNK        -0.5000 
    104 N         -6.6005  -23.8358  -51.0229 N.am      19 UNK        -0.5000 
    105 CA        -6.8412  -22.3859  -51.0957 C.3       19 UNK         0.1400 
    106 CB        -7.8019  -21.9376  -49.9737 C.3       19 UNK        -0.1800 
    107 C         -7.3099  -21.9050  -52.4895 C.2       19 UNK         0.5000 
    108 O         -8.0354  -20.9139  -52.5948 O.2       19 UNK        -0.5000 
    109 N         -6.9004  -22.6191  -53.5452 N.am      20 UNK        -0.5000 
    110 CA        -7.3995  -22.4769  -54.9126 C.3       20 UNK         0.1400 
    111 CB        -7.4192  -23.8625  -55.5848 C.3       20 UNK        -0.1800 
    112 C         -6.6276  -21.4093  -55.7137 C.2       20 UNK         0.5000 
    113 O         -6.1746  -21.6773  -56.8268 O.2       20 UNK        -0.5000 
    114 N         -6.5153  -20.2088  -55.1273 N.am      21 UNK        -0.5000 
    115 CA        -5.9710  -18.9739  -55.7084 C.3       21 UNK         0.1400 
    116 CB        -6.8697  -18.4817  -56.8631 C.3       21 UNK        -0.1800 
    117 C         -4.4772  -19.0404  -56.1001 C.2       21 UNK         0.5000 
    118 O         -4.0553  -18.3267  -57.0126 O.2       21 UNK        -0.5000 
    119 N         -3.7043  -19.8583  -55.3723 N.am      22 UNK        -0.5000 
    120 CA        -2.2489  -20.0601  -55.5152 C.3       22 UNK         0.1400 
    121 C         -1.8286  -20.8188  -56.8110 C.2       22 UNK         0.5000 
    122 N         -0.5696  -21.2257  -56.9134 N.am      22 UNK        -0.7600 
    123 O         -2.6163  -21.0671  -57.7201 O.2       22 UNK        -0.5000 
    124 C124       -1.4179  -18.7548  -55.3234 C.3       23 UNK        -0.0398 
    125 S125       -1.7884  -17.8711  -53.7687 S.3       23 UNK        -0.2404 
    126 C126       -0.3674  -18.3623  -52.7312 C.3       23 UNK        -0.0205 
    127 H127        0.0290  -10.5414  -50.4892 H         1 UNK         0.0600 
    128 H128        1.6221   -9.9431  -50.0160 H         1 UNK         0.0600 
    129 H129        1.4734  -11.1254  -51.3207 H         1 UNK         0.0600 
    130 H130       -0.7818  -12.0424  -49.0610 H         1 UNK         0.3000 
    131 H131        0.4783  -14.4081  -48.3254 H         1 UNK         0.0600 
    132 H132       -1.4549  -14.7316  -46.7519 H         1 UNK         0.0800 
    133 H133       -1.8854  -13.0554  -46.9160 H         1 UNK         0.0800 
    134 H134       -3.5690  -16.3745  -49.2910 H         1 UNK         0.0800 
    135 H135       -2.7867  -16.3698  -47.7340 H         1 UNK         0.0800 
    136 H136       -2.3890  -17.0372  -51.2843 H         1 UNK         0.1150 
    137 H137        1.6129  -18.5594  -50.9305 H         1 UNK         0.1150 
    138 H138       -0.2886  -16.6895  -47.5811 H         1 UNK         0.1150 
    139 H139        2.9317  -17.6679  -48.9826 H         1 UNK         0.0800 
    140 H140        2.1162  -17.0999  -47.5516 H         1 UNK         0.0800 
    141 H141        1.6012  -19.4665  -45.3628 H         1 UNK         0.0800 
    142 H142        0.4899  -18.4611  -46.2379 H         1 UNK         0.0800 
    143 H143        0.4794  -21.4817  -46.6406 H         1 UNK         0.0600 
    144 H144       -0.0954  -20.3364  -44.1633 H         1 UNK         0.3000 
    145 H145       -2.4894  -22.7157  -43.0041 H         1 UNK         0.0600 
    146 H146       -0.7564  -22.8430  -41.2238 H         1 UNK         0.0600 
    147 H147       -0.2505  -23.7271  -42.6551 H         1 UNK         0.0600 
    148 H148        0.4452  -22.1496  -42.3111 H         1 UNK         0.0600 
    149 H149       -1.1548  -20.2671  -42.0803 H         1 UNK         0.3000 
    150 H150       -3.9375  -18.1606  -42.7467 H         1 UNK         0.0600 
    151 H151       -4.5773  -19.2328  -40.5798 H         1 UNK         0.0600 
    152 H152       -3.7892  -17.6851  -40.3190 H         1 UNK         0.0600 
    153 H153       -2.9004  -19.1844  -40.0479 H         1 UNK         0.0600 
    154 H154       -1.4483  -17.7114  -41.4086 H         1 UNK         0.3000 
    155 H155        0.5113  -17.0865  -44.2960 H         1 UNK         0.0600 
    156 H156        0.7927  -14.8405  -43.3402 H         1 UNK         0.0600 
    157 H157       -0.8058  -14.9735  -44.0504 H         1 UNK         0.0600 
    158 H158       -0.6157  -15.0602  -42.3015 H         1 UNK         0.0600 
    159 H159        1.2428  -16.6408  -41.6461 H         1 UNK         0.3000 
    160 H160        1.6795  -19.6591  -40.2782 H         1 UNK         0.0600 
    161 H161        4.1366  -19.9339  -40.6168 H         1 UNK         0.0600 
    162 H162        4.0296  -19.0624  -42.1442 H         1 UNK         0.0600 
    163 H163        3.2125  -20.6045  -41.9498 H         1 UNK         0.0600 
    164 H164        3.4326  -17.2970  -40.4645 H         1 UNK         0.3000 
    165 H165        1.5898  -15.4025  -38.1654 H         1 UNK         0.0600 
    166 H166        3.5072  -15.5039  -36.5930 H         1 UNK         0.0600 
    167 H167        2.5456  -16.9675  -36.4661 H         1 UNK         0.0600 
    168 H168        4.0735  -16.9998  -37.3380 H         1 UNK         0.0600 
    169 H169        4.3062  -15.1721  -38.9858 H         1 UNK         0.3000 
    170 H170        3.7033  -12.8082  -41.2787 H         1 UNK         0.0600 
    171 H171        5.3526  -13.3113  -39.4820 H         1 UNK         0.0600 
    172 H172        5.8771  -14.7640  -40.3359 H         1 UNK         0.0600 
    173 H173        6.1424  -13.1755  -41.0400 H         1 UNK         0.0600 
    174 H174        4.1013  -13.6618  -43.2673 H         1 UNK         0.3000 
    175 H175        5.6136  -16.3795  -44.5473 H         1 UNK         0.0600 
    176 H176        2.5829  -16.5111  -44.8681 H         1 UNK         0.0600 
    177 H177        3.7986  -17.3179  -45.8539 H         1 UNK         0.0600 
    178 H178        3.5490  -17.8198  -44.1933 H         1 UNK         0.0600 
    179 H179        3.5828  -14.5113  -45.5805 H         1 UNK         0.3000 
    180 H180        5.8108  -11.8211  -45.9542 H         1 UNK         0.0600 
    181 H181        4.8270  -13.6006  -48.2496 H         1 UNK         0.0600 
    182 H182        6.4951  -13.1042  -47.9859 H         1 UNK         0.0600 
    183 H183        5.2768  -11.9013  -48.3812 H         1 UNK         0.0600 
    184 H184        3.1933  -12.2265  -46.9851 H         1 UNK         0.3000 
    185 H185        1.2927  -12.0606  -44.0952 H         1 UNK         0.0600 
    186 H186        1.9457   -9.6495  -43.9268 H         1 UNK         0.0600 
    187 H187        1.8101   -9.4817  -45.6731 H         1 UNK         0.0600 
    188 H188        0.3807   -9.8331  -44.7001 H         1 UNK         0.0600 
    189 H189        0.5189  -11.3234  -46.7041 H         1 UNK         0.3000 
    190 H190       -2.1716  -19.2558  -45.7602 H         1 UNK         0.3000 
    191 H191       -3.3409  -18.8962  -48.2841 H         1 UNK         0.0600 
    192 H192       -4.6892  -19.0524  -45.5302 H         1 UNK         0.0600 
    193 H193       -5.3759  -18.3076  -46.9684 H         1 UNK         0.0600 
    194 H194       -3.9534  -17.6097  -46.2128 H         1 UNK         0.0600 
    195 H195       -3.5663  -21.6955  -46.1063 H         1 UNK         0.3000 
    196 H196       -5.7172  -22.9742  -47.6546 H         1 UNK         0.0600 
    197 H197       -5.4225  -24.8165  -46.0357 H         1 UNK         0.0600 
    198 H198       -5.6116  -23.2867  -45.1916 H         1 UNK         0.0600 
    199 H199       -4.0186  -24.0256  -45.3333 H         1 UNK         0.0600 
    200 H200       -2.2001  -23.3073  -47.1215 H         1 UNK         0.3000 
    201 H201       -1.7504  -25.5669  -48.7496 H         1 UNK         0.0600 
    202 H202        0.1825  -23.3041  -48.0290 H         1 UNK         0.0600 
    203 H203       -0.1726  -24.6955  -47.0040 H         1 UNK         0.0600 
    204 H204        0.6282  -24.9210  -48.5524 H         1 UNK         0.0600 
    205 H205       -2.1661  -22.2244  -49.6536 H         1 UNK         0.3000 
    206 H206       -1.0731  -21.9753  -52.1742 H         1 UNK         0.0600 
    207 H207       -3.7405  -20.9316  -51.0812 H         1 UNK         0.0600 
    208 H208       -2.1753  -20.1495  -50.9245 H         1 UNK         0.0600 
    209 H209       -2.9327  -20.3023  -52.5032 H         1 UNK         0.0600 
    210 H210       -1.1259  -23.6753  -53.5739 H         1 UNK         0.3000 
    211 H211       -1.7566  -25.2212  -55.0151 H         1 UNK         0.0600 
    212 H212       -4.3313  -23.5900  -55.2296 H         1 UNK         0.0600 
    213 H213       -3.9113  -24.9147  -56.3109 H         1 UNK         0.0600 
    214 H214       -2.9078  -23.4835  -56.2505 H         1 UNK         0.0600 
    215 H215       -2.1694  -25.6317  -52.1889 H         1 UNK         0.3000 
    216 H216       -2.6660  -27.1914  -50.7653 H         1 UNK         0.0600 
    217 H217       -3.4665  -28.9432  -53.1459 H         1 UNK         0.0600 
    218 H218       -3.0028  -29.5058  -51.5473 H         1 UNK         0.0600 
    219 H219       -1.8185  -28.7054  -52.5645 H         1 UNK         0.0600 
    220 H220       -5.1608  -25.6157  -52.1514 H         1 UNK         0.3000 
    221 H221       -7.1121  -26.6014  -50.2076 H         1 UNK         0.0600 
    222 H222       -7.6632  -26.8811  -53.2154 H         1 UNK         0.0600 
    223 H223       -7.4207  -28.2233  -52.0997 H         1 UNK         0.0600 
    224 H224       -8.8243  -27.1903  -51.9278 H         1 UNK         0.0600 
    225 H225       -5.6584  -24.1015  -50.7571 H         1 UNK         0.3000 
    226 H226       -5.8767  -21.9120  -50.9204 H         1 UNK         0.0600 
    227 H227       -7.4815  -22.3114  -49.0027 H         1 UNK         0.0600 
    228 H228       -7.8357  -20.8499  -49.9031 H         1 UNK         0.0600 
    229 H229       -8.8202  -22.2865  -50.1467 H         1 UNK         0.0600 
    230 H230       -6.1986  -23.3291  -53.3831 H         1 UNK         0.3000 
    231 H231       -8.4362  -22.1354  -54.8727 H         1 UNK         0.0600 
    232 H232       -8.0478  -24.5569  -55.0266 H         1 UNK         0.0600 
    233 H233       -6.4261  -24.3023  -55.6559 H         1 UNK         0.0600 
    234 H234       -7.8254  -23.8029  -56.5952 H         1 UNK         0.0600 
    235 H235       -6.9294  -20.1161  -54.2059 H         1 UNK         0.3000 
    236 H236       -6.0288  -18.2265  -54.9158 H         1 UNK         0.0600 
    237 H237       -6.5717  -17.4874  -57.1975 H         1 UNK         0.0600 
    238 H238       -6.8173  -19.1460  -57.7263 H         1 UNK         0.0600 
    239 H239       -7.9123  -18.4166  -56.5519 H         1 UNK         0.0600 
    240 H240       -4.1609  -20.4245  -54.6736 H         1 UNK         0.3000 
    241 H241       -1.9858  -20.7354  -54.7013 H         1 UNK         0.0600 
    242 H242       -0.2895  -21.7210  -57.7459 H         1 UNK         0.3800 
    243 H243        0.1121  -21.0602  -56.1901 H         1 UNK         0.3800 
    244 H244       -1.5950  -18.0655  -56.1499 H         1 UNK         0.0800 
    245 H245       -0.3489  -18.9692  -55.3510 H         1 UNK         0.0800 
    246 H246       -0.3058  -19.4510  -52.7153 H         1 UNK         0.0800 
    247 H247        0.5446  -18.0046  -53.2114 H         1 UNK         0.0800 
@<TRIPOS>BOND
     1    1    2 1    
     2    1  127 1    
     3    1  128 1    
     4    1  129 1    
     5    2    3 2    
     6    2    4 am   BACKBONE|DICT|INTERRES
     7    4    5 1    
     8    4  130 1    
     9    5    6 1    
    10    5   65 1    
    11    5  131 1    
    12    6    7 1    
    13    6  132 1    
    14    6  133 1    
    15    7    8 1    
    16    8    9 1    
    17    8  134 1    
    18    8  135 1    
    19    9   10 ar   
    20    9   14 ar   
    21   10   11 ar   
    22   10  136 1    
    23   11   12 ar   
    24   11  126 1    
    25   12   13 ar   
    26   12  137 1    
    27   13   14 ar   
    28   13   15 1    
    29   14  138 1    
    30   15   16 1    
    31   15  139 1    
    32   15  140 1    
    33   16   17 1    
    34   17   18 1    
    35   17  141 1    
    36   17  142 1    
    37   18   19 1    
    38   18   67 1    
    39   18  143 1    
    40   19   20 am   BACKBONE|DICT|INTERRES
    41   19  144 1    
    42   20   21 2    
    43   20   22 1    
    44   22   23 1    
    45   22   24 1    
    46   22  145 1    
    47   23  146 1    
    48   23  147 1    
    49   23  148 1    
    50   24   25 am   BACKBONE|DICT|INTERRES
    51   24  149 1    
    52   25   26 2    
    53   25   27 1    
    54   27   28 1    
    55   27   29 1    
    56   27  150 1    
    57   28  151 1    
    58   28  152 1    
    59   28  153 1    
    60   29   30 am   BACKBONE|DICT|INTERRES
    61   29  154 1    
    62   30   31 2    
    63   30   32 1    
    64   32   33 1    
    65   32   34 1    
    66   32  155 1    
    67   33  156 1    
    68   33  157 1    
    69   33  158 1    
    70   34   35 am   BACKBONE|DICT|INTERRES
    71   34  159 1    
    72   35   36 2    
    73   35   37 1    
    74   37   38 1    
    75   37   39 1    
    76   37  160 1    
    77   38  161 1    
    78   38  162 1    
    79   38  163 1    
    80   39   40 am   BACKBONE|DICT|INTERRES
    81   39  164 1    
    82   40   41 2    
    83   40   42 1    
    84   42   43 1    
    85   42   44 1    
    86   42  165 1    
    87   43  166 1    
    88   43  167 1    
    89   43  168 1    
    90   44   45 am   BACKBONE|DICT|INTERRES
    91   44  169 1    
    92   45   46 2    
    93   45   47 1    
    94   47   48 1    
    95   47   49 1    
    96   47  170 1    
    97   48  171 1    
    98   48  172 1    
    99   48  173 1    
   100   49   50 am   BACKBONE|DICT|INTERRES
   101   49  174 1    
   102   50   51 2    
   103   50   52 1    
   104   52   53 1    
   105   52   54 1    
   106   52  175 1    
   107   53  176 1    
   108   53  177 1    
   109   53  178 1    
   110   54   55 am   BACKBONE|DICT|INTERRES
   111   54  179 1    
   112   55   56 2    
   113   55   57 1    
   114   57   58 1    
   115   57   59 1    
   116   57  180 1    
   117   58  181 1    
   118   58  182 1    
   119   58  183 1    
   120   59   60 am   BACKBONE|DICT|INTERRES
   121   59  184 1    
   122   60   61 2    
   123   60   62 1    
   124   62   63 1    
   125   62   64 1    
   126   62  185 1    
   127   63  186 1    
   128   63  187 1    
   129   63  188 1    
   130   64   65 am   BACKBONE|DICT|INTERRES
   131   64  189 1    
   132   65   66 2    
   133   67   68 2    
   134   67   69 am   BACKBONE|DICT|INTERRES
   135   69   70 1    
   136   69  190 1    
   137   70   71 1    
   138   70   72 1    
   139   70  191 1    
   140   71  192 1    
   141   71  193 1    
   142   71  194 1    
   143   72   73 2    
   144   72   74 am   BACKBONE|DICT|INTERRES
   145   74   75 1    
   146   74  195 1    
   147   75   76 1    
   148   75   77 1    
   149   75  196 1    
   150   76  197 1    
   151   76  198 1    
   152   76  199 1    
   153   77   78 2    
   154   77   79 am   BACKBONE|DICT|INTERRES
   155   79   80 1    
   156   79  200 1    
   157   80   81 1    
   158   80   82 1    
   159   80  201 1    
   160   81  202 1    
   161   81  203 1    
   162   81  204 1    
   163   82   83 2    
   164   82   84 am   BACKBONE|DICT|INTERRES
   165   84   85 1    
   166   84  205 1    
   167   85   86 1    
   168   85   87 1    
   169   85  206 1    
   170   86  207 1    
   171   86  208 1    
   172   86  209 1    
   173   87   88 2    
   174   87   89 am   BACKBONE|DICT|INTERRES
   175   89   90 1    
   176   89  210 1    
   177   90   91 1    
   178   90   92 1    
   179   90  211 1    
   180   91  212 1    
   181   91  213 1    
   182   91  214 1    
   183   92   93 2    
   184   92   94 am   BACKBONE|DICT|INTERRES
   185   94   95 1    
   186   94  215 1    
   187   95   96 1    
   188   95   97 1    
   189   95  216 1    
   190   96  217 1    
   191   96  218 1    
   192   96  219 1    
   193   97   98 2    
   194   97   99 am   BACKBONE|DICT|INTERRES
   195   99  100 1    
   196   99  220 1    
   197  100  101 1    
   198  100  102 1    
   199  100  221 1    
   200  101  222 1    
   201  101  223 1    
   202  101  224 1    
   203  102  103 2    
   204  102  104 am   BACKBONE|DICT|INTERRES
   205  104  105 1    
   206  104  225 1    
   207  105  106 1    
   208  105  107 1    
   209  105  226 1    
   210  106  227 1    
   211  106  228 1    
   212  106  229 1    
   213  107  108 2    
   214  107  109 am   BACKBONE|DICT|INTERRES
   215  109  110 1    
   216  109  230 1    
   217  110  111 1    
   218  110  112 1    
   219  110  231 1    
   220  111  232 1    
   221  111  233 1    
   222  111  234 1    
   223  112  113 2    
   224  112  114 am   BACKBONE|DICT|INTERRES
   225  114  115 1    
   226  114  235 1    
   227  115  116 1    
   228  115  117 1    
   229  115  236 1    
   230  116  237 1    
   231  116  238 1    
   232  116  239 1    
   233  117  118 2    
   234  117  119 am   BACKBONE|DICT|INTERRES
   235  119  120 1    
   236  119  240 1    
   237  120  121 1    
   238  120  124 1    
   239  120  241 1    
   240  121  122 am   BACKBONE|DICT|INTERRES
   241  121  123 2    
   242  122  242 1    
   243  122  243 1    
   244  124  125 1    
   245  124  244 1    
   246  124  245 1    
   247  125  126 1    
   248  126  246 1    
   249  126  247 1    
@<TRIPOS>SUBSTRUCTURE
     1 UNK         1 GROUP             0       ****    0 ROOT    
