@<TRIPOS>MOLECULE
3R540
247   249    1
SMALL
USER_CHARGES


@<TRIPOS>ATOM
      1 CA          4.1329  -13.9581  -43.7167 C.3       0 UNK        -0.1800 
      2 C           3.2010  -13.8573  -44.9141 C.2       0 UNK         0.5000 
      3 O           2.3280  -12.9924  -44.9447 O.2       0 UNK        -0.5000 
      4 N           3.3805  -14.7276  -45.9161 N.am      1 UNK        -0.5000 
      5 CA          2.5703  -14.7711  -47.1412 C.3       1 UNK         0.1400 
      6 C6          2.7596  -16.0814  -47.9412 C.3       23 UNK        -0.0398 
      7 S7          4.5036  -16.5185  -48.2694 S.3       23 UNK        -0.2404 
      8 C8          4.4000  -17.2177  -49.9481 C.3       23 UNK        -0.0205 
      9 C9          3.4263  -18.3859  -50.0242 C.ar      23 UNK        -0.0193 
     10 C10         2.1887  -18.2273  -50.6549 C.ar      23 UNK        -0.1150 
     11 C11         1.2840  -19.2897  -50.7220 C.ar      23 UNK        -0.0193 
     12 C12         1.6263  -20.5185  -50.1536 C.ar      23 UNK        -0.1150 
     13 C13         2.8601  -20.6929  -49.5221 C.ar      23 UNK        -0.0193 
     14 C14         3.7599  -19.6238  -49.4660 C.ar      23 UNK        -0.1150 
     15 C15         3.2254  -22.0490  -48.9371 C.3       23 UNK        -0.0205 
     16 S16         3.5368  -21.9932  -47.1468 S.3       23 UNK        -0.2404 
     17 C17         1.8565  -21.7400  -46.4870 C.3       23 UNK        -0.0398 
     18 CA          1.3283  -22.9735  -45.6958 C.3       11 UNK         0.1400 
     19 N           0.8352  -22.5624  -44.3757 N.am      11 UNK        -0.5000 
     20 C           0.8515  -23.2950  -43.2550 C.2       10 UNK         0.5000 
     21 O           1.2465  -24.4593  -43.2049 O.2       10 UNK        -0.5000 
     22 CA          0.3023  -22.6171  -41.9881 C.3       10 UNK         0.1400 
     23 CB          1.3976  -21.7822  -41.3065 C.3       10 UNK        -0.1800 
     24 N          -0.8352  -21.7520  -42.3039 N.am      10 UNK        -0.5000 
     25 C          -2.1142  -22.1512  -42.3128 C.2       9 UNK         0.5000 
     26 O          -2.4793  -23.2801  -41.9844 O.2       9 UNK        -0.5000 
     27 CA         -3.1658  -21.1231  -42.7788 C.3       9 UNK         0.1400 
     28 CB         -3.6790  -20.2994  -41.5885 C.3       9 UNK        -0.1800 
     29 N          -2.6719  -20.2110  -43.8128 N.am      9 UNK        -0.5000 
     30 C          -2.3049  -20.5840  -45.0468 C.2       8 UNK         0.5000 
     31 O          -2.4172  -21.7303  -45.4714 O.2       8 UNK        -0.5000 
     32 CA         -1.6616  -19.5162  -45.9518 C.3       8 UNK         0.1400 
     33 CB         -2.7105  -18.9364  -46.9124 C.3       8 UNK        -0.1800 
     34 N          -0.9807  -18.4290  -45.2330 N.am      8 UNK        -0.5000 
     35 C           0.0184  -18.6026  -44.3506 C.2       7 UNK         0.5000 
     36 O           0.4281  -19.7164  -44.0208 O.2       7 UNK        -0.5000 
     37 CA          0.6786  -17.3632  -43.7142 C.3       7 UNK         0.1400 
     38 CB          2.1857  -17.3468  -44.0103 C.3       7 UNK        -0.1800 
     39 N           0.0865  -16.0896  -44.1303 N.am      7 UNK        -0.5000 
     40 C          -1.0252  -15.5605  -43.6010 C.2       6 UNK         0.5000 
     41 O          -1.6629  -16.0903  -42.6905 O.2       6 UNK        -0.5000 
     42 CA         -1.5285  -14.2334  -44.2076 C.3       6 UNK         0.1400 
     43 CB         -0.9888  -13.0404  -43.4052 C.3       6 UNK        -0.1800 
     44 N          -1.2162  -14.0514  -45.6323 N.am      6 UNK        -0.5000 
     45 C          -1.6387  -14.8678  -46.6103 C.2       5 UNK         0.5000 
     46 O          -2.2740  -15.8970  -46.3870 O.2       5 UNK        -0.5000 
     47 CA         -1.2616  -14.5113  -48.0648 C.3       5 UNK         0.1400 
     48 CB         -2.2470  -15.0989  -49.0985 C.3       5 UNK        -0.1800 
     49 N          -1.0425  -13.0788  -48.2978 N.am      5 UNK        -0.5000 
     50 C          -1.9585  -12.1012  -48.2263 C.2       4 UNK         0.5000 
     51 O          -3.1294  -12.2812  -47.8866 O.2       4 UNK        -0.5000 
     52 CA         -1.4685  -10.6872  -48.6088 C.3       4 UNK         0.1400 
     53 CB         -2.5453   -9.6004  -48.4058 C.3       4 UNK        -0.1800 
     54 N          -0.2216  -10.2987  -47.9396 N.am      4 UNK        -0.5000 
     55 C           0.0018  -10.2218  -46.6198 C.2       3 UNK         0.5000 
     56 O          -0.8256  -10.5424  -45.7667 O.2       3 UNK        -0.5000 
     57 CA          1.3946   -9.7122  -46.1974 C.3       3 UNK         0.1400 
     58 CB          1.5731   -9.6547  -44.6690 C.3       3 UNK        -0.1800 
     59 N           2.4455  -10.5518  -46.7705 N.am      3 UNK        -0.5000 
     60 C           2.9921  -10.3848  -47.9841 C.2       2 UNK         0.5000 
     61 O           2.6853   -9.4637  -48.7416 O.2       2 UNK        -0.5000 
     62 CA          4.0143  -11.4407  -48.4553 C.3       2 UNK         0.1400 
     63 CB          5.4465  -10.9757  -48.1528 C.3       2 UNK        -0.1800 
     64 N           3.8031  -12.7571  -47.8519 N.am      2 UNK        -0.5000 
     65 C           2.7130  -13.5163  -48.0307 C.2       1 UNK         0.5000 
     66 O           1.8056  -13.2292  -48.8128 O.2       1 UNK        -0.5000 
     67 C           0.2870  -23.7961  -46.4996 C.2       11 UNK         0.5000 
     68 O           0.4415  -23.9568  -47.7119 O.2       11 UNK        -0.5000 
     69 N          -0.7616  -24.2880  -45.8216 N.am      12 UNK        -0.5000 
     70 CA         -1.9974  -24.8689  -46.3578 C.3       12 UNK         0.1400 
     71 CB         -2.8499  -25.3880  -45.1917 C.3       12 UNK        -0.1800 
     72 C          -1.8334  -25.9627  -47.4268 C.2       12 UNK         0.5000 
     73 O          -2.6728  -26.0504  -48.3240 O.2       12 UNK        -0.5000 
     74 N          -0.7591  -26.7558  -47.3275 N.am      13 UNK        -0.5000 
     75 CA         -0.4238  -27.8293  -48.2645 C.3       13 UNK         0.1400 
     76 CB          0.7508  -28.6409  -47.6976 C.3       13 UNK        -0.1800 
     77 C          -0.0983  -27.3320  -49.6869 C.2       13 UNK         0.5000 
     78 O          -0.4140  -28.0289  -50.6520 O.2       13 UNK        -0.5000 
     79 N           0.5109  -26.1432  -49.7912 N.am      14 UNK        -0.5000 
     80 CA          0.8518  -25.4913  -51.0587 C.3       14 UNK         0.1400 
     81 CB          2.3399  -25.1091  -51.0511 C.3       14 UNK        -0.1800 
     82 C          -0.0583  -24.2839  -51.3528 C.2       14 UNK         0.5000 
     83 O          -0.1966  -23.9069  -52.5161 O.2       14 UNK        -0.5000 
     84 N          -0.7160  -23.7355  -50.3205 N.am      15 UNK        -0.5000 
     85 CA         -1.7450  -22.6981  -50.4325 C.3       15 UNK         0.1400 
     86 CB         -1.7995  -21.8806  -49.1306 C.3       15 UNK        -0.1800 
     87 C          -3.1397  -23.2492  -50.8037 C.2       15 UNK         0.5000 
     88 O          -4.1136  -22.5065  -50.7033 O.2       15 UNK        -0.5000 
     89 N          -3.2242  -24.5258  -51.2080 N.am      16 UNK        -0.5000 
     90 CA         -4.4142  -25.2246  -51.7069 C.3       16 UNK         0.1400 
     91 CB         -4.8356  -24.6543  -53.0769 C.3       16 UNK        -0.1800 
     92 C          -5.5681  -25.2461  -50.6850 C.2       16 UNK         0.5000 
     93 O          -6.6738  -24.7904  -50.9821 O.2       16 UNK        -0.5000 
     94 N          -5.2650  -25.7660  -49.4874 N.am      17 UNK        -0.5000 
     95 CA         -6.1360  -25.8378  -48.3100 C.3       17 UNK         0.1400 
     96 CB         -7.4013  -26.6804  -48.5794 C.3       17 UNK        -0.1800 
     97 C          -6.4310  -24.4423  -47.7250 C.2       17 UNK         0.5000 
     98 O          -7.5600  -24.1599  -47.3205 O.2       17 UNK        -0.5000 
     99 N          -5.3790  -23.6127  -47.6771 N.am      18 UNK        -0.5000 
    100 CA        -5.3319  -22.2655  -47.1030 C.3       18 UNK         0.1400 
    101 CB        -5.5981  -22.3069  -45.5832 C.3       18 UNK        -0.1800 
    102 C         -6.2218  -21.2475  -47.8422 C.2       18 UNK         0.5000 
    103 O         -6.9044  -20.4428  -47.2046 O.2       18 UNK        -0.5000 
    104 N         -6.1870  -21.2830  -49.1788 N.am      19 UNK        -0.5000 
    105 CA        -6.8219  -20.2887  -50.0348 C.3       19 UNK         0.1400 
    106 CB        -7.0899  -20.9096  -51.4154 C.3       19 UNK        -0.1800 
    107 C         -5.9036  -19.0641  -50.1692 C.2       19 UNK         0.5000 
    108 O         -4.7023  -19.2228  -50.3973 O.2       19 UNK        -0.5000 
    109 N         -6.4858  -17.8599  -50.0960 N.am      20 UNK        -0.5000 
    110 CA        -5.7787  -16.5918  -50.3188 C.3       20 UNK         0.1400 
    111 CB        -6.6825  -15.4251  -49.8939 C.3       20 UNK        -0.1800 
    112 C         -5.3083  -16.4144  -51.7780 C.2       20 UNK         0.5000 
    113 O         -4.3428  -15.6935  -52.0277 O.2       20 UNK        -0.5000 
    114 N         -5.9820  -17.1077  -52.7067 N.am      21 UNK        -0.5000 
    115 CA        -5.6123  -17.2264  -54.1167 C.3       21 UNK         0.1400 
    116 CB        -6.8416  -17.7117  -54.9019 C.3       21 UNK        -0.1800 
    117 C         -4.4103  -18.1648  -54.3619 C.2       21 UNK         0.5000 
    118 O         -3.8812  -18.1682  -55.4745 O.2       21 UNK        -0.5000 
    119 N         -3.9964  -18.9298  -53.3395 N.am      22 UNK        -0.5000 
    120 CA        -2.9145  -19.9250  -53.3775 C.3       22 UNK         0.1400 
    121 C         -3.2681  -21.2089  -54.1907 C.2       22 UNK         0.5000 
    122 N         -2.3412  -22.1486  -54.3208 N.am      22 UNK        -0.7600 
    123 O         -4.3787  -21.3827  -54.6878 O.2       22 UNK        -0.5000 
    124 C124       -1.5555  -19.2824  -53.7847 C.3       23 UNK        -0.0398 
    125 S125       -0.1086  -20.0416  -52.9798 S.3       23 UNK        -0.2404 
    126 C126       -0.0563  -19.1127  -51.4162 C.3       23 UNK        -0.0205 
    127 H127        3.5546  -14.1111  -42.8056 H         1 UNK         0.0600 
    128 H128        4.7043  -13.0364  -43.6086 H         1 UNK         0.0600 
    129 H129        4.8345  -14.7863  -43.8187 H         1 UNK         0.0600 
    130 H130        4.1290  -15.4054  -45.8670 H         1 UNK         0.3000 
    131 H131        1.5320  -14.7632  -46.8079 H         1 UNK         0.0600 
    132 H132        2.3142  -16.9133  -47.3953 H         1 UNK         0.0800 
    133 H133        2.2063  -16.0284  -48.8800 H         1 UNK         0.0800 
    134 H134        4.1159  -16.4296  -50.6473 H         1 UNK         0.0800 
    135 H135        5.3917  -17.5538  -50.2539 H         1 UNK         0.0800 
    136 H136        1.9298  -17.2749  -51.0960 H         1 UNK         0.1150 
    137 H137        0.9393  -21.3479  -50.2278 H         1 UNK         0.1150 
    138 H138        4.7172  -19.7530  -48.9804 H         1 UNK         0.1150 
    139 H139        2.4230  -22.7622  -49.1172 H         1 UNK         0.0800 
    140 H140        4.1111  -22.4318  -49.4455 H         1 UNK         0.0800 
    141 H141        1.1754  -21.4318  -47.2818 H         1 UNK         0.0800 
    142 H142        1.9341  -20.8666  -45.8391 H         1 UNK         0.0800 
    143 H143        2.1615  -23.6577  -45.5231 H         1 UNK         0.0600 
    144 H144        0.5204  -21.5994  -44.3036 H         1 UNK         0.3000 
    145 H145       -0.0082  -23.3993  -41.2920 H         1 UNK         0.0600 
    146 H146        1.0293  -21.3266  -40.3872 H         1 UNK         0.0600 
    147 H147        2.2532  -22.4043  -41.0411 H         1 UNK         0.0600 
    148 H148        1.7612  -20.9829  -41.9536 H         1 UNK         0.0600 
    149 H149       -0.6108  -20.8245  -42.6442 H         1 UNK         0.3000 
    150 H150       -4.0064  -21.6822  -43.1917 H         1 UNK         0.0600 
    151 H151       -4.0728  -20.9483  -40.8050 H         1 UNK         0.0600 
    152 H152       -4.4851  -19.6305  -41.8905 H         1 UNK         0.0600 
    153 H153       -2.8869  -19.6935  -41.1466 H         1 UNK         0.0600 
    154 H154       -2.5477  -19.2446  -43.5481 H         1 UNK         0.3000 
    155 H155       -0.9064  -20.0276  -46.5517 H         1 UNK         0.0600 
    156 H156       -3.2505  -19.7241  -47.4371 H         1 UNK         0.0600 
    157 H157       -3.4513  -18.3363  -46.3830 H         1 UNK         0.0600 
    158 H158       -2.2449  -18.3086  -47.6717 H         1 UNK         0.0600 
    159 H159       -1.2948  -17.4890  -45.4485 H         1 UNK         0.3000 
    160 H160        0.5598  -17.4672  -42.6337 H         1 UNK         0.0600 
    161 H161        2.3872  -17.2620  -45.0769 H         1 UNK         0.0600 
    162 H162        2.6653  -18.2627  -43.6620 H         1 UNK         0.0600 
    163 H163        2.6768  -16.5192  -43.5005 H         1 UNK         0.0600 
    164 H164        0.5512  -15.5843  -44.8684 H         1 UNK         0.3000 
    165 H165       -2.6163  -14.2347  -44.1136 H         1 UNK         0.0600 
    166 H166       -1.4619  -12.1100  -43.7177 H         1 UNK         0.0600 
    167 H167       -1.1905  -13.1595  -42.3399 H         1 UNK         0.0600 
    168 H168        0.0886  -12.9269  -43.5240 H         1 UNK         0.0600 
    169 H169       -0.7266  -13.2030  -45.8813 H         1 UNK         0.3000 
    170 H170       -0.3020  -14.9934  -48.2474 H         1 UNK         0.0600 
    171 H171       -3.2637  -14.7378  -48.9422 H         1 UNK         0.0600 
    172 H172       -1.9538  -14.8421  -50.1165 H         1 UNK         0.0600 
    173 H173       -2.2772  -16.1874  -49.0397 H         1 UNK         0.0600 
    174 H174       -0.0941  -12.8341  -48.5701 H         1 UNK         0.3000 
    175 H175       -1.2429  -10.7260  -49.6755 H         1 UNK         0.0600 
    176 H176       -2.1844   -8.6231  -48.7261 H         1 UNK         0.0600 
    177 H177       -2.8483   -9.5199  -47.3613 H         1 UNK         0.0600 
    178 H178       -3.4396   -9.8217  -48.9896 H         1 UNK         0.0600 
    179 H179        0.5424  -10.0352  -48.5505 H         1 UNK         0.3000 
    180 H180        1.4948   -8.6926  -46.5752 H         1 UNK         0.0600 
    181 H181        1.4365  -10.6320  -44.2059 H         1 UNK         0.0600 
    182 H182        0.8478   -8.9765  -44.2182 H         1 UNK         0.0600 
    183 H183        2.5658   -9.2929  -44.4010 H         1 UNK         0.0600 
    184 H184        2.6861  -11.3758  -46.2309 H         1 UNK         0.3000 
    185 H185        3.9069  -11.5447  -49.5370 H         1 UNK         0.0600 
    186 H186        5.6186  -10.8740  -47.0805 H         1 UNK         0.0600 
    187 H187        6.1811  -11.6783  -48.5466 H         1 UNK         0.0600 
    188 H188        5.6473  -10.0064  -48.6111 H         1 UNK         0.0600 
    189 H189        4.4983  -13.0712  -47.1908 H         1 UNK         0.3000 
    190 H190       -0.7783  -24.0920  -44.8320 H         1 UNK         0.3000 
    191 H191       -2.5521  -24.0560  -46.8223 H         1 UNK         0.0600 
    192 H192       -3.0808  -24.5878  -44.4881 H         1 UNK         0.0600 
    193 H193       -3.8003  -25.7894  -45.5461 H         1 UNK         0.0600 
    194 H194       -2.3397  -26.1801  -44.6423 H         1 UNK         0.0600 
    195 H195       -0.1185  -26.5985  -46.5634 H         1 UNK         0.3000 
    196 H196       -1.2905  -28.4895  -48.3383 H         1 UNK         0.0600 
    197 H197        1.0121  -29.4661  -48.3615 H         1 UNK         0.0600 
    198 H198        0.5011  -29.0724  -46.7281 H         1 UNK         0.0600 
    199 H199        1.6424  -28.0250  -47.5726 H         1 UNK         0.0600 
    200 H200        0.6985  -25.6164  -48.9452 H         1 UNK         0.3000 
    201 H201        0.7047  -26.1802  -51.8931 H         1 UNK         0.0600 
    202 H202        2.9605  -25.9889  -51.2212 H         1 UNK         0.0600 
    203 H203        2.6452  -24.6841  -50.0982 H         1 UNK         0.0600 
    204 H204        2.5774  -24.3892  -51.8357 H         1 UNK         0.0600 
    205 H205       -0.4931  -24.0461  -49.3804 H         1 UNK         0.3000 
    206 H206       -1.4581  -22.0166  -51.2333 H         1 UNK         0.0600 
    207 H207       -0.8196  -21.5076  -48.8396 H         1 UNK         0.0600 
    208 H208       -2.4510  -21.0141  -49.2481 H         1 UNK         0.0600 
    209 H209       -2.1841  -22.4689  -48.3019 H         1 UNK         0.0600 
    210 H210       -2.3717  -25.0656  -51.2034 H         1 UNK         0.3000 
    211 H211       -4.1207  -26.2639  -51.8616 H         1 UNK         0.0600 
    212 H212       -5.1609  -23.6160  -53.0013 H         1 UNK         0.0600 
    213 H213       -5.6620  -25.2254  -53.5011 H         1 UNK         0.0600 
    214 H214       -4.0130  -24.6953  -53.7903 H         1 UNK         0.0600 
    215 H215       -4.3030  -26.0526  -49.3201 H         1 UNK         0.3000 
    216 H216       -5.5593  -26.3635  -47.5475 H         1 UNK         0.0600 
    217 H217       -7.9499  -26.8613  -47.6544 H         1 UNK         0.0600 
    218 H218       -7.1456  -27.6530  -48.9997 H         1 UNK         0.0600 
    219 H219       -8.0855  -26.1850  -49.2684 H         1 UNK         0.0600 
    220 H220       -4.5219  -23.9405  -48.0965 H         1 UNK         0.3000 
    221 H221       -4.3105  -21.9176  -47.2482 H         1 UNK         0.0600 
    222 H222       -6.6233  -22.5980  -45.3544 H         1 UNK         0.0600 
    223 H223       -4.9301  -23.0099  -45.0866 H         1 UNK         0.0600 
    224 H224       -5.4311  -21.3274  -45.1344 H         1 UNK         0.0600 
    225 H225       -5.5318  -21.9054  -49.6473 H         1 UNK         0.3000 
    226 H226       -7.7775  -19.9874  -49.6006 H         1 UNK         0.0600 
    227 H227       -7.7075  -21.8042  -51.3316 H         1 UNK         0.0600 
    228 H228       -7.6154  -20.2091  -52.0653 H         1 UNK         0.0600 
    229 H229       -6.1646  -21.1929  -51.9198 H         1 UNK         0.0600 
    230 H230       -7.4751  -17.7979  -49.9011 H         1 UNK         0.3000 
    231 H231       -4.8900  -16.5848  -49.6844 H         1 UNK         0.0600 
    232 H232       -7.5978  -15.3875  -50.4857 H         1 UNK         0.0600 
    233 H233       -6.1701  -14.4702  -50.0190 H         1 UNK         0.0600 
    234 H234       -6.9628  -15.5058  -48.8434 H         1 UNK         0.0600 
    235 H235       -6.7721  -17.6571  -52.4042 H         1 UNK         0.3000 
    236 H236       -5.3364  -16.2370  -54.4874 H         1 UNK         0.0600 
    237 H237       -7.6829  -17.0290  -54.7815 H         1 UNK         0.0600 
    238 H238       -6.6254  -17.7727  -55.9693 H         1 UNK         0.0600 
    239 H239       -7.1610  -18.7024  -54.5754 H         1 UNK         0.0600 
    240 H240       -4.4806  -18.8671  -52.4524 H         1 UNK         0.3000 
    241 H241       -2.8417  -20.2570  -52.3414 H         1 UNK         0.0600 
    242 H242       -1.4229  -22.0496  -53.9112 H         1 UNK         0.3800 
    243 H243       -2.5620  -22.9827  -54.8399 H         1 UNK         0.3800 
    244 H244       -1.5467  -18.2193  -53.5404 H         1 UNK         0.0800 
    245 H245       -1.4159  -19.3256  -54.8662 H         1 UNK         0.0800 
    246 H246       -0.2419  -18.0549  -51.6083 H         1 UNK         0.0800 
    247 H247       -0.8593  -19.4525  -50.7608 H         1 UNK         0.0800 
@<TRIPOS>BOND
     1    1    2 1    
     2    1  127 1    
     3    1  128 1    
     4    1  129 1    
     5    2    3 2    
     6    2    4 am   BACKBONE|DICT|INTERRES
     7    4    5 1    
     8    4  130 1    
     9    5    6 1    
    10    5   65 1    
    11    5  131 1    
    12    6    7 1    
    13    6  132 1    
    14    6  133 1    
    15    7    8 1    
    16    8    9 1    
    17    8  134 1    
    18    8  135 1    
    19    9   10 ar   
    20    9   14 ar   
    21   10   11 ar   
    22   10  136 1    
    23   11   12 ar   
    24   11  126 1    
    25   12   13 ar   
    26   12  137 1    
    27   13   14 ar   
    28   13   15 1    
    29   14  138 1    
    30   15   16 1    
    31   15  139 1    
    32   15  140 1    
    33   16   17 1    
    34   17   18 1    
    35   17  141 1    
    36   17  142 1    
    37   18   19 1    
    38   18   67 1    
    39   18  143 1    
    40   19   20 am   BACKBONE|DICT|INTERRES
    41   19  144 1    
    42   20   21 2    
    43   20   22 1    
    44   22   23 1    
    45   22   24 1    
    46   22  145 1    
    47   23  146 1    
    48   23  147 1    
    49   23  148 1    
    50   24   25 am   BACKBONE|DICT|INTERRES
    51   24  149 1    
    52   25   26 2    
    53   25   27 1    
    54   27   28 1    
    55   27   29 1    
    56   27  150 1    
    57   28  151 1    
    58   28  152 1    
    59   28  153 1    
    60   29   30 am   BACKBONE|DICT|INTERRES
    61   29  154 1    
    62   30   31 2    
    63   30   32 1    
    64   32   33 1    
    65   32   34 1    
    66   32  155 1    
    67   33  156 1    
    68   33  157 1    
    69   33  158 1    
    70   34   35 am   BACKBONE|DICT|INTERRES
    71   34  159 1    
    72   35   36 2    
    73   35   37 1    
    74   37   38 1    
    75   37   39 1    
    76   37  160 1    
    77   38  161 1    
    78   38  162 1    
    79   38  163 1    
    80   39   40 am   BACKBONE|DICT|INTERRES
    81   39  164 1    
    82   40   41 2    
    83   40   42 1    
    84   42   43 1    
    85   42   44 1    
    86   42  165 1    
    87   43  166 1    
    88   43  167 1    
    89   43  168 1    
    90   44   45 am   BACKBONE|DICT|INTERRES
    91   44  169 1    
    92   45   46 2    
    93   45   47 1    
    94   47   48 1    
    95   47   49 1    
    96   47  170 1    
    97   48  171 1    
    98   48  172 1    
    99   48  173 1    
   100   49   50 am   BACKBONE|DICT|INTERRES
   101   49  174 1    
   102   50   51 2    
   103   50   52 1    
   104   52   53 1    
   105   52   54 1    
   106   52  175 1    
   107   53  176 1    
   108   53  177 1    
   109   53  178 1    
   110   54   55 am   BACKBONE|DICT|INTERRES
   111   54  179 1    
   112   55   56 2    
   113   55   57 1    
   114   57   58 1    
   115   57   59 1    
   116   57  180 1    
   117   58  181 1    
   118   58  182 1    
   119   58  183 1    
   120   59   60 am   BACKBONE|DICT|INTERRES
   121   59  184 1    
   122   60   61 2    
   123   60   62 1    
   124   62   63 1    
   125   62   64 1    
   126   62  185 1    
   127   63  186 1    
   128   63  187 1    
   129   63  188 1    
   130   64   65 am   BACKBONE|DICT|INTERRES
   131   64  189 1    
   132   65   66 2    
   133   67   68 2    
   134   67   69 am   BACKBONE|DICT|INTERRES
   135   69   70 1    
   136   69  190 1    
   137   70   71 1    
   138   70   72 1    
   139   70  191 1    
   140   71  192 1    
   141   71  193 1    
   142   71  194 1    
   143   72   73 2    
   144   72   74 am   BACKBONE|DICT|INTERRES
   145   74   75 1    
   146   74  195 1    
   147   75   76 1    
   148   75   77 1    
   149   75  196 1    
   150   76  197 1    
   151   76  198 1    
   152   76  199 1    
   153   77   78 2    
   154   77   79 am   BACKBONE|DICT|INTERRES
   155   79   80 1    
   156   79  200 1    
   157   80   81 1    
   158   80   82 1    
   159   80  201 1    
   160   81  202 1    
   161   81  203 1    
   162   81  204 1    
   163   82   83 2    
   164   82   84 am   BACKBONE|DICT|INTERRES
   165   84   85 1    
   166   84  205 1    
   167   85   86 1    
   168   85   87 1    
   169   85  206 1    
   170   86  207 1    
   171   86  208 1    
   172   86  209 1    
   173   87   88 2    
   174   87   89 am   BACKBONE|DICT|INTERRES
   175   89   90 1    
   176   89  210 1    
   177   90   91 1    
   178   90   92 1    
   179   90  211 1    
   180   91  212 1    
   181   91  213 1    
   182   91  214 1    
   183   92   93 2    
   184   92   94 am   BACKBONE|DICT|INTERRES
   185   94   95 1    
   186   94  215 1    
   187   95   96 1    
   188   95   97 1    
   189   95  216 1    
   190   96  217 1    
   191   96  218 1    
   192   96  219 1    
   193   97   98 2    
   194   97   99 am   BACKBONE|DICT|INTERRES
   195   99  100 1    
   196   99  220 1    
   197  100  101 1    
   198  100  102 1    
   199  100  221 1    
   200  101  222 1    
   201  101  223 1    
   202  101  224 1    
   203  102  103 2    
   204  102  104 am   BACKBONE|DICT|INTERRES
   205  104  105 1    
   206  104  225 1    
   207  105  106 1    
   208  105  107 1    
   209  105  226 1    
   210  106  227 1    
   211  106  228 1    
   212  106  229 1    
   213  107  108 2    
   214  107  109 am   BACKBONE|DICT|INTERRES
   215  109  110 1    
   216  109  230 1    
   217  110  111 1    
   218  110  112 1    
   219  110  231 1    
   220  111  232 1    
   221  111  233 1    
   222  111  234 1    
   223  112  113 2    
   224  112  114 am   BACKBONE|DICT|INTERRES
   225  114  115 1    
   226  114  235 1    
   227  115  116 1    
   228  115  117 1    
   229  115  236 1    
   230  116  237 1    
   231  116  238 1    
   232  116  239 1    
   233  117  118 2    
   234  117  119 am   BACKBONE|DICT|INTERRES
   235  119  120 1    
   236  119  240 1    
   237  120  121 1    
   238  120  124 1    
   239  120  241 1    
   240  121  122 am   BACKBONE|DICT|INTERRES
   241  121  123 2    
   242  122  242 1    
   243  122  243 1    
   244  124  125 1    
   245  124  244 1    
   246  124  245 1    
   247  125  126 1    
   248  126  246 1    
   249  126  247 1    
@<TRIPOS>SUBSTRUCTURE
     1 UNK         1 GROUP             0       ****    0 ROOT    
