@<TRIPOS>MOLECULE
3R540
247   249    1
SMALL
USER_CHARGES


@<TRIPOS>ATOM
      1 CA          1.3718  -11.2899  -43.2386 C.3       0 UNK        -0.1800 
      2 C           2.2320  -11.1924  -44.4899 C.2       0 UNK         0.5000 
      3 O           3.3245  -10.6281  -44.4406 O.2       0 UNK        -0.5000 
      4 N           1.7538  -11.7481  -45.6118 N.am      1 UNK        -0.5000 
      5 CA          2.4463  -11.7469  -46.9084 C.3       1 UNK         0.1400 
      6 C6          1.4843  -12.0648  -48.0784 C.3       23 UNK        -0.0398 
      7 S7          0.7433  -13.7372  -48.0341 S.3       23 UNK        -0.2404 
      8 C8          1.1753  -14.3157  -49.7036 C.3       23 UNK        -0.0205 
      9 C9          0.5727  -15.6771  -50.0091 C.ar      23 UNK        -0.0193 
     10 C10        -0.7769  -15.7836  -50.3616 C.ar      23 UNK        -0.1150 
     11 C11        -1.3274  -17.0246  -50.6935 C.ar      23 UNK        -0.0193 
     12 C12        -0.5206  -18.1635  -50.6514 C.ar      23 UNK        -0.1150 
     13 C13         0.8270  -18.0755  -50.2935 C.ar      23 UNK        -0.0193 
     14 C14         1.3706  -16.8251  -49.9802 C.ar      23 UNK        -0.1150 
     15 C15         1.6838  -19.3372  -50.2886 C.3       23 UNK        -0.0205 
     16 S16         2.6981  -19.5640  -48.7882 S.3       23 UNK        -0.2404 
     17 C17         1.5194  -19.2995  -47.4217 C.3       23 UNK        -0.0398 
     18 CA          0.6378  -20.5343  -47.0947 C.3       11 UNK         0.1400 
     19 N           0.4123  -20.6797  -45.6530 N.am      11 UNK        -0.5000 
     20 C          -0.2281  -21.6992  -45.0632 C.2       10 UNK         0.5000 
     21 O          -0.6590  -22.6804  -45.6682 O.2       10 UNK        -0.5000 
     22 CA         -0.4764  -21.5771  -43.5481 C.3       10 UNK         0.1400 
     23 CB          0.7721  -21.9783  -42.7488 C.3       10 UNK        -0.1800 
     24 N          -0.9083  -20.2337  -43.1565 N.am      10 UNK        -0.5000 
     25 C          -2.0591  -19.6690  -43.5516 C.2       9 UNK         0.5000 
     26 O          -2.8977  -20.2431  -44.2450 O.2       9 UNK        -0.5000 
     27 CA         -2.2969  -18.2037  -43.1474 C.3       9 UNK         0.1400 
     28 CB         -2.7918  -18.1105  -41.6966 C.3       9 UNK        -0.1800 
     29 N          -1.1080  -17.3697  -43.3199 N.am      9 UNK        -0.5000 
     30 C          -0.5029  -17.1358  -44.4934 C.2       8 UNK         0.5000 
     31 O          -0.9082  -17.5655  -45.5725 O.2       8 UNK        -0.5000 
     32 CA          0.8126  -16.3405  -44.4454 C.3       8 UNK         0.1400 
     33 CB          0.5429  -14.8372  -44.3005 C.3       8 UNK        -0.1800 
     34 N           1.6941  -16.7837  -43.3654 N.am      8 UNK        -0.5000 
     35 C           2.2105  -18.0168  -43.2615 C.2       7 UNK         0.5000 
     36 O           2.0158  -18.9132  -44.0792 O.2       7 UNK        -0.5000 
     37 CA          3.0434  -18.3149  -42.0069 C.3       7 UNK         0.1400 
     38 CB          4.4672  -17.7573  -42.1501 C.3       7 UNK        -0.1800 
     39 N           2.4083  -17.7812  -40.8029 N.am      7 UNK        -0.5000 
     40 C           1.2576  -18.2452  -40.2931 C.2       6 UNK         0.5000 
     41 O           0.6401  -19.2051  -40.7552 O.2       6 UNK        -0.5000 
     42 CA          0.6787  -17.4748  -39.0931 C.3       6 UNK         0.1400 
     43 CB          1.3382  -17.9328  -37.7838 C.3       6 UNK        -0.1800 
     44 N           0.8327  -16.0259  -39.2352 N.am      6 UNK        -0.5000 
     45 C           0.2105  -15.2872  -40.1650 C.2       5 UNK         0.5000 
     46 O          -0.5895  -15.7452  -40.9794 O.2       5 UNK        -0.5000 
     47 CA          0.5840  -13.7956  -40.2266 C.3       5 UNK         0.1400 
     48 CB         -0.2745  -12.9787  -39.2502 C.3       5 UNK        -0.1800 
     49 N           2.0026  -13.5512  -39.9532 N.am      5 UNK        -0.5000 
     50 C           3.0041  -13.9691  -40.7371 C.2       4 UNK         0.5000 
     51 O           2.8371  -14.6217  -41.7708 O.2       4 UNK        -0.5000 
     52 CA          4.4259  -13.6376  -40.2661 C.3       4 UNK         0.1400 
     53 CB          5.0459  -14.8394  -39.5379 C.3       4 UNK        -0.1800 
     54 N           5.2501  -13.3003  -41.4215 N.am      4 UNK        -0.5000 
     55 C           5.5422  -12.0577  -41.8164 C.2       3 UNK         0.5000 
     56 O           5.2203  -11.0490  -41.1869 O.2       3 UNK        -0.5000 
     57 CA          6.3107  -11.9028  -43.1420 C.3       3 UNK         0.1400 
     58 CB          7.8134  -12.1934  -42.9640 C.3       3 UNK        -0.1800 
     59 N           5.7328  -12.6580  -44.2607 N.am      3 UNK        -0.5000 
     60 C           5.6944  -13.9818  -44.4730 C.2       2 UNK         0.5000 
     61 O           6.1774  -14.8103  -43.6997 O.2       2 UNK        -0.5000 
     62 CA          4.9609  -14.4465  -45.7495 C.3       2 UNK         0.1400 
     63 CB          4.4965  -15.9099  -45.6601 C.3       2 UNK        -0.1800 
     64 N           3.7974  -13.5968  -46.0053 N.am      2 UNK        -0.5000 
     65 C           3.7164  -12.6303  -46.9297 C.2       1 UNK         0.5000 
     66 O           4.6052  -12.3919  -47.7477 O.2       1 UNK        -0.5000 
     67 C          -0.6957  -20.4864  -47.8678 C.2       11 UNK         0.5000 
     68 O          -0.8724  -21.2288  -48.8346 O.2       11 UNK        -0.5000 
     69 N          -1.6252  -19.6424  -47.3979 N.am      12 UNK        -0.5000 
     70 CA         -2.9654  -19.4906  -47.9559 C.3       12 UNK         0.1400 
     71 CB         -3.6806  -18.3089  -47.2867 C.3       12 UNK        -0.1800 
     72 C          -3.8007  -20.7766  -47.8621 C.2       12 UNK         0.5000 
     73 O          -4.4416  -21.1416  -48.8453 O.2       12 UNK        -0.5000 
     74 N          -3.7437  -21.4644  -46.7130 N.am      13 UNK        -0.5000 
     75 CA         -4.3938  -22.7565  -46.4883 C.3       13 UNK         0.1400 
     76 CB         -4.2639  -23.1531  -45.0102 C.3       13 UNK        -0.1800 
     77 C          -3.8467  -23.8677  -47.4025 C.2       13 UNK         0.5000 
     78 O          -4.6330  -24.6402  -47.9507 O.2       13 UNK        -0.5000 
     79 N          -2.5181  -23.9077  -47.5794 N.am      14 UNK        -0.5000 
     80 CA         -1.8323  -24.8289  -48.4864 C.3       14 UNK         0.1400 
     81 CB         -0.3148  -24.7429  -48.2643 C.3       14 UNK        -0.1800 
     82 C          -2.1866  -24.5797  -49.9636 C.2       14 UNK         0.5000 
     83 O          -2.3820  -25.5400  -50.7083 O.2       14 UNK        -0.5000 
     84 N          -2.2953  -23.3027  -50.3547 N.am      15 UNK        -0.5000 
     85 CA         -2.7341  -22.8874  -51.6857 C.3       15 UNK         0.1400 
     86 CB         -2.4453  -21.3940  -51.8844 C.3       15 UNK        -0.1800 
     87 C          -4.2175  -23.2085  -51.9384 C.2       15 UNK         0.5000 
     88 O          -4.5430  -23.7700  -52.9819 O.2       15 UNK        -0.5000 
     89 N          -5.0856  -22.8923  -50.9669 N.am      16 UNK        -0.5000 
     90 CA         -6.5312  -23.1390  -51.0070 C.3       16 UNK         0.1400 
     91 CB         -7.1941  -22.4681  -49.7948 C.3       16 UNK        -0.1800 
     92 C          -6.9227  -24.6283  -51.0753 C.2       16 UNK         0.5000 
     93 O          -8.0278  -24.9391  -51.5212 O.2       16 UNK        -0.5000 
     94 N          -6.0211  -25.5211  -50.6448 N.am      17 UNK        -0.5000 
     95 CA         -6.1695  -26.9714  -50.7599 C.3       17 UNK         0.1400 
     96 CB         -5.1414  -27.6594  -49.8490 C.3       17 UNK        -0.1800 
     97 C          -6.0432  -27.4826  -52.2104 C.2       17 UNK         0.5000 
     98 O          -6.5582  -28.5616  -52.5082 O.2       17 UNK        -0.5000 
     99 N          -5.3783  -26.7155  -53.0863 N.am      18 UNK        -0.5000 
    100 CA        -5.2988  -26.9828  -54.5201 C.3       18 UNK         0.1400 
    101 CB        -3.9664  -26.4422  -55.0630 C.3       18 UNK        -0.1800 
    102 C         -6.4811  -26.3170  -55.2423 C.2       18 UNK         0.5000 
    103 O         -6.9441  -25.2551  -54.8200 O.2       18 UNK        -0.5000 
    104 N         -6.9190  -26.9238  -56.3532 N.am      19 UNK        -0.5000 
    105 CA        -8.0425  -26.4579  -57.1763 C.3       19 UNK         0.1400 
    106 CB        -8.3531  -27.5194  -58.2429 C.3       19 UNK        -0.1800 
    107 C         -7.8173  -25.0812  -57.8357 C.2       19 UNK         0.5000 
    108 O         -8.7886  -24.3891  -58.1430 O.2       19 UNK        -0.5000 
    109 N         -6.5459  -24.7046  -58.0274 N.am      20 UNK        -0.5000 
    110 CA        -6.1258  -23.4014  -58.5429 C.3       20 UNK         0.1400 
    111 CB        -4.6667  -23.5087  -59.0139 C.3       20 UNK        -0.1800 
    112 C         -6.2752  -22.2549  -57.5205 C.2       20 UNK         0.5000 
    113 O         -6.3024  -21.0945  -57.9328 O.2       20 UNK        -0.5000 
    114 N         -6.3592  -22.5921  -56.2230 N.am      21 UNK        -0.5000 
    115 CA        -6.3870  -21.6856  -55.0710 C.3       21 UNK         0.1400 
    116 CB        -7.7100  -20.8886  -55.0362 C.3       21 UNK        -0.1800 
    117 C         -5.1182  -20.8037  -54.9810 C.2       21 UNK         0.5000 
    118 O         -4.0440  -21.2345  -55.4079 O.2       21 UNK        -0.5000 
    119 N         -5.2474  -19.5996  -54.4079 N.am      22 UNK        -0.5000 
    120 CA        -4.1888  -18.5801  -54.3728 C.3       22 UNK         0.1400 
    121 C         -3.9238  -17.9866  -55.7865 C.2       22 UNK         0.5000 
    122 N         -2.6754  -17.9406  -56.2316 N.am      22 UNK        -0.7600 
    123 O         -4.8429  -17.5367  -56.4672 O.2       22 UNK        -0.5000 
    124 C124       -4.5135  -17.4709  -53.3377 C.3       23 UNK        -0.0398 
    125 S125       -3.0164  -16.5577  -52.8243 S.3       23 UNK        -0.2404 
    126 C126       -2.7840  -17.1404  -51.1167 C.3       23 UNK        -0.0205 
    127 H127        0.4820  -11.8980  -43.4022 H         1 UNK         0.0600 
    128 H128        1.0535  -10.2961  -42.9245 H         1 UNK         0.0600 
    129 H129        1.9458  -11.7353  -42.4271 H         1 UNK         0.0600 
    130 H130        0.8457  -12.1905  -45.6062 H         1 UNK         0.3000 
    131 H131        2.7976  -10.7252  -47.0694 H         1 UNK         0.0600 
    132 H132        2.0021  -11.9137  -49.0272 H         1 UNK         0.0800 
    133 H133        0.6678  -11.3415  -48.0819 H         1 UNK         0.0800 
    134 H134        0.8193  -13.5943  -50.4409 H         1 UNK         0.0800 
    135 H135        2.2617  -14.3483  -49.8023 H         1 UNK         0.0800 
    136 H136       -1.3943  -14.8969  -50.3969 H         1 UNK         0.1150 
    137 H137       -0.9429  -19.1236  -50.9058 H         1 UNK         0.1150 
    138 H138        2.4162  -16.7468  -49.7173 H         1 UNK         0.1150 
    139 H139        1.0635  -20.2248  -50.4199 H         1 UNK         0.0800 
    140 H140        2.3481  -19.3057  -51.1529 H         1 UNK         0.0800 
    141 H141        0.9305  -18.3952  -47.5838 H         1 UNK         0.0800 
    142 H142        2.1528  -19.0624  -46.5690 H         1 UNK         0.0800 
    143 H143        1.1664  -21.4365  -47.4095 H         1 UNK         0.0600 
    144 H144        0.7808  -19.9382  -45.0626 H         1 UNK         0.3000 
    145 H145       -1.2781  -22.2715  -43.2884 H         1 UNK         0.0600 
    146 H146        0.5748  -21.9619  -41.6768 H         1 UNK         0.0600 
    147 H147        1.0911  -22.9891  -43.0059 H         1 UNK         0.0600 
    148 H148        1.6108  -21.3102  -42.9434 H         1 UNK         0.0600 
    149 H149       -0.2828  -19.7094  -42.5542 H         1 UNK         0.3000 
    150 H150       -3.0776  -17.8039  -43.7976 H         1 UNK         0.0600 
    151 H151       -3.6848  -18.7188  -41.5482 H         1 UNK         0.0600 
    152 H152       -3.0501  -17.0844  -41.4344 H         1 UNK         0.0600 
    153 H153       -2.0368  -18.4556  -40.9899 H         1 UNK         0.0600 
    154 H154       -0.7352  -16.9333  -42.4810 H         1 UNK         0.3000 
    155 H155        1.3358  -16.5031  -45.3902 H         1 UNK         0.0600 
    156 H156       -0.0096  -14.6115  -43.3889 H         1 UNK         0.0600 
    157 H157       -0.0448  -14.4649  -45.1399 H         1 UNK         0.0600 
    158 H158        1.4752  -14.2759  -44.2709 H         1 UNK         0.0600 
    159 H159        1.9446  -16.0899  -42.6667 H         1 UNK         0.3000 
    160 H160        3.1144  -19.3995  -41.9005 H         1 UNK         0.0600 
    161 H161        4.4701  -16.6759  -42.2855 H         1 UNK         0.0600 
    162 H162        4.9672  -18.1908  -43.0172 H         1 UNK         0.0600 
    163 H163        5.0741  -17.9914  -41.2756 H         1 UNK         0.0600 
    164 H164        2.8271  -16.9621  -40.3905 H         1 UNK         0.3000 
    165 H165       -0.3885  -17.6998  -39.0358 H         1 UNK         0.0600 
    166 H166        0.8817  -17.4464  -36.9216 H         1 UNK         0.0600 
    167 H167        1.2248  -19.0090  -37.6462 H         1 UNK         0.0600 
    168 H168        2.4060  -17.7104  -37.7689 H         1 UNK         0.0600 
    169 H169        1.4718  -15.5679  -38.6027 H         1 UNK         0.3000 
    170 H170        0.3709  -13.4455  -41.2382 H         1 UNK         0.0600 
    171 H171       -1.3372  -13.1301  -39.4450 H         1 UNK         0.0600 
    172 H172       -0.0871  -13.2607  -38.2134 H         1 UNK         0.0600 
    173 H173       -0.0764  -11.9114  -39.3499 H         1 UNK         0.0600 
    174 H174        2.2163  -13.0243  -39.1184 H         1 UNK         0.3000 
    175 H175        4.3845  -12.7990  -39.5679 H         1 UNK         0.0600 
    176 H176        4.4407  -15.1356  -38.6802 H         1 UNK         0.0600 
    177 H177        5.1402  -15.7061  -40.1910 H         1 UNK         0.0600 
    178 H178        6.0410  -14.5978  -39.1643 H         1 UNK         0.0600 
    179 H179        5.5051  -14.0638  -42.0416 H         1 UNK         0.3000 
    180 H180        6.2189  -10.8542  -43.4300 H         1 UNK         0.0600 
    181 H181        7.9993  -13.2180  -42.6414 H         1 UNK         0.0600 
    182 H182        8.2474  -11.5345  -42.2110 H         1 UNK         0.0600 
    183 H183        8.3594  -12.0293  -43.8929 H         1 UNK         0.0600 
    184 H184        5.2353  -12.0815  -44.9260 H         1 UNK         0.3000 
    185 H185        5.6738  -14.3719  -46.5728 H         1 UNK         0.0600 
    186 H186        5.3462  -16.5880  -45.5742 H         1 UNK         0.0600 
    187 H187        3.8641  -16.0672  -44.7892 H         1 UNK         0.0600 
    188 H188        3.9323  -16.2047  -46.5453 H         1 UNK         0.0600 
    189 H189        3.0287  -13.6912  -45.3584 H         1 UNK         0.3000 
    190 H190       -1.3892  -19.0336  -46.6173 H         1 UNK         0.3000 
    191 H191       -2.8496  -19.2582  -49.0142 H         1 UNK         0.0600 
    192 H192       -3.7917  -18.4613  -46.2129 H         1 UNK         0.0600 
    193 H193       -4.6776  -18.1674  -47.7056 H         1 UNK         0.0600 
    194 H194       -3.1288  -17.3808  -47.4376 H         1 UNK         0.0600 
    195 H195       -3.2319  -21.0695  -45.9281 H         1 UNK         0.3000 
    196 H196       -5.4553  -22.6362  -46.7132 H         1 UNK         0.0600 
    197 H197       -4.7536  -24.1083  -44.8171 H         1 UNK         0.0600 
    198 H198       -4.7300  -22.4114  -44.3614 H         1 UNK         0.0600 
    199 H199       -3.2205  -23.2512  -44.7096 H         1 UNK         0.0600 
    200 H200       -1.9317  -23.2645  -47.0552 H         1 UNK         0.3000 
    201 H201       -2.1535  -25.8423  -48.2367 H         1 UNK         0.0600 
    202 H202       -0.0524  -25.0005  -47.2381 H         1 UNK         0.0600 
    203 H203        0.0671  -23.7416  -48.4645 H         1 UNK         0.0600 
    204 H204        0.2159  -25.4346  -48.9196 H         1 UNK         0.0600 
    205 H205       -2.0551  -22.5669  -49.6967 H         1 UNK         0.3000 
    206 H206       -2.1471  -23.4404  -52.4221 H         1 UNK         0.0600 
    207 H207       -1.3782  -21.1933  -51.7937 H         1 UNK         0.0600 
    208 H208       -2.7525  -21.0703  -52.8781 H         1 UNK         0.0600 
    209 H209       -2.9706  -20.7765  -51.1558 H         1 UNK         0.0600 
    210 H210       -4.7422  -22.3971  -50.1458 H         1 UNK         0.3000 
    211 H211       -6.9218  -22.6642  -51.9083 H         1 UNK         0.0600 
    212 H212       -6.8110  -22.8712  -48.8568 H         1 UNK         0.0600 
    213 H213       -8.2741  -22.6202  -49.8021 H         1 UNK         0.0600 
    214 H214       -7.0195  -21.3921  -49.7949 H         1 UNK         0.0600 
    215 H215       -5.1608  -25.1793  -50.2370 H         1 UNK         0.3000 
    216 H216       -7.1665  -27.2386  -50.4036 H         1 UNK         0.0600 
    217 H217       -4.1199  -27.4578  -50.1703 H         1 UNK         0.0600 
    218 H218       -5.2781  -28.7414  -49.8554 H         1 UNK         0.0600 
    219 H219       -5.2410  -27.3251  -48.8161 H         1 UNK         0.0600 
    220 H220       -5.0599  -25.7981  -52.7938 H         1 UNK         0.3000 
    221 H221       -5.3300  -28.0600  -54.6972 H         1 UNK         0.0600 
    222 H222       -3.1196  -26.8619  -54.5196 H         1 UNK         0.0600 
    223 H223       -3.9066  -25.3560  -54.9876 H         1 UNK         0.0600 
    224 H224       -3.8392  -26.7026  -56.1143 H         1 UNK         0.0600 
    225 H225       -6.4778  -27.7835  -56.6474 H         1 UNK         0.3000 
    226 H226       -8.9137  -26.3642  -56.5246 H         1 UNK         0.0600 
    227 H227       -8.6059  -28.4765  -57.7863 H         1 UNK         0.0600 
    228 H228       -9.2038  -27.2201  -58.8568 H         1 UNK         0.0600 
    229 H229       -7.5058  -27.6778  -58.9113 H         1 UNK         0.0600 
    230 H230       -5.8137  -25.3428  -57.7543 H         1 UNK         0.3000 
    231 H231       -6.7462  -23.1545  -59.4071 H         1 UNK         0.0600 
    232 H232       -4.5546  -24.2712  -59.7849 H         1 UNK         0.0600 
    233 H233       -3.9965  -23.7597  -58.1905 H         1 UNK         0.0600 
    234 H234       -4.3230  -22.5649  -59.4394 H         1 UNK         0.0600 
    235 H235       -6.3484  -23.5762  -55.9818 H         1 UNK         0.3000 
    236 H236       -6.3736  -22.3306  -54.1938 H         1 UNK         0.0600 
    237 H237       -7.8442  -20.3809  -54.0806 H         1 UNK         0.0600 
    238 H238       -7.7524  -20.1355  -55.8239 H         1 UNK         0.0600 
    239 H239       -8.5668  -21.5505  -55.1643 H         1 UNK         0.0600 
    240 H240       -6.1655  -19.3001  -54.1154 H         1 UNK         0.3000 
    241 H241       -3.2803  -19.0853  -54.0399 H         1 UNK         0.0600 
    242 H242       -2.4928  -17.5462  -57.1412 H         1 UNK         0.3800 
    243 H243       -1.9070  -18.2916  -55.6813 H         1 UNK         0.3800 
    244 H244       -4.9777  -17.9061  -52.4517 H         1 UNK         0.0800 
    245 H245       -5.2442  -16.7631  -53.7334 H         1 UNK         0.0800 
    246 H246       -3.4179  -16.5637  -50.4415 H         1 UNK         0.0800 
    247 H247       -3.1119  -18.1777  -51.0437 H         1 UNK         0.0800 
@<TRIPOS>BOND
     1    1    2 1    
     2    1  127 1    
     3    1  128 1    
     4    1  129 1    
     5    2    3 2    
     6    2    4 am   BACKBONE|DICT|INTERRES
     7    4    5 1    
     8    4  130 1    
     9    5    6 1    
    10    5   65 1    
    11    5  131 1    
    12    6    7 1    
    13    6  132 1    
    14    6  133 1    
    15    7    8 1    
    16    8    9 1    
    17    8  134 1    
    18    8  135 1    
    19    9   10 ar   
    20    9   14 ar   
    21   10   11 ar   
    22   10  136 1    
    23   11   12 ar   
    24   11  126 1    
    25   12   13 ar   
    26   12  137 1    
    27   13   14 ar   
    28   13   15 1    
    29   14  138 1    
    30   15   16 1    
    31   15  139 1    
    32   15  140 1    
    33   16   17 1    
    34   17   18 1    
    35   17  141 1    
    36   17  142 1    
    37   18   19 1    
    38   18   67 1    
    39   18  143 1    
    40   19   20 am   BACKBONE|DICT|INTERRES
    41   19  144 1    
    42   20   21 2    
    43   20   22 1    
    44   22   23 1    
    45   22   24 1    
    46   22  145 1    
    47   23  146 1    
    48   23  147 1    
    49   23  148 1    
    50   24   25 am   BACKBONE|DICT|INTERRES
    51   24  149 1    
    52   25   26 2    
    53   25   27 1    
    54   27   28 1    
    55   27   29 1    
    56   27  150 1    
    57   28  151 1    
    58   28  152 1    
    59   28  153 1    
    60   29   30 am   BACKBONE|DICT|INTERRES
    61   29  154 1    
    62   30   31 2    
    63   30   32 1    
    64   32   33 1    
    65   32   34 1    
    66   32  155 1    
    67   33  156 1    
    68   33  157 1    
    69   33  158 1    
    70   34   35 am   BACKBONE|DICT|INTERRES
    71   34  159 1    
    72   35   36 2    
    73   35   37 1    
    74   37   38 1    
    75   37   39 1    
    76   37  160 1    
    77   38  161 1    
    78   38  162 1    
    79   38  163 1    
    80   39   40 am   BACKBONE|DICT|INTERRES
    81   39  164 1    
    82   40   41 2    
    83   40   42 1    
    84   42   43 1    
    85   42   44 1    
    86   42  165 1    
    87   43  166 1    
    88   43  167 1    
    89   43  168 1    
    90   44   45 am   BACKBONE|DICT|INTERRES
    91   44  169 1    
    92   45   46 2    
    93   45   47 1    
    94   47   48 1    
    95   47   49 1    
    96   47  170 1    
    97   48  171 1    
    98   48  172 1    
    99   48  173 1    
   100   49   50 am   BACKBONE|DICT|INTERRES
   101   49  174 1    
   102   50   51 2    
   103   50   52 1    
   104   52   53 1    
   105   52   54 1    
   106   52  175 1    
   107   53  176 1    
   108   53  177 1    
   109   53  178 1    
   110   54   55 am   BACKBONE|DICT|INTERRES
   111   54  179 1    
   112   55   56 2    
   113   55   57 1    
   114   57   58 1    
   115   57   59 1    
   116   57  180 1    
   117   58  181 1    
   118   58  182 1    
   119   58  183 1    
   120   59   60 am   BACKBONE|DICT|INTERRES
   121   59  184 1    
   122   60   61 2    
   123   60   62 1    
   124   62   63 1    
   125   62   64 1    
   126   62  185 1    
   127   63  186 1    
   128   63  187 1    
   129   63  188 1    
   130   64   65 am   BACKBONE|DICT|INTERRES
   131   64  189 1    
   132   65   66 2    
   133   67   68 2    
   134   67   69 am   BACKBONE|DICT|INTERRES
   135   69   70 1    
   136   69  190 1    
   137   70   71 1    
   138   70   72 1    
   139   70  191 1    
   140   71  192 1    
   141   71  193 1    
   142   71  194 1    
   143   72   73 2    
   144   72   74 am   BACKBONE|DICT|INTERRES
   145   74   75 1    
   146   74  195 1    
   147   75   76 1    
   148   75   77 1    
   149   75  196 1    
   150   76  197 1    
   151   76  198 1    
   152   76  199 1    
   153   77   78 2    
   154   77   79 am   BACKBONE|DICT|INTERRES
   155   79   80 1    
   156   79  200 1    
   157   80   81 1    
   158   80   82 1    
   159   80  201 1    
   160   81  202 1    
   161   81  203 1    
   162   81  204 1    
   163   82   83 2    
   164   82   84 am   BACKBONE|DICT|INTERRES
   165   84   85 1    
   166   84  205 1    
   167   85   86 1    
   168   85   87 1    
   169   85  206 1    
   170   86  207 1    
   171   86  208 1    
   172   86  209 1    
   173   87   88 2    
   174   87   89 am   BACKBONE|DICT|INTERRES
   175   89   90 1    
   176   89  210 1    
   177   90   91 1    
   178   90   92 1    
   179   90  211 1    
   180   91  212 1    
   181   91  213 1    
   182   91  214 1    
   183   92   93 2    
   184   92   94 am   BACKBONE|DICT|INTERRES
   185   94   95 1    
   186   94  215 1    
   187   95   96 1    
   188   95   97 1    
   189   95  216 1    
   190   96  217 1    
   191   96  218 1    
   192   96  219 1    
   193   97   98 2    
   194   97   99 am   BACKBONE|DICT|INTERRES
   195   99  100 1    
   196   99  220 1    
   197  100  101 1    
   198  100  102 1    
   199  100  221 1    
   200  101  222 1    
   201  101  223 1    
   202  101  224 1    
   203  102  103 2    
   204  102  104 am   BACKBONE|DICT|INTERRES
   205  104  105 1    
   206  104  225 1    
   207  105  106 1    
   208  105  107 1    
   209  105  226 1    
   210  106  227 1    
   211  106  228 1    
   212  106  229 1    
   213  107  108 2    
   214  107  109 am   BACKBONE|DICT|INTERRES
   215  109  110 1    
   216  109  230 1    
   217  110  111 1    
   218  110  112 1    
   219  110  231 1    
   220  111  232 1    
   221  111  233 1    
   222  111  234 1    
   223  112  113 2    
   224  112  114 am   BACKBONE|DICT|INTERRES
   225  114  115 1    
   226  114  235 1    
   227  115  116 1    
   228  115  117 1    
   229  115  236 1    
   230  116  237 1    
   231  116  238 1    
   232  116  239 1    
   233  117  118 2    
   234  117  119 am   BACKBONE|DICT|INTERRES
   235  119  120 1    
   236  119  240 1    
   237  120  121 1    
   238  120  124 1    
   239  120  241 1    
   240  121  122 am   BACKBONE|DICT|INTERRES
   241  121  123 2    
   242  122  242 1    
   243  122  243 1    
   244  124  125 1    
   245  124  244 1    
   246  124  245 1    
   247  125  126 1    
   248  126  246 1    
   249  126  247 1    
@<TRIPOS>SUBSTRUCTURE
     1 UNK         1 GROUP             0       ****    0 ROOT    
