@<TRIPOS>MOLECULE
3R540
247   249    1
SMALL
USER_CHARGES


@<TRIPOS>ATOM
      1 CA         -0.8027  -16.7136  -43.3263 C.3       0 UNK        -0.1800 
      2 C          -1.5936  -15.4207  -43.4414 C.2       0 UNK         0.5000 
      3 O          -1.0644  -14.3515  -43.1358 O.2       0 UNK        -0.5000 
      4 N          -2.8598  -15.5107  -43.8670 N.am      1 UNK        -0.5000 
      5 CA         -3.7447  -14.3573  -44.0310 C.3       1 UNK         0.1400 
      6 C6         -5.2407  -14.7365  -43.8594 C.3       23 UNK        -0.0398 
      7 S7         -6.0321  -15.6496  -45.2336 S.3       23 UNK        -0.2404 
      8 C8         -6.2057  -17.3411  -44.5735 C.3       23 UNK        -0.0205 
      9 C9         -4.9849  -18.1981  -44.8715 C.ar      23 UNK        -0.0193 
     10 C10        -4.6345  -18.4627  -46.1980 C.ar      23 UNK        -0.1150 
     11 C11        -3.5055  -19.2269  -46.4988 C.ar      23 UNK        -0.0193 
     12 C12        -2.7510  -19.7613  -45.4537 C.ar      23 UNK        -0.1150 
     13 C13        -3.1029  -19.5400  -44.1191 C.ar      23 UNK        -0.0193 
     14 C14        -4.2190  -18.7439  -43.8361 C.ar      23 UNK        -0.1150 
     15 C15        -2.2666  -20.1187  -42.9793 C.3       23 UNK        -0.0205 
     16 S16        -1.9754  -21.9176  -43.1118 S.3       23 UNK        -0.2404 
     17 C17        -0.4330  -22.0005  -44.0912 C.3       23 UNK        -0.0398 
     18 CA         -0.5984  -22.8270  -45.3931 C.3       11 UNK         0.1400 
     19 N           0.1709  -22.2691  -46.5106 N.am      11 UNK        -0.5000 
     20 C           0.1343  -22.6811  -47.7857 C.2       10 UNK         0.5000 
     21 O          -0.5718  -23.6132  -48.1714 O.2       10 UNK        -0.5000 
     22 CA          1.0594  -21.9611  -48.7896 C.3       10 UNK         0.1400 
     23 CB          0.2707  -20.9530  -49.6352 C.3       10 UNK        -0.1800 
     24 N           2.1925  -21.2736  -48.1629 N.am      10 UNK        -0.5000 
     25 C           3.2270  -21.8888  -47.5719 C.2       9 UNK         0.5000 
     26 O           3.3463  -23.1129  -47.5084 O.2       9 UNK        -0.5000 
     27 CA          4.2810  -20.9847  -46.9038 C.3       9 UNK         0.1400 
     28 CB          5.2368  -20.3887  -47.9483 C.3       9 UNK        -0.1800 
     29 N           3.6746  -19.9056  -46.1233 N.am      9 UNK        -0.5000 
     30 C           2.9535  -20.0908  -45.0081 C.2       8 UNK         0.5000 
     31 O           2.7900  -21.1868  -44.4718 O.2       8 UNK        -0.5000 
     32 CA          2.2477  -18.8531  -44.4224 C.3       8 UNK         0.1400 
     33 CB          3.1971  -18.0649  -43.5095 C.3       8 UNK        -0.1800 
     34 N           1.6950  -17.9673  -45.4497 N.am      8 UNK        -0.5000 
     35 C           0.7703  -18.3280  -46.3500 C.2       7 UNK         0.5000 
     36 O           0.2871  -19.4530  -46.4064 O.2       7 UNK        -0.5000 
     37 CA          0.3549  -17.2881  -47.3995 C.3       7 UNK         0.1400 
     38 CB         -0.6976  -16.3233  -46.8422 C.3       7 UNK        -0.1800 
     39 N           1.5009  -16.5477  -47.9171 N.am      7 UNK        -0.5000 
     40 C           2.4658  -17.0964  -48.6682 C.2       6 UNK         0.5000 
     41 O           2.4598  -18.2696  -49.0443 O.2       6 UNK        -0.5000 
     42 CA          3.6743  -16.1965  -48.9799 C.3       6 UNK         0.1400 
     43 CB          3.3735  -15.2453  -50.1465 C.3       6 UNK        -0.1800 
     44 N           4.0882  -15.4194  -47.8097 N.am      6 UNK        -0.5000 
     45 C           4.6572  -15.9590  -46.7220 C.2       5 UNK         0.5000 
     46 O           4.9168  -17.1580  -46.6134 O.2       5 UNK        -0.5000 
     47 CA          4.9598  -15.0122  -45.5443 C.3       5 UNK         0.1400 
     48 CB          6.3561  -14.3920  -45.7002 C.3       5 UNK        -0.1800 
     49 N           3.9761  -13.9416  -45.3638 N.am      5 UNK        -0.5000 
     50 C           2.6690  -14.1193  -45.1261 C.2       4 UNK         0.5000 
     51 O           2.1354  -15.2259  -45.0751 O.2       4 UNK        -0.5000 
     52 CA          1.7978  -12.8628  -44.9260 C.3       4 UNK         0.1400 
     53 CB          2.6063  -11.5582  -44.7474 C.3       4 UNK        -0.1800 
     54 N           0.8073  -12.6978  -45.9938 N.am      4 UNK        -0.5000 
     55 C           1.0401  -12.6129  -47.3123 C.2       3 UNK         0.5000 
     56 O           2.1536  -12.7615  -47.8193 O.2       3 UNK        -0.5000 
     57 CA         -0.1625  -12.2996  -48.2252 C.3       3 UNK         0.1400 
     58 CB         -0.2510  -13.2823  -49.4034 C.3       3 UNK        -0.1800 
     59 N          -1.4481  -12.2698  -47.5177 N.am      3 UNK        -0.5000 
     60 C          -1.9997  -11.1758  -46.9785 C.2       2 UNK         0.5000 
     61 O          -1.4327  -10.0837  -46.9316 O.2       2 UNK        -0.5000 
     62 CA         -3.4261  -11.3055  -46.4052 C.3       2 UNK         0.1400 
     63 CB         -4.4595  -11.5580  -47.5212 C.3       2 UNK        -0.1800 
     64 N          -3.5743  -12.2727  -45.3093 N.am      2 UNK        -0.5000 
     65 C          -3.4367  -13.6054  -45.3458 C.2       1 UNK         0.5000 
     66 O          -3.0950  -14.2324  -46.3505 O.2       1 UNK        -0.5000 
     67 C          -0.3309  -24.3261  -45.1450 C.2       11 UNK         0.5000 
     68 O          -1.2153  -25.0160  -44.6366 O.2       11 UNK        -0.5000 
     69 N           0.8434  -24.8162  -45.5717 N.am      12 UNK        -0.5000 
     70 CA          1.2362  -26.2277  -45.5741 C.3       12 UNK         0.1400 
     71 CB          2.6862  -26.3355  -46.0685 C.3       12 UNK        -0.1800 
     72 C           0.3119  -27.1394  -46.4108 C.2       12 UNK         0.5000 
     73 O           0.2481  -28.3385  -46.1400 O.2       12 UNK        -0.5000 
     74 N          -0.4209  -26.5597  -47.3734 N.am      13 UNK        -0.5000 
     75 CA         -1.4665  -27.2209  -48.1581 C.3       13 UNK         0.1400 
     76 CB         -1.4888  -26.6037  -49.5668 C.3       13 UNK        -0.1800 
     77 C          -2.8537  -27.1647  -47.4731 C.2       13 UNK         0.5000 
     78 O          -3.8681  -27.3269  -48.1514 O.2       13 UNK        -0.5000 
     79 N          -2.8747  -26.9409  -46.1497 N.am      14 UNK        -0.5000 
     80 CA         -4.0367  -26.8311  -45.2629 C.3       14 UNK         0.1400 
     81 CB         -4.8742  -28.1281  -45.2610 C.3       14 UNK        -0.1800 
     82 C          -4.8601  -25.5611  -45.5476 C.2       14 UNK         0.5000 
     83 O          -6.0682  -25.6417  -45.7769 O.2       14 UNK        -0.5000 
     84 N          -4.1684  -24.4105  -45.5199 N.am      15 UNK        -0.5000 
     85 CA         -4.6958  -23.0542  -45.7317 C.3       15 UNK         0.1400 
     86 CB         -5.5795  -22.6209  -44.5445 C.3       15 UNK        -0.1800 
     87 C          -5.3947  -22.8944  -47.0974 C.2       15 UNK         0.5000 
     88 O          -6.5409  -22.4448  -47.1686 O.2       15 UNK        -0.5000 
     89 N          -4.6902  -23.2993  -48.1629 N.am      16 UNK        -0.5000 
     90 CA         -5.1645  -23.2947  -49.5465 C.3       16 UNK         0.1400 
     91 CB         -4.2631  -24.2202  -50.3810 C.3       16 UNK        -0.1800 
     92 C          -5.2311  -21.8705  -50.1315 C.2       16 UNK         0.5000 
     93 O          -4.4021  -21.5009  -50.9621 O.2       16 UNK        -0.5000 
     94 N          -6.2149  -21.0828  -49.6809 N.am      17 UNK        -0.5000 
     95 CA         -6.4416  -19.6871  -50.0744 C.3       17 UNK         0.1400 
     96 CB         -7.5932  -19.1155  -49.2345 C.3       17 UNK        -0.1800 
     97 C          -6.7045  -19.4806  -51.5810 C.2       17 UNK         0.5000 
     98 O          -6.4740  -18.3856  -52.0934 O.2       17 UNK        -0.5000 
     99 N          -7.1687  -20.5367  -52.2609 N.am      18 UNK        -0.5000 
    100 CA        -7.3929  -20.5759  -53.7043 C.3       18 UNK         0.1400 
    101 CB        -8.4188  -21.6802  -54.0058 C.3       18 UNK        -0.1800 
    102 C         -6.1061  -20.7996  -54.5270 C.2       18 UNK         0.5000 
    103 O         -6.1439  -20.6028  -55.7430 O.2       18 UNK        -0.5000 
    104 N         -5.0060  -21.2294  -53.8885 N.am      19 UNK        -0.5000 
    105 CA        -3.7262  -21.4824  -54.5521 C.3       19 UNK         0.1400 
    106 CB        -2.8220  -22.3190  -53.6327 C.3       19 UNK        -0.1800 
    107 C         -3.0195  -20.1718  -54.9324 C.2       19 UNK         0.5000 
    108 O         -3.1060  -19.1882  -54.1930 O.2       19 UNK        -0.5000 
    109 N         -2.2776  -20.2012  -56.0469 N.am      20 UNK        -0.5000 
    110 CA        -1.5132  -19.0669  -56.5778 C.3       20 UNK         0.1400 
    111 CB        -0.9656  -19.4386  -57.9644 C.3       20 UNK        -0.1800 
    112 C         -0.3714  -18.5927  -55.6560 C.2       20 UNK         0.5000 
    113 O          0.0190  -17.4273  -55.7290 O.2       20 UNK        -0.5000 
    114 N          0.1307  -19.4947  -54.8003 N.am      21 UNK        -0.5000 
    115 CA         1.1137  -19.1940  -53.7599 C.3       21 UNK         0.1400 
    116 CB         1.6909  -20.5099  -53.2154 C.3       21 UNK        -0.1800 
    117 C          0.5245  -18.3402  -52.6200 C.2       21 UNK         0.5000 
    118 O          1.2212  -17.4690  -52.1010 O.2       21 UNK        -0.5000 
    119 N         -0.7433  -18.5947  -52.2677 N.am      22 UNK        -0.5000 
    120 CA        -1.5031  -17.8008  -51.2932 C.3       22 UNK         0.1400 
    121 C         -2.1010  -16.5169  -51.9330 C.2       22 UNK         0.5000 
    122 N         -2.6880  -16.6026  -53.1207 N.am      22 UNK        -0.7600 
    123 O         -2.0185  -15.4348  -51.3615 O.2       22 UNK        -0.5000 
    124 C124       -2.5966  -18.6530  -50.5978 C.3       23 UNK        -0.0398 
    125 S125       -3.0417  -17.9903  -48.9567 S.3       23 UNK        -0.2404 
    126 C126       -3.1090  -19.5031  -47.9429 C.3       23 UNK        -0.0205 
    127 H127        0.2548  -16.5240  -43.5054 H         1 UNK         0.0600 
    128 H128       -1.1411  -17.4515  -44.0516 H         1 UNK         0.0600 
    129 H129       -0.9089  -17.1323  -42.3260 H         1 UNK         0.0600 
    130 H130       -3.2350  -16.3977  -44.1737 H         1 UNK         0.3000 
    131 H131       -3.5215  -13.6680  -43.2132 H         1 UNK         0.0600 
    132 H132       -5.3710  -15.2931  -42.9307 H         1 UNK         0.0800 
    133 H133       -5.8207  -13.8227  -43.7210 H         1 UNK         0.0800 
    134 H134       -6.4216  -17.3110  -43.5046 H         1 UNK         0.0800 
    135 H135       -7.0733  -17.8065  -45.0432 H         1 UNK         0.0800 
    136 H136       -5.2320  -18.0519  -46.9997 H         1 UNK         0.1150 
    137 H137       -1.8887  -20.3607  -45.6874 H         1 UNK         0.1150 
    138 H138       -4.4946  -18.5509  -42.8087 H         1 UNK         0.1150 
    139 H139       -1.3145  -19.5923  -42.9176 H         1 UNK         0.0800 
    140 H140       -2.7674  -19.9397  -42.0268 H         1 UNK         0.0800 
    141 H141       -0.1268  -20.9833  -44.3276 H         1 UNK         0.0800 
    142 H142        0.3688  -22.3925  -43.4623 H         1 UNK         0.0800 
    143 H143       -1.6358  -22.7569  -45.7160 H         1 UNK         0.0600 
    144 H144        0.7005  -21.4265  -46.3154 H         1 UNK         0.3000 
    145 H145        1.4584  -22.7239  -49.4612 H         1 UNK         0.0600 
    146 H146       -0.5708  -21.4315  -50.1378 H         1 UNK         0.0600 
    147 H147       -0.1190  -20.1379  -49.0280 H         1 UNK         0.0600 
    148 H148        0.9032  -20.5091  -50.4022 H         1 UNK         0.0600 
    149 H149        2.1763  -20.2601  -48.1870 H         1 UNK         0.3000 
    150 H150        4.8680  -21.6045  -46.2229 H         1 UNK         0.0600 
    151 H151        5.7202  -21.1751  -48.5292 H         1 UNK         0.0600 
    152 H152        6.0243  -19.8041  -47.4721 H         1 UNK         0.0600 
    153 H153        4.7156  -19.7356  -48.6487 H         1 UNK         0.0600 
    154 H154        3.7992  -18.9616  -46.4719 H         1 UNK         0.3000 
    155 H155        1.4121  -19.2022  -43.8133 H         1 UNK         0.0600 
    156 H156        2.7026  -17.1953  -43.0764 H         1 UNK         0.0600 
    157 H157        3.5460  -18.6861  -42.6837 H         1 UNK         0.0600 
    158 H158        4.0767  -17.7183  -44.0502 H         1 UNK         0.0600 
    159 H159        2.0004  -16.9962  -45.4305 H         1 UNK         0.3000 
    160 H160       -0.0986  -17.8322  -48.2292 H         1 UNK         0.0600 
    161 H161       -0.2762  -15.6224  -46.1230 H         1 UNK         0.0600 
    162 H162       -1.5033  -16.8667  -46.3475 H         1 UNK         0.0600 
    163 H163       -1.1653  -15.7492  -47.6390 H         1 UNK         0.0600 
    164 H164        1.6245  -15.6024  -47.5857 H         1 UNK         0.3000 
    165 H165        4.5043  -16.8422  -49.2750 H         1 UNK         0.0600 
    166 H166        4.2439  -14.6383  -50.3959 H         1 UNK         0.0600 
    167 H167        3.0987  -15.8030  -51.0422 H         1 UNK         0.0600 
    168 H168        2.5498  -14.5710  -49.9143 H         1 UNK         0.0600 
    169 H169        3.8620  -14.4327  -47.8069 H         1 UNK         0.3000 
    170 H170        4.9581  -15.6115  -44.6325 H         1 UNK         0.0600 
    171 H171        7.1169  -15.1657  -45.8129 H         1 UNK         0.0600 
    172 H172        6.4134  -13.7449  -46.5764 H         1 UNK         0.0600 
    173 H173        6.6252  -13.7992  -44.8258 H         1 UNK         0.0600 
    174 H174        4.3248  -12.9961  -45.4203 H         1 UNK         0.3000 
    175 H175        1.2363  -13.0302  -44.0060 H         1 UNK         0.0600 
    176 H176        3.1705  -11.2944  -45.6427 H         1 UNK         0.0600 
    177 H177        1.9444  -10.7221  -44.5212 H         1 UNK         0.0600 
    178 H178        3.3101  -11.6396  -43.9180 H         1 UNK         0.0600 
    179 H179       -0.1512  -12.6125  -45.6886 H         1 UNK         0.3000 
    180 H180        0.0254  -11.3118  -48.6509 H         1 UNK         0.0600 
    181 H181       -0.2861  -14.3191  -49.0757 H         1 UNK         0.0600 
    182 H182        0.6128  -13.1795  -50.0602 H         1 UNK         0.0600 
    183 H183       -1.1362  -13.0929  -50.0107 H         1 UNK         0.0600 
    184 H184       -1.9634  -13.1438  -47.4397 H         1 UNK         0.3000 
    185 H185       -3.6677  -10.3360  -45.9663 H         1 UNK         0.0600 
    186 H186       -4.4002  -10.7845  -48.2878 H         1 UNK         0.0600 
    187 H187       -4.3060  -12.5172  -48.0164 H         1 UNK         0.0600 
    188 H188       -5.4753  -11.5461  -47.1260 H         1 UNK         0.0600 
    189 H189       -3.8219  -11.8546  -44.4231 H         1 UNK         0.3000 
    190 H190        1.4990  -24.1720  -45.9939 H         1 UNK         0.3000 
    191 H191        1.1961  -26.5824  -44.5423 H         1 UNK         0.0600 
    192 H192        3.3627  -25.7578  -45.4385 H         1 UNK         0.0600 
    193 H193        2.7887  -25.9708  -47.0916 H         1 UNK         0.0600 
    194 H194        3.0308  -27.3703  -46.0516 H         1 UNK         0.0600 
    195 H195       -0.3224  -25.5617  -47.5294 H         1 UNK         0.3000 
    196 H196       -1.2170  -28.2780  -48.2690 H         1 UNK         0.0600 
    197 H197       -2.2081  -27.1095  -50.2118 H         1 UNK         0.0600 
    198 H198       -0.5135  -26.6842  -50.0469 H         1 UNK         0.0600 
    199 H199       -1.7580  -25.5490  -49.5360 H         1 UNK         0.0600 
    200 H200       -1.9876  -26.7530  -45.7000 H         1 UNK         0.3000 
    201 H201       -3.6344  -26.7101  -44.2558 H         1 UNK         0.0600 
    202 H202       -4.2545  -28.9969  -45.0388 H         1 UNK         0.0600 
    203 H203       -5.3657  -28.3022  -46.2183 H         1 UNK         0.0600 
    204 H204       -5.6545  -28.0833  -44.5005 H         1 UNK         0.0600 
    205 H205       -3.1828  -24.4771  -45.2952 H         1 UNK         0.3000 
    206 H206       -3.8422  -22.3796  -45.7533 H         1 UNK         0.0600 
    207 H207       -5.0396  -22.7044  -43.6014 H         1 UNK         0.0600 
    208 H208       -5.8849  -21.5788  -44.6488 H         1 UNK         0.0600 
    209 H209       -6.4848  -23.2239  -44.4691 H         1 UNK         0.0600 
    210 H210       -3.7573  -23.6559  -48.0171 H         1 UNK         0.3000 
    211 H211       -6.1745  -23.7093  -49.5683 H         1 UNK         0.0600 
    212 H212       -4.6085  -24.2724  -51.4140 H         1 UNK         0.0600 
    213 H213       -4.2702  -25.2366  -49.9876 H         1 UNK         0.0600 
    214 H214       -3.2302  -23.8697  -50.3973 H         1 UNK         0.0600 
    215 H215       -6.7937  -21.4453  -48.9302 H         1 UNK         0.3000 
    216 H216       -5.5408  -19.1259  -49.8311 H         1 UNK         0.0600 
    217 H217       -8.5248  -19.6542  -49.4113 H         1 UNK         0.0600 
    218 H218       -7.7683  -18.0656  -49.4732 H         1 UNK         0.0600 
    219 H219       -7.3687  -19.1716  -48.1689 H         1 UNK         0.0600 
    220 H220       -7.3352  -21.3924  -51.7527 H         1 UNK         0.3000 
    221 H221       -7.8194  -19.6213  -54.0196 H         1 UNK         0.0600 
    222 H222       -8.0496  -22.6636  -53.7121 H         1 UNK         0.0600 
    223 H223       -9.3570  -21.5019  -53.4798 H         1 UNK         0.0600 
    224 H224       -8.6493  -21.7212  -55.0712 H         1 UNK         0.0600 
    225 H225       -5.0073  -21.3029  -52.8769 H         1 UNK         0.3000 
    226 H226       -3.9194  -22.0587  -55.4595 H         1 UNK         0.0600 
    227 H227       -3.3237  -23.2292  -53.3050 H         1 UNK         0.0600 
    228 H228       -1.9109  -22.6205  -54.1505 H         1 UNK         0.0600 
    229 H229       -2.5205  -21.7628  -52.7444 H         1 UNK         0.0600 
    230 H230       -2.2462  -21.0519  -56.5905 H         1 UNK         0.3000 
    231 H231       -2.2028  -18.2284  -56.6960 H         1 UNK         0.0600 
    232 H232       -0.4141  -18.6059  -58.4032 H         1 UNK         0.0600 
    233 H233       -1.7722  -19.6901  -58.6534 H         1 UNK         0.0600 
    234 H234       -0.2871  -20.2911  -57.9139 H         1 UNK         0.0600 
    235 H235       -0.2316  -20.4356  -54.8304 H         1 UNK         0.3000 
    236 H236        1.9302  -18.6267  -54.2120 H         1 UNK         0.0600 
    237 H237        2.1958  -21.0727  -54.0006 H         1 UNK         0.0600 
    238 H238        2.4246  -20.3190  -52.4308 H         1 UNK         0.0600 
    239 H239        0.9137  -21.1479  -52.7929 H         1 UNK         0.0600 
    240 H240       -1.2751  -19.2611  -52.8086 H         1 UNK         0.3000 
    241 H241       -0.8000  -17.4765  -50.5229 H         1 UNK         0.0600 
    242 H242       -2.8114  -17.5068  -53.5727 H         1 UNK         0.3800 
    243 H243       -3.0714  -15.7741  -53.5449 H         1 UNK         0.3800 
    244 H244       -3.4931  -18.7334  -51.2156 H         1 UNK         0.0800 
    245 H245       -2.2438  -19.6757  -50.4663 H         1 UNK         0.0800 
    246 H246       -3.8290  -20.1964  -48.3701 H         1 UNK         0.0800 
    247 H247       -2.1392  -19.9982  -47.9793 H         1 UNK         0.0800 
@<TRIPOS>BOND
     1    1    2 1    
     2    1  127 1    
     3    1  128 1    
     4    1  129 1    
     5    2    3 2    
     6    2    4 am   BACKBONE|DICT|INTERRES
     7    4    5 1    
     8    4  130 1    
     9    5    6 1    
    10    5   65 1    
    11    5  131 1    
    12    6    7 1    
    13    6  132 1    
    14    6  133 1    
    15    7    8 1    
    16    8    9 1    
    17    8  134 1    
    18    8  135 1    
    19    9   10 ar   
    20    9   14 ar   
    21   10   11 ar   
    22   10  136 1    
    23   11   12 ar   
    24   11  126 1    
    25   12   13 ar   
    26   12  137 1    
    27   13   14 ar   
    28   13   15 1    
    29   14  138 1    
    30   15   16 1    
    31   15  139 1    
    32   15  140 1    
    33   16   17 1    
    34   17   18 1    
    35   17  141 1    
    36   17  142 1    
    37   18   19 1    
    38   18   67 1    
    39   18  143 1    
    40   19   20 am   BACKBONE|DICT|INTERRES
    41   19  144 1    
    42   20   21 2    
    43   20   22 1    
    44   22   23 1    
    45   22   24 1    
    46   22  145 1    
    47   23  146 1    
    48   23  147 1    
    49   23  148 1    
    50   24   25 am   BACKBONE|DICT|INTERRES
    51   24  149 1    
    52   25   26 2    
    53   25   27 1    
    54   27   28 1    
    55   27   29 1    
    56   27  150 1    
    57   28  151 1    
    58   28  152 1    
    59   28  153 1    
    60   29   30 am   BACKBONE|DICT|INTERRES
    61   29  154 1    
    62   30   31 2    
    63   30   32 1    
    64   32   33 1    
    65   32   34 1    
    66   32  155 1    
    67   33  156 1    
    68   33  157 1    
    69   33  158 1    
    70   34   35 am   BACKBONE|DICT|INTERRES
    71   34  159 1    
    72   35   36 2    
    73   35   37 1    
    74   37   38 1    
    75   37   39 1    
    76   37  160 1    
    77   38  161 1    
    78   38  162 1    
    79   38  163 1    
    80   39   40 am   BACKBONE|DICT|INTERRES
    81   39  164 1    
    82   40   41 2    
    83   40   42 1    
    84   42   43 1    
    85   42   44 1    
    86   42  165 1    
    87   43  166 1    
    88   43  167 1    
    89   43  168 1    
    90   44   45 am   BACKBONE|DICT|INTERRES
    91   44  169 1    
    92   45   46 2    
    93   45   47 1    
    94   47   48 1    
    95   47   49 1    
    96   47  170 1    
    97   48  171 1    
    98   48  172 1    
    99   48  173 1    
   100   49   50 am   BACKBONE|DICT|INTERRES
   101   49  174 1    
   102   50   51 2    
   103   50   52 1    
   104   52   53 1    
   105   52   54 1    
   106   52  175 1    
   107   53  176 1    
   108   53  177 1    
   109   53  178 1    
   110   54   55 am   BACKBONE|DICT|INTERRES
   111   54  179 1    
   112   55   56 2    
   113   55   57 1    
   114   57   58 1    
   115   57   59 1    
   116   57  180 1    
   117   58  181 1    
   118   58  182 1    
   119   58  183 1    
   120   59   60 am   BACKBONE|DICT|INTERRES
   121   59  184 1    
   122   60   61 2    
   123   60   62 1    
   124   62   63 1    
   125   62   64 1    
   126   62  185 1    
   127   63  186 1    
   128   63  187 1    
   129   63  188 1    
   130   64   65 am   BACKBONE|DICT|INTERRES
   131   64  189 1    
   132   65   66 2    
   133   67   68 2    
   134   67   69 am   BACKBONE|DICT|INTERRES
   135   69   70 1    
   136   69  190 1    
   137   70   71 1    
   138   70   72 1    
   139   70  191 1    
   140   71  192 1    
   141   71  193 1    
   142   71  194 1    
   143   72   73 2    
   144   72   74 am   BACKBONE|DICT|INTERRES
   145   74   75 1    
   146   74  195 1    
   147   75   76 1    
   148   75   77 1    
   149   75  196 1    
   150   76  197 1    
   151   76  198 1    
   152   76  199 1    
   153   77   78 2    
   154   77   79 am   BACKBONE|DICT|INTERRES
   155   79   80 1    
   156   79  200 1    
   157   80   81 1    
   158   80   82 1    
   159   80  201 1    
   160   81  202 1    
   161   81  203 1    
   162   81  204 1    
   163   82   83 2    
   164   82   84 am   BACKBONE|DICT|INTERRES
   165   84   85 1    
   166   84  205 1    
   167   85   86 1    
   168   85   87 1    
   169   85  206 1    
   170   86  207 1    
   171   86  208 1    
   172   86  209 1    
   173   87   88 2    
   174   87   89 am   BACKBONE|DICT|INTERRES
   175   89   90 1    
   176   89  210 1    
   177   90   91 1    
   178   90   92 1    
   179   90  211 1    
   180   91  212 1    
   181   91  213 1    
   182   91  214 1    
   183   92   93 2    
   184   92   94 am   BACKBONE|DICT|INTERRES
   185   94   95 1    
   186   94  215 1    
   187   95   96 1    
   188   95   97 1    
   189   95  216 1    
   190   96  217 1    
   191   96  218 1    
   192   96  219 1    
   193   97   98 2    
   194   97   99 am   BACKBONE|DICT|INTERRES
   195   99  100 1    
   196   99  220 1    
   197  100  101 1    
   198  100  102 1    
   199  100  221 1    
   200  101  222 1    
   201  101  223 1    
   202  101  224 1    
   203  102  103 2    
   204  102  104 am   BACKBONE|DICT|INTERRES
   205  104  105 1    
   206  104  225 1    
   207  105  106 1    
   208  105  107 1    
   209  105  226 1    
   210  106  227 1    
   211  106  228 1    
   212  106  229 1    
   213  107  108 2    
   214  107  109 am   BACKBONE|DICT|INTERRES
   215  109  110 1    
   216  109  230 1    
   217  110  111 1    
   218  110  112 1    
   219  110  231 1    
   220  111  232 1    
   221  111  233 1    
   222  111  234 1    
   223  112  113 2    
   224  112  114 am   BACKBONE|DICT|INTERRES
   225  114  115 1    
   226  114  235 1    
   227  115  116 1    
   228  115  117 1    
   229  115  236 1    
   230  116  237 1    
   231  116  238 1    
   232  116  239 1    
   233  117  118 2    
   234  117  119 am   BACKBONE|DICT|INTERRES
   235  119  120 1    
   236  119  240 1    
   237  120  121 1    
   238  120  124 1    
   239  120  241 1    
   240  121  122 am   BACKBONE|DICT|INTERRES
   241  121  123 2    
   242  122  242 1    
   243  122  243 1    
   244  124  125 1    
   245  124  244 1    
   246  124  245 1    
   247  125  126 1    
   248  126  246 1    
   249  126  247 1    
@<TRIPOS>SUBSTRUCTURE
     1 UNK         1 GROUP             0       ****    0 ROOT    
