@<TRIPOS>MOLECULE
3R540
247   249    1
SMALL
USER_CHARGES


@<TRIPOS>ATOM
      1 CA         -3.1939  -13.8549  -47.3718 C.3       0 UNK        -0.1800 
      2 C          -2.0909  -13.2359  -48.2170 C.2       0 UNK         0.5000 
      3 O          -2.3784  -12.4589  -49.1277 O.2       0 UNK        -0.5000 
      4 N          -0.8263  -13.5470  -47.9053 N.am      1 UNK        -0.5000 
      5 CA          0.3635  -12.9598  -48.5321 C.3       1 UNK         0.1400 
      6 C6          1.5732  -13.9300  -48.4641 C.3       23 UNK        -0.0398 
      7 S7          1.6162  -15.0853  -49.8715 S.3       23 UNK        -0.2404 
      8 C8          0.6688  -16.5103  -49.2553 C.3       23 UNK        -0.0205 
      9 C9          0.9284  -17.7360  -50.1183 C.ar      23 UNK        -0.0193 
     10 C10         0.4451  -17.7881  -51.4300 C.ar      23 UNK        -0.1150 
     11 C11         0.7307  -18.8798  -52.2551 C.ar      23 UNK        -0.0193 
     12 C12         1.4969  -19.9335  -51.7425 C.ar      23 UNK        -0.1150 
     13 C13         1.9515  -19.9183  -50.4213 C.ar      23 UNK        -0.0193 
     14 C14         1.6758  -18.8062  -49.6179 C.ar      23 UNK        -0.1150 
     15 C15         2.7719  -21.0946  -49.8991 C.3       23 UNK        -0.0205 
     16 S16         2.2960  -21.6490  -48.2289 S.3       23 UNK        -0.2404 
     17 C17         0.5402  -22.0949  -48.4541 C.3       23 UNK        -0.0398 
     18 CA          0.0814  -23.1442  -47.4165 C.3       11 UNK         0.1400 
     19 N           0.1598  -22.6540  -46.0374 N.am      11 UNK        -0.5000 
     20 C           0.0830  -23.4425  -44.9571 C.2       10 UNK         0.5000 
     21 O          -0.0489  -24.6650  -45.0148 O.2       10 UNK        -0.5000 
     22 CA          0.1098  -22.7503  -43.5836 C.3       10 UNK         0.1400 
     23 CB          1.5400  -22.3403  -43.2024 C.3       10 UNK        -0.1800 
     24 N          -0.7776  -21.5882  -43.5235 N.am      10 UNK        -0.5000 
     25 C          -2.1110  -21.6500  -43.6488 C.2       9 UNK         0.5000 
     26 O          -2.7337  -22.7017  -43.7914 O.2       9 UNK        -0.5000 
     27 CA         -2.8794  -20.3163  -43.6573 C.3       9 UNK         0.1400 
     28 CB         -3.0827  -19.7944  -42.2275 C.3       9 UNK        -0.1800 
     29 N          -2.2298  -19.2884  -44.4700 N.am      9 UNK        -0.5000 
     30 C          -2.0204  -19.3799  -45.7910 C.2       8 UNK         0.5000 
     31 O          -2.3832  -20.3324  -46.4788 O.2       8 UNK        -0.5000 
     32 CA         -1.2235  -18.2384  -46.4450 C.3       8 UNK         0.1400 
     33 CB         -2.1038  -16.9990  -46.6395 C.3       8 UNK        -0.1800 
     34 N          -0.0338  -17.8722  -45.6769 N.am      8 UNK        -0.5000 
     35 C           0.9711  -18.7139  -45.3969 C.2       7 UNK         0.5000 
     36 O           1.0215  -19.8780  -45.7877 O.2       7 UNK        -0.5000 
     37 CA          2.0695  -18.1795  -44.4667 C.3       7 UNK         0.1400 
     38 CB          3.0285  -17.2550  -45.2317 C.3       7 UNK        -0.1800 
     39 N           1.5005  -17.4777  -43.3147 N.am      7 UNK        -0.5000 
     40 C           0.7989  -18.0794  -42.3413 C.2       6 UNK         0.5000 
     41 O           0.5999  -19.2924  -42.2921 O.2       6 UNK        -0.5000 
     42 CA          0.1789  -17.1707  -41.2642 C.3       6 UNK         0.1400 
     43 CB          1.1971  -16.8774  -40.1526 C.3       6 UNK        -0.1800 
     44 N          -0.3222  -15.9084  -41.8080 N.am      6 UNK        -0.5000 
     45 C          -1.3349  -15.7998  -42.6806 C.2       5 UNK         0.5000 
     46 O          -1.9864  -16.7583  -43.0924 O.2       5 UNK        -0.5000 
     47 CA         -1.6319  -14.3895  -43.2230 C.3       5 UNK         0.1400 
     48 CB         -2.6674  -13.6730  -42.3454 C.3       5 UNK        -0.1800 
     49 N          -0.4254  -13.5671  -43.3203 N.am      5 UNK        -0.5000 
     50 C           0.5916  -13.8014  -44.1578 C.2       4 UNK         0.5000 
     51 O           0.5670  -14.6784  -45.0259 O.2       4 UNK        -0.5000 
     52 CA          1.8341  -12.9124  -43.9574 C.3       4 UNK         0.1400 
     53 CB          3.0396  -13.3514  -44.8051 C.3       4 UNK        -0.1800 
     54 N           1.5304  -11.5066  -44.2238 N.am      4 UNK        -0.5000 
     55 C           0.9787  -10.6615  -43.3398 C.2       3 UNK         0.5000 
     56 O           0.6458  -11.0016  -42.2031 O.2       3 UNK        -0.5000 
     57 CA          0.7501   -9.2025  -43.7836 C.3       3 UNK         0.1400 
     58 CB          1.8952   -8.3068  -43.2869 C.3       3 UNK        -0.1800 
     59 N           0.6243   -9.0500  -45.2327 N.am      3 UNK        -0.5000 
     60 C          -0.4383   -9.4383  -45.9485 C.2       2 UNK         0.5000 
     61 O          -1.4585   -9.9172  -45.4507 O.2       2 UNK        -0.5000 
     62 CA         -0.3429   -9.3104  -47.4828 C.3       2 UNK         0.1400 
     63 CB          0.8116   -8.4107  -47.9804 C.3       2 UNK        -0.1800 
     64 N          -0.2750  -10.6360  -48.1016 N.am      2 UNK        -0.5000 
     65 C           0.6440  -11.5874  -47.8806 C.2       1 UNK         0.5000 
     66 O           1.6343  -11.4236  -47.1661 O.2       1 UNK        -0.5000 
     67 C          -1.3170  -23.7051  -47.7497 C.2       11 UNK         0.5000 
     68 O          -1.4016  -24.7071  -48.4593 O.2       11 UNK        -0.5000 
     69 N          -2.3827  -23.1011  -47.2032 N.am      12 UNK        -0.5000 
     70 CA         -3.7524  -23.6100  -47.2940 C.3       12 UNK         0.1400 
     71 CB         -4.7477  -22.5594  -46.7807 C.3       12 UNK        -0.1800 
     72 C          -3.9360  -24.9480  -46.5574 C.2       12 UNK         0.5000 
     73 O          -4.5253  -25.8691  -47.1222 O.2       12 UNK        -0.5000 
     74 N          -3.3926  -25.0533  -45.3360 N.am      13 UNK        -0.5000 
     75 CA         -3.3971  -26.2743  -44.5239 C.3       13 UNK         0.1400 
     76 CB         -2.8621  -25.9605  -43.1187 C.3       13 UNK        -0.1800 
     77 C          -2.6029  -27.4281  -45.1664 C.2       13 UNK         0.5000 
     78 O          -3.0231  -28.5820  -45.0757 O.2       13 UNK        -0.5000 
     79 N          -1.4947  -27.0902  -45.8385 N.am      14 UNK        -0.5000 
     80 CA         -0.6774  -28.0095  -46.6327 C.3       14 UNK         0.1400 
     81 CB          0.6985  -27.3643  -46.8649 C.3       14 UNK        -0.1800 
     82 C          -1.3156  -28.3992  -47.9836 C.2       14 UNK         0.5000 
     83 O          -0.8098  -29.3117  -48.6379 O.2       14 UNK        -0.5000 
     84 N          -2.3831  -27.6926  -48.3890 N.am      15 UNK        -0.5000 
     85 CA         -3.0811  -27.7767  -49.6777 C.3       15 UNK         0.1400 
     86 CB         -3.7580  -29.1514  -49.8561 C.3       15 UNK        -0.1800 
     87 C          -2.1885  -27.3779  -50.8740 C.2       15 UNK         0.5000 
     88 O          -2.3848  -27.8672  -51.9878 O.2       15 UNK        -0.5000 
     89 N          -1.2253  -26.4851  -50.6179 N.am      16 UNK        -0.5000 
     90 CA         -0.2924  -25.9317  -51.5960 C.3       16 UNK         0.1400 
     91 CB          1.0496  -25.6714  -50.8917 C.3       16 UNK        -0.1800 
     92 C          -0.8225  -24.6326  -52.2301 C.2       16 UNK         0.5000 
     93 O          -0.3263  -24.2356  -53.2844 O.2       16 UNK        -0.5000 
     94 N          -1.8044  -23.9947  -51.5826 N.am      17 UNK        -0.5000 
     95 CA         -2.4229  -22.7415  -51.9968 C.3       17 UNK         0.1400 
     96 CB         -1.7386  -21.5835  -51.2524 C.3       17 UNK        -0.1800 
     97 C          -3.9166  -22.7652  -51.6569 C.2       17 UNK         0.5000 
     98 O          -4.3564  -23.5802  -50.8430 O.2       17 UNK        -0.5000 
     99 N          -4.6527  -21.8156  -52.2360 N.am      18 UNK        -0.5000 
    100 CA        -5.9990  -21.4227  -51.8410 C.3       18 UNK         0.1400 
    101 CB        -6.8807  -21.3206  -53.0975 C.3       18 UNK        -0.1800 
    102 C         -5.8638  -20.0903  -51.0840 C.2       18 UNK         0.5000 
    103 O         -6.2786  -19.0396  -51.5790 O.2       18 UNK        -0.5000 
    104 N         -5.2080  -20.1649  -49.9163 N.am      19 UNK        -0.5000 
    105 CA        -4.7816  -19.0552  -49.0619 C.3       19 UNK         0.1400 
    106 CB        -5.9945  -18.3462  -48.4202 C.3       19 UNK        -0.1800 
    107 C         -3.8195  -18.1117  -49.8091 C.2       19 UNK         0.5000 
    108 O         -2.6471  -18.4498  -49.9583 O.2       19 UNK        -0.5000 
    109 N         -4.3207  -16.9531  -50.2524 N.am      20 UNK        -0.5000 
    110 CA        -3.5647  -15.9664  -51.0216 C.3       20 UNK         0.1400 
    111 CB        -4.3244  -14.6307  -50.9862 C.3       20 UNK        -0.1800 
    112 C         -3.3337  -16.3863  -52.4856 C.2       20 UNK         0.5000 
    113 O         -2.3586  -15.9401  -53.0912 O.2       20 UNK        -0.5000 
    114 N         -4.2508  -17.1874  -53.0429 N.am      21 UNK        -0.5000 
    115 CA        -4.2635  -17.5622  -54.4533 C.3       21 UNK         0.1400 
    116 CB        -5.7229  -17.6475  -54.9257 C.3       21 UNK        -0.1800 
    117 C         -3.5434  -18.8981  -54.6848 C.2       21 UNK         0.5000 
    118 O         -3.6534  -19.8082  -53.8622 O.2       21 UNK        -0.5000 
    119 N         -2.8657  -19.0001  -55.8312 N.am      22 UNK        -0.5000 
    120 CA        -2.1965  -20.2133  -56.3314 C.3       22 UNK         0.1400 
    121 C         -2.5189  -20.4949  -57.8305 C.2       22 UNK         0.5000 
    122 N         -3.4974  -19.8354  -58.4409 N.am      22 UNK        -0.7600 
    123 O         -1.8882  -21.3428  -58.4560 O.2       22 UNK        -0.5000 
    124 C124       -0.6690  -20.1888  -56.0481 C.3       23 UNK        -0.0398 
    125 S125       -0.2814  -20.5172  -54.2986 S.3       23 UNK        -0.2404 
    126 C126        0.2520  -18.8773  -53.7064 C.3       23 UNK        -0.0205 
    127 H127       -4.0199  -13.1534  -47.2546 H         1 UNK         0.0600 
    128 H128       -2.8330  -14.1130  -46.3778 H         1 UNK         0.0600 
    129 H129       -3.5767  -14.7573  -47.8471 H         1 UNK         0.0600 
    130 H130       -0.6402  -14.1402  -47.1077 H         1 UNK         0.3000 
    131 H131        0.1543  -12.7555  -49.5847 H         1 UNK         0.0600 
    132 H132        1.5956  -14.4812  -47.5237 H         1 UNK         0.0800 
    133 H133        2.5184  -13.3865  -48.5123 H         1 UNK         0.0800 
    134 H134        0.9364  -16.7100  -48.2168 H         1 UNK         0.0800 
    135 H135       -0.3954  -16.2734  -49.2709 H         1 UNK         0.0800 
    136 H136       -0.1307  -16.9586  -51.8158 H         1 UNK         0.1150 
    137 H137        1.7376  -20.7762  -52.3747 H         1 UNK         0.1150 
    138 H138        2.0483  -18.7734  -48.6037 H         1 UNK         0.1150 
    139 H139        2.6982  -21.9467  -50.5768 H         1 UNK         0.0800 
    140 H140        3.8227  -20.8035  -49.8834 H         1 UNK         0.0800 
    141 H141       -0.0668  -21.1896  -48.3892 H         1 UNK         0.0800 
    142 H142        0.4188  -22.4867  -49.4648 H         1 UNK         0.0800 
    143 H143        0.7704  -23.9882  -47.4918 H         1 UNK         0.0600 
    144 H144        0.3178  -21.6560  -45.9168 H         1 UNK         0.3000 
    145 H145       -0.2405  -23.4729  -42.8437 H         1 UNK         0.0600 
    146 H146        1.5763  -21.9341  -42.1915 H         1 UNK         0.0600 
    147 H147        2.2132  -23.1979  -43.2328 H         1 UNK         0.0600 
    148 H148        1.9389  -21.5853  -43.8801 H         1 UNK         0.0600 
    149 H149       -0.3367  -20.6873  -43.3663 H         1 UNK         0.3000 
    150 H150       -3.8635  -20.5046  -44.0909 H         1 UNK         0.0600 
    151 H151       -3.5898  -20.5362  -41.6093 H         1 UNK         0.0600 
    152 H152       -3.6942  -18.8919  -42.2208 H         1 UNK         0.0600 
    153 H153       -2.1336  -19.5584  -41.7462 H         1 UNK         0.0600 
    154 H154       -1.9412  -18.4428  -43.9853 H         1 UNK         0.3000 
    155 H155       -0.8965  -18.5847  -47.4282 H         1 UNK         0.0600 
    156 H156       -2.4077  -16.5617  -45.6895 H         1 UNK         0.0600 
    157 H157       -3.0131  -17.2429  -47.1866 H         1 UNK         0.0600 
    158 H158       -1.5743  -16.2367  -47.2065 H         1 UNK         0.0600 
    159 H159        0.0040  -16.9326  -45.3038 H         1 UNK         0.3000 
    160 H160        2.6427  -19.0324  -44.0966 H         1 UNK         0.0600 
    161 H161        2.5125  -16.3950  -45.6585 H         1 UNK         0.0600 
    162 H162        3.5032  -17.7887  -46.0561 H         1 UNK         0.0600 
    163 H163        3.8235  -16.8862  -44.5836 H         1 UNK         0.0600 
    164 H164        1.5887  -16.4733  -43.3024 H         1 UNK         0.3000 
    165 H165       -0.6645  -17.7057  -40.8228 H         1 UNK         0.0600 
    166 H166        2.0550  -16.3176  -40.5272 H         1 UNK         0.0600 
    167 H167        0.7449  -16.2999  -39.3461 H         1 UNK         0.0600 
    168 H168        1.5744  -17.8030  -39.7156 H         1 UNK         0.0600 
    169 H169        0.1510  -15.0667  -41.5152 H         1 UNK         0.3000 
    170 H170       -2.0502  -14.5023  -44.2237 H         1 UNK         0.0600 
    171 H171       -3.5866  -14.2558  -42.2718 H         1 UNK         0.0600 
    172 H172       -2.2965  -13.5134  -41.3322 H         1 UNK         0.0600 
    173 H173       -2.9316  -12.7013  -42.7632 H         1 UNK         0.0600 
    174 H174       -0.3345  -12.7956  -42.6682 H         1 UNK         0.3000 
    175 H175        2.1335  -13.0161  -42.9123 H         1 UNK         0.0600 
    176 H176        3.3430  -14.3667  -44.5513 H         1 UNK         0.0600 
    177 H177        2.8232  -13.3305  -45.8710 H         1 UNK         0.0600 
    178 H178        3.8997  -12.7057  -44.6284 H         1 UNK         0.0600 
    179 H179        1.7012  -11.1896  -45.1732 H         1 UNK         0.3000 
    180 H180       -0.1765   -8.8590  -43.3188 H         1 UNK         0.0600 
    181 H181        1.7122   -7.2602  -43.5312 H         1 UNK         0.0600 
    182 H182        2.0008   -8.3725  -42.2032 H         1 UNK         0.0600 
    183 H183        2.8509   -8.5935  -43.7278 H         1 UNK         0.0600 
    184 H184        1.4309   -8.6931  -45.7242 H         1 UNK         0.3000 
    185 H185       -1.2794   -8.8583  -47.8124 H         1 UNK         0.0600 
    186 H186        0.7732   -8.2985  -49.0639 H         1 UNK         0.0600 
    187 H187        0.7399   -7.4095  -47.5535 H         1 UNK         0.0600 
    188 H188        1.7943   -8.8104  -47.7290 H         1 UNK         0.0600 
    189 H189       -1.0891  -10.9086  -48.6428 H         1 UNK         0.3000 
    190 H190       -2.2523  -22.2362  -46.6854 H         1 UNK         0.3000 
    191 H191       -3.9697  -23.7888  -48.3464 H         1 UNK         0.0600 
    192 H192       -5.7736  -22.9198  -46.8649 H         1 UNK         0.0600 
    193 H193       -4.6802  -21.6386  -47.3568 H         1 UNK         0.0600 
    194 H194       -4.5717  -22.3115  -45.7344 H         1 UNK         0.0600 
    195 H195       -2.9654  -24.2317  -44.9157 H         1 UNK         0.3000 
    196 H196       -4.4337  -26.6030  -44.4259 H         1 UNK         0.0600 
    197 H197       -2.8735  -26.8501  -42.4878 H         1 UNK         0.0600 
    198 H198       -3.4723  -25.2039  -42.6251 H         1 UNK         0.0600 
    199 H199       -1.8362  -25.5929  -43.1507 H         1 UNK         0.0600 
    200 H200       -1.1757  -26.1272  -45.7898 H         1 UNK         0.3000 
    201 H201       -0.5330  -28.9279  -46.0602 H         1 UNK         0.0600 
    202 H202        0.6173  -26.4481  -47.4502 H         1 UNK         0.0600 
    203 H203        1.3636  -28.0396  -47.4045 H         1 UNK         0.0600 
    204 H204        1.1839  -27.1169  -45.9206 H         1 UNK         0.0600 
    205 H205       -2.7236  -26.9664  -47.7711 H         1 UNK         0.3000 
    206 H206       -3.8723  -27.0267  -49.6366 H         1 UNK         0.0600 
    207 H207       -4.3781  -29.3991  -48.9945 H         1 UNK         0.0600 
    208 H208       -4.4062  -29.1564  -50.7330 H         1 UNK         0.0600 
    209 H209       -3.0282  -29.9508  -49.9864 H         1 UNK         0.0600 
    210 H210       -1.1870  -26.0757  -49.6871 H         1 UNK         0.3000 
    211 H211       -0.1260  -26.6542  -52.3976 H         1 UNK         0.0600 
    212 H212        0.9476  -24.9462  -50.0837 H         1 UNK         0.0600 
    213 H213        1.7899  -25.2813  -51.5914 H         1 UNK         0.0600 
    214 H214        1.4554  -26.5897  -50.4667 H         1 UNK         0.0600 
    215 H215       -2.1972  -24.4110  -50.7478 H         1 UNK         0.3000 
    216 H216       -2.3159  -22.6034  -53.0750 H         1 UNK         0.0600 
    217 H217       -2.0951  -20.6180  -51.6135 H         1 UNK         0.0600 
    218 H218       -0.6619  -21.6039  -51.4073 H         1 UNK         0.0600 
    219 H219       -1.9263  -21.6211  -50.1788 H         1 UNK         0.0600 
    220 H220       -4.1892  -21.1490  -52.8565 H         1 UNK         0.3000 
    221 H221       -6.4461  -22.1542  -51.1647 H         1 UNK         0.0600 
    222 H222       -6.4539  -20.6429  -53.8366 H         1 UNK         0.0600 
    223 H223       -6.9973  -22.2950  -53.5717 H         1 UNK         0.0600 
    224 H224       -7.8783  -20.9569  -52.8486 H         1 UNK         0.0600 
    225 H225       -4.8681  -21.0739  -49.6372 H         1 UNK         0.3000 
    226 H226       -4.1989  -19.4937  -48.2521 H         1 UNK         0.0600 
    227 H227       -6.5638  -19.0408  -47.8024 H         1 UNK         0.0600 
    228 H228       -5.6726  -17.5308  -47.7711 H         1 UNK         0.0600 
    229 H229       -6.6787  -17.9310  -49.1605 H         1 UNK         0.0600 
    230 H230       -5.3042  -16.7696  -50.1164 H         1 UNK         0.3000 
    231 H231       -2.5901  -15.8245  -50.5493 H         1 UNK         0.0600 
    232 H232       -3.7447  -13.8416  -51.4672 H         1 UNK         0.0600 
    233 H233       -4.5248  -14.3070  -49.9662 H         1 UNK         0.0600 
    234 H234       -5.2814  -14.6978  -51.5054 H         1 UNK         0.0600 
    235 H235       -4.9731  -17.5988  -52.4623 H         1 UNK         0.3000 
    236 H236       -3.7668  -16.7889  -55.0435 H         1 UNK         0.0600 
    237 H237       -6.2964  -18.3639  -54.3379 H         1 UNK         0.0600 
    238 H238       -6.2181  -16.6799  -54.8428 H         1 UNK         0.0600 
    239 H239       -5.7830  -17.9544  -55.9705 H         1 UNK         0.0600 
    240 H240       -2.8164  -18.2003  -56.4460 H         1 UNK         0.3000 
    241 H241       -2.6156  -21.0808  -55.8179 H         1 UNK         0.0600 
    242 H242       -4.0781  -19.1791  -57.9451 H         1 UNK         0.3800 
    243 H243       -3.6938  -20.0379  -59.4091 H         1 UNK         0.3800 
    244 H244       -0.2317  -19.2412  -56.3652 H         1 UNK         0.0800 
    245 H245       -0.1500  -20.9621  -56.6163 H         1 UNK         0.0800 
    246 H246        1.0643  -18.5137  -54.3366 H         1 UNK         0.0800 
    247 H247       -0.5793  -18.1808  -53.8272 H         1 UNK         0.0800 
@<TRIPOS>BOND
     1    1    2 1    
     2    1  127 1    
     3    1  128 1    
     4    1  129 1    
     5    2    3 2    
     6    2    4 am   BACKBONE|DICT|INTERRES
     7    4    5 1    
     8    4  130 1    
     9    5    6 1    
    10    5   65 1    
    11    5  131 1    
    12    6    7 1    
    13    6  132 1    
    14    6  133 1    
    15    7    8 1    
    16    8    9 1    
    17    8  134 1    
    18    8  135 1    
    19    9   10 ar   
    20    9   14 ar   
    21   10   11 ar   
    22   10  136 1    
    23   11   12 ar   
    24   11  126 1    
    25   12   13 ar   
    26   12  137 1    
    27   13   14 ar   
    28   13   15 1    
    29   14  138 1    
    30   15   16 1    
    31   15  139 1    
    32   15  140 1    
    33   16   17 1    
    34   17   18 1    
    35   17  141 1    
    36   17  142 1    
    37   18   19 1    
    38   18   67 1    
    39   18  143 1    
    40   19   20 am   BACKBONE|DICT|INTERRES
    41   19  144 1    
    42   20   21 2    
    43   20   22 1    
    44   22   23 1    
    45   22   24 1    
    46   22  145 1    
    47   23  146 1    
    48   23  147 1    
    49   23  148 1    
    50   24   25 am   BACKBONE|DICT|INTERRES
    51   24  149 1    
    52   25   26 2    
    53   25   27 1    
    54   27   28 1    
    55   27   29 1    
    56   27  150 1    
    57   28  151 1    
    58   28  152 1    
    59   28  153 1    
    60   29   30 am   BACKBONE|DICT|INTERRES
    61   29  154 1    
    62   30   31 2    
    63   30   32 1    
    64   32   33 1    
    65   32   34 1    
    66   32  155 1    
    67   33  156 1    
    68   33  157 1    
    69   33  158 1    
    70   34   35 am   BACKBONE|DICT|INTERRES
    71   34  159 1    
    72   35   36 2    
    73   35   37 1    
    74   37   38 1    
    75   37   39 1    
    76   37  160 1    
    77   38  161 1    
    78   38  162 1    
    79   38  163 1    
    80   39   40 am   BACKBONE|DICT|INTERRES
    81   39  164 1    
    82   40   41 2    
    83   40   42 1    
    84   42   43 1    
    85   42   44 1    
    86   42  165 1    
    87   43  166 1    
    88   43  167 1    
    89   43  168 1    
    90   44   45 am   BACKBONE|DICT|INTERRES
    91   44  169 1    
    92   45   46 2    
    93   45   47 1    
    94   47   48 1    
    95   47   49 1    
    96   47  170 1    
    97   48  171 1    
    98   48  172 1    
    99   48  173 1    
   100   49   50 am   BACKBONE|DICT|INTERRES
   101   49  174 1    
   102   50   51 2    
   103   50   52 1    
   104   52   53 1    
   105   52   54 1    
   106   52  175 1    
   107   53  176 1    
   108   53  177 1    
   109   53  178 1    
   110   54   55 am   BACKBONE|DICT|INTERRES
   111   54  179 1    
   112   55   56 2    
   113   55   57 1    
   114   57   58 1    
   115   57   59 1    
   116   57  180 1    
   117   58  181 1    
   118   58  182 1    
   119   58  183 1    
   120   59   60 am   BACKBONE|DICT|INTERRES
   121   59  184 1    
   122   60   61 2    
   123   60   62 1    
   124   62   63 1    
   125   62   64 1    
   126   62  185 1    
   127   63  186 1    
   128   63  187 1    
   129   63  188 1    
   130   64   65 am   BACKBONE|DICT|INTERRES
   131   64  189 1    
   132   65   66 2    
   133   67   68 2    
   134   67   69 am   BACKBONE|DICT|INTERRES
   135   69   70 1    
   136   69  190 1    
   137   70   71 1    
   138   70   72 1    
   139   70  191 1    
   140   71  192 1    
   141   71  193 1    
   142   71  194 1    
   143   72   73 2    
   144   72   74 am   BACKBONE|DICT|INTERRES
   145   74   75 1    
   146   74  195 1    
   147   75   76 1    
   148   75   77 1    
   149   75  196 1    
   150   76  197 1    
   151   76  198 1    
   152   76  199 1    
   153   77   78 2    
   154   77   79 am   BACKBONE|DICT|INTERRES
   155   79   80 1    
   156   79  200 1    
   157   80   81 1    
   158   80   82 1    
   159   80  201 1    
   160   81  202 1    
   161   81  203 1    
   162   81  204 1    
   163   82   83 2    
   164   82   84 am   BACKBONE|DICT|INTERRES
   165   84   85 1    
   166   84  205 1    
   167   85   86 1    
   168   85   87 1    
   169   85  206 1    
   170   86  207 1    
   171   86  208 1    
   172   86  209 1    
   173   87   88 2    
   174   87   89 am   BACKBONE|DICT|INTERRES
   175   89   90 1    
   176   89  210 1    
   177   90   91 1    
   178   90   92 1    
   179   90  211 1    
   180   91  212 1    
   181   91  213 1    
   182   91  214 1    
   183   92   93 2    
   184   92   94 am   BACKBONE|DICT|INTERRES
   185   94   95 1    
   186   94  215 1    
   187   95   96 1    
   188   95   97 1    
   189   95  216 1    
   190   96  217 1    
   191   96  218 1    
   192   96  219 1    
   193   97   98 2    
   194   97   99 am   BACKBONE|DICT|INTERRES
   195   99  100 1    
   196   99  220 1    
   197  100  101 1    
   198  100  102 1    
   199  100  221 1    
   200  101  222 1    
   201  101  223 1    
   202  101  224 1    
   203  102  103 2    
   204  102  104 am   BACKBONE|DICT|INTERRES
   205  104  105 1    
   206  104  225 1    
   207  105  106 1    
   208  105  107 1    
   209  105  226 1    
   210  106  227 1    
   211  106  228 1    
   212  106  229 1    
   213  107  108 2    
   214  107  109 am   BACKBONE|DICT|INTERRES
   215  109  110 1    
   216  109  230 1    
   217  110  111 1    
   218  110  112 1    
   219  110  231 1    
   220  111  232 1    
   221  111  233 1    
   222  111  234 1    
   223  112  113 2    
   224  112  114 am   BACKBONE|DICT|INTERRES
   225  114  115 1    
   226  114  235 1    
   227  115  116 1    
   228  115  117 1    
   229  115  236 1    
   230  116  237 1    
   231  116  238 1    
   232  116  239 1    
   233  117  118 2    
   234  117  119 am   BACKBONE|DICT|INTERRES
   235  119  120 1    
   236  119  240 1    
   237  120  121 1    
   238  120  124 1    
   239  120  241 1    
   240  121  122 am   BACKBONE|DICT|INTERRES
   241  121  123 2    
   242  122  242 1    
   243  122  243 1    
   244  124  125 1    
   245  124  244 1    
   246  124  245 1    
   247  125  126 1    
   248  126  246 1    
   249  126  247 1    
@<TRIPOS>SUBSTRUCTURE
     1 UNK         1 GROUP             0       ****    0 ROOT    
