@<TRIPOS>MOLECULE
3R540
247   249    1
SMALL
USER_CHARGES


@<TRIPOS>ATOM
      1 CA         -1.2443  -13.4090  -48.9877 C.3       0 UNK        -0.1800 
      2 C           0.1003  -12.7659  -49.2931 C.2       0 UNK         0.5000 
      3 O           0.3160  -11.6024  -48.9553 O.2       0 UNK        -0.5000 
      4 N           1.0058  -13.5231  -49.9242 N.am      1 UNK        -0.5000 
      5 CA          2.3740  -13.1001  -50.2496 C.3       1 UNK         0.1400 
      6 C6          2.9190  -13.8488  -51.4932 C.3       23 UNK        -0.0398 
      7 S7          3.0139  -15.6652  -51.2901 S.3       23 UNK        -0.2404 
      8 C8          1.5370  -16.2409  -52.1853 C.3       23 UNK        -0.0205 
      9 C9          0.7587  -17.2511  -51.3574 C.ar      23 UNK        -0.0193 
     10 C10        -0.4581  -16.8962  -50.7692 C.ar      23 UNK        -0.1150 
     11 C11        -1.1932  -17.8295  -50.0319 C.ar      23 UNK        -0.0193 
     12 C12        -0.6848  -19.1203  -49.8662 C.ar      23 UNK        -0.1150 
     13 C13         0.5402  -19.4838  -50.4338 C.ar      23 UNK        -0.0193 
     14 C14         1.2521  -18.5472  -51.1867 C.ar      23 UNK        -0.1150 
     15 C15         1.0829  -20.8943  -50.2615 C.3       23 UNK        -0.0205 
     16 S16         2.3373  -21.0169  -48.9395 S.3       23 UNK        -0.2404 
     17 C17         1.3929  -20.6392  -47.4205 C.3       23 UNK        -0.0398 
     18 CA          0.8073  -21.8914  -46.7213 C.3       11 UNK         0.1400 
     19 N           0.4378  -21.6263  -45.3289 N.am      11 UNK        -0.5000 
     20 C           0.0143  -22.5519  -44.4553 C.2       10 UNK         0.5000 
     21 O          -0.0358  -23.7563  -44.7033 O.2       10 UNK        -0.5000 
     22 CA         -0.4964  -22.0428  -43.0953 C.3       10 UNK         0.1400 
     23 CB          0.6706  -21.7934  -42.1291 C.3       10 UNK        -0.1800 
     24 N          -1.3121  -20.8330  -43.2197 N.am      10 UNK        -0.5000 
     25 C          -2.4793  -20.7733  -43.8781 C.2       9 UNK         0.5000 
     26 O          -3.0185  -21.7493  -44.3989 O.2       9 UNK        -0.5000 
     27 CA         -3.1314  -19.3870  -44.0251 C.3       9 UNK         0.1400 
     28 CB         -3.8952  -19.0031  -42.7494 C.3       9 UNK        -0.1800 
     29 N          -2.1647  -18.3406  -44.3595 N.am      9 UNK        -0.5000 
     30 C          -1.4425  -18.3045  -45.4885 C.2       8 UNK         0.5000 
     31 O          -1.5504  -19.1324  -46.3931 O.2       8 UNK        -0.5000 
     32 CA         -0.3810  -17.1931  -45.5982 C.3       8 UNK         0.1400 
     33 CB         -1.0203  -15.8503  -45.9825 C.3       8 UNK        -0.1800 
     34 N           0.3856  -17.0368  -44.3609 N.am      8 UNK        -0.5000 
     35 C           1.1813  -17.9816  -43.8394 C.2       7 UNK         0.5000 
     36 O           1.4062  -19.0611  -44.3851 O.2       7 UNK        -0.5000 
     37 CA          1.7779  -17.6994  -42.4494 C.3       7 UNK         0.1400 
     38 CB          3.0622  -16.8624  -42.5457 C.3       7 UNK        -0.1800 
     39 N           0.8174  -17.0341  -41.5698 N.am      7 UNK        -0.5000 
     40 C          -0.2671  -17.6292  -41.0528 C.2       6 UNK         0.5000 
     41 O          -0.5471  -18.8135  -41.2331 O.2       6 UNK        -0.5000 
     42 CA         -1.2195  -16.7398  -40.2328 C.3       6 UNK         0.1400 
     43 CB         -0.7339  -16.6217  -38.7806 C.3       6 UNK        -0.1800 
     44 N          -1.3661  -15.4012  -40.8056 N.am      6 UNK        -0.5000 
     45 C          -1.9410  -15.1415  -41.9888 C.2       5 UNK         0.5000 
     46 O          -2.4589  -16.0018  -42.6986 O.2       5 UNK        -0.5000 
     47 CA         -1.8760  -13.6852  -42.4857 C.3       5 UNK         0.1400 
     48 CB         -3.0855  -12.8868  -41.9780 C.3       5 UNK        -0.1800 
     49 N          -0.6403  -13.0026  -42.0914 N.am      5 UNK        -0.5000 
     50 C           0.5851  -13.3616  -42.4944 C.2       4 UNK         0.5000 
     51 O           0.8089  -14.3060  -43.2572 O.2       4 UNK        -0.5000 
     52 CA          1.7537  -12.5753  -41.8911 C.3       4 UNK         0.1400 
     53 CB          2.1207  -13.1292  -40.5030 C.3       4 UNK        -0.1800 
     54 N           2.9060  -12.6800  -42.7770 N.am      4 UNK        -0.5000 
     55 C           3.8621  -11.7550  -42.9142 C.2       3 UNK         0.5000 
     56 O           3.8903  -10.7078  -42.2657 O.2       3 UNK        -0.5000 
     57 CA          4.9873  -12.0343  -43.9334 C.3       3 UNK         0.1400 
     58 CB          6.2917  -12.3905  -43.2022 C.3       3 UNK        -0.1800 
     59 N           4.6922  -13.0953  -44.9014 N.am      3 UNK        -0.5000 
     60 C           3.7786  -13.0195  -45.8773 C.2       2 UNK         0.5000 
     61 O           3.0275  -12.0545  -46.0374 O.2       2 UNK        -0.5000 
     62 CA          3.6871  -14.2516  -46.7993 C.3       2 UNK         0.1400 
     63 CB          3.0329  -15.4323  -46.0657 C.3       2 UNK        -0.1800 
     64 N           2.9287  -13.9897  -48.0199 N.am      2 UNK        -0.5000 
     65 C           3.3344  -13.2241  -49.0428 C.2       1 UNK         0.5000 
     66 O           4.4236  -12.6481  -49.0741 O.2       1 UNK        -0.5000 
     67 C          -0.3778  -22.4814  -47.5101 C.2       11 UNK         0.5000 
     68 O          -0.2152  -23.5168  -48.1532 O.2       11 UNK        -0.5000 
     69 N          -1.5523  -21.8391  -47.4252 N.am      12 UNK        -0.5000 
     70 CA         -2.7822  -22.2844  -48.0835 C.3       12 UNK         0.1400 
     71 CB         -3.8853  -21.2335  -47.8997 C.3       12 UNK        -0.1800 
     72 C          -3.2553  -23.6682  -47.6044 C.2       12 UNK         0.5000 
     73 O          -3.6779  -24.4781  -48.4298 O.2       12 UNK        -0.5000 
     74 N          -3.1376  -23.9294  -46.2954 N.am      13 UNK        -0.5000 
     75 CA         -3.4159  -25.2254  -45.6786 C.3       13 UNK         0.1400 
     76 CB         -3.3848  -25.0915  -44.1488 C.3       13 UNK        -0.1800 
     77 C          -2.4494  -26.3232  -46.1585 C.2       13 UNK         0.5000 
     78 O          -2.9056  -27.4012  -46.5399 O.2       13 UNK        -0.5000 
     79 N          -1.1429  -26.0197  -46.1787 N.am      14 UNK        -0.5000 
     80 CA         -0.0866  -26.9085  -46.6736 C.3       14 UNK         0.1400 
     81 CB          1.2877  -26.3007  -46.3552 C.3       14 UNK        -0.1800 
     82 C          -0.2115  -27.2135  -48.1788 C.2       14 UNK         0.5000 
     83 O           0.0345  -28.3461  -48.5949 O.2       14 UNK        -0.5000 
     84 N          -0.6305  -26.2084  -48.9579 N.am      15 UNK        -0.5000 
     85 CA         -0.9341  -26.3088  -50.3853 C.3       15 UNK         0.1400 
     86 CB         -0.9525  -24.8921  -50.9862 C.3       15 UNK        -0.1800 
     87 C          -2.2631  -27.0315  -50.6864 C.2       15 UNK         0.5000 
     88 O          -2.5407  -27.2919  -51.8557 O.2       15 UNK        -0.5000 
     89 N          -3.0774  -27.3098  -49.6565 N.am      16 UNK        -0.5000 
     90 CA         -4.4195  -27.8989  -49.7252 C.3       16 UNK         0.1400 
     91 CB         -4.3497  -29.3702  -50.1842 C.3       16 UNK        -0.1800 
     92 C          -5.3904  -27.0411  -50.5653 C.2       16 UNK         0.5000 
     93 O          -6.1338  -27.5672  -51.3949 O.2       16 UNK        -0.5000 
     94 N          -5.3294  -25.7206  -50.3406 N.am      17 UNK        -0.5000 
     95 CA         -6.0879  -24.6473  -50.9901 C.3       17 UNK         0.1400 
     96 CB         -7.6081  -24.8402  -50.8132 C.3       17 UNK        -0.1800 
     97 C          -5.6992  -24.3735  -52.4586 C.2       17 UNK         0.5000 
     98 O          -6.3383  -23.5336  -53.0945 O.2       17 UNK        -0.5000 
     99 N          -4.6332  -25.0121  -52.9700 N.am      18 UNK        -0.5000 
    100 CA        -4.1236  -24.8240  -54.3369 C.3       18 UNK         0.1400 
    101 CB        -3.0859  -25.9087  -54.6585 C.3       18 UNK        -0.1800 
    102 C         -3.5415  -23.4203  -54.6085 C.2       18 UNK         0.5000 
    103 O         -3.3625  -23.0560  -55.7711 O.2       18 UNK        -0.5000 
    104 N         -3.2900  -22.6464  -53.5419 N.am      19 UNK        -0.5000 
    105 CA        -2.9480  -21.2231  -53.5903 C.3       19 UNK         0.1400 
    106 CB        -2.5422  -20.7633  -52.1835 C.3       19 UNK        -0.1800 
    107 C         -4.0887  -20.3377  -54.1382 C.2       19 UNK         0.5000 
    108 O         -3.8100  -19.2492  -54.6443 O.2       19 UNK        -0.5000 
    109 N         -5.3360  -20.8308  -54.0497 N.am      20 UNK        -0.5000 
    110 CA        -6.5678  -20.2708  -54.6073 C.3       20 UNK         0.1400 
    111 CB        -6.5878  -20.4757  -56.1385 C.3       20 UNK        -0.1800 
    112 C         -6.8121  -18.8128  -54.1693 C.2       20 UNK         0.5000 
    113 O         -7.2155  -18.5833  -53.0285 O.2       20 UNK        -0.5000 
    114 N         -6.5665  -17.8620  -55.0794 N.am      21 UNK        -0.5000 
    115 CA        -6.7201  -16.4245  -54.8648 C.3       21 UNK         0.1400 
    116 CB        -6.7493  -15.7266  -56.2341 C.3       21 UNK        -0.1800 
    117 C         -5.6326  -15.8022  -53.9659 C.2       21 UNK         0.5000 
    118 O         -5.8348  -14.6831  -53.4926 O.2       21 UNK        -0.5000 
    119 N         -4.5087  -16.5070  -53.7563 N.am      22 UNK        -0.5000 
    120 CA        -3.3562  -16.0744  -52.9404 C.3       22 UNK         0.1400 
    121 C         -2.5638  -14.8581  -53.5178 C.2       22 UNK         0.5000 
    122 N         -2.7249  -14.5046  -54.7872 N.am      22 UNK        -0.7600 
    123 O         -1.7586  -14.2453  -52.8220 O.2       22 UNK        -0.5000 
    124 C124       -3.7223  -15.9056  -51.4352 C.3       23 UNK        -0.0398 
    125 S125       -3.9079  -17.5127  -50.5888 S.3       23 UNK        -0.2404 
    126 C126       -2.5270  -17.4507  -49.4012 C.3       23 UNK        -0.0205 
    127 H127       -1.9831  -13.1091  -49.7309 H         1 UNK         0.0600 
    128 H128       -1.5990  -13.0996  -48.0044 H         1 UNK         0.0600 
    129 H129       -1.1723  -14.4950  -48.9895 H         1 UNK         0.0600 
    130 H130        0.7766  -14.4705  -50.1868 H         1 UNK         0.3000 
    131 H131        2.3474  -12.0391  -50.5076 H         1 UNK         0.0600 
    132 H132        2.3099  -13.6066  -52.3647 H         1 UNK         0.0800 
    133 H133        3.9189  -13.4865  -51.7387 H         1 UNK         0.0800 
    134 H134        1.8466  -16.6996  -53.1254 H         1 UNK         0.0800 
    135 H135        0.8934  -15.4023  -52.4551 H         1 UNK         0.0800 
    136 H136       -0.8368  -15.8952  -50.9022 H         1 UNK         0.1150 
    137 H137       -1.2479  -19.8442  -49.2961 H         1 UNK         0.1150 
    138 H138        2.1959  -18.8243  -51.6352 H         1 UNK         0.1150 
    139 H139        0.2696  -21.5963  -50.0813 H         1 UNK         0.0800 
    140 H140        1.5406  -21.2161  -51.1980 H         1 UNK         0.0800 
    141 H141        0.6275  -19.8917  -47.6200 H         1 UNK         0.0800 
    142 H142        2.0972  -20.1515  -46.7458 H         1 UNK         0.0800 
    143 H143        1.5888  -22.6537  -46.6904 H         1 UNK         0.0600 
    144 H144        0.5014  -20.6606  -45.0199 H         1 UNK         0.3000 
    145 H145       -1.1274  -22.8236  -42.6660 H         1 UNK         0.0600 
    146 H146        0.3100  -21.5011  -41.1428 H         1 UNK         0.0600 
    147 H147        1.2704  -22.6954  -42.0018 H         1 UNK         0.0600 
    148 H148        1.3333  -21.0073  -42.4898 H         1 UNK         0.0600 
    149 H149       -0.9614  -19.9973  -42.7622 H         1 UNK         0.3000 
    150 H150       -3.8508  -19.4457  -44.8444 H         1 UNK         0.0600 
    151 H151       -4.6363  -19.7616  -42.4948 H         1 UNK         0.0600 
    152 H152       -4.4259  -18.0596  -42.8776 H         1 UNK         0.0600 
    153 H153       -3.2265  -18.8967  -41.8952 H         1 UNK         0.0600 
    154 H154       -2.0616  -17.5859  -43.6865 H         1 UNK         0.3000 
    155 H155        0.3153  -17.4758  -46.3906 H         1 UNK         0.0600 
    156 H156       -1.7303  -15.5101  -45.2300 H         1 UNK         0.0600 
    157 H157       -1.5624  -15.9340  -46.9225 H         1 UNK         0.0600 
    158 H158       -0.2698  -15.0706  -46.1091 H         1 UNK         0.0600 
    159 H159        0.2953  -16.1531  -43.8705 H         1 UNK         0.3000 
    160 H160        2.0402  -18.6603  -42.0018 H         1 UNK         0.0600 
    161 H161        2.8736  -15.8698  -42.9516 H         1 UNK         0.0600 
    162 H162        3.7954  -17.3483  -43.1905 H         1 UNK         0.0600 
    163 H163        3.5240  -16.7384  -41.5661 H         1 UNK         0.0600 
    164 H164        0.9474  -16.0454  -41.4199 H         1 UNK         0.3000 
    165 H165       -2.2015  -17.2175  -40.2280 H         1 UNK         0.0600 
    166 H166       -1.4407  -16.0557  -38.1736 H         1 UNK         0.0600 
    167 H167       -0.6302  -17.6066  -38.3231 H         1 UNK         0.0600 
    168 H168        0.2358  -16.1263  -38.7172 H         1 UNK         0.0600 
    169 H169       -0.9724  -14.6335  -40.2826 H         1 UNK         0.3000 
    170 H170       -1.9140  -13.7053  -43.5766 H         1 UNK         0.0600 
    171 H171       -4.0203  -13.3635  -42.2765 H         1 UNK         0.0600 
    172 H172       -3.0899  -12.8080  -40.8901 H         1 UNK         0.0600 
    173 H173       -3.0921  -11.8770  -42.3886 H         1 UNK         0.0600 
    174 H174       -0.7409  -12.2210  -41.4596 H         1 UNK         0.3000 
    175 H175        1.4508  -11.5298  -41.8024 H         1 UNK         0.0600 
    176 H176        2.4345  -14.1725  -40.5565 H         1 UNK         0.0600 
    177 H177        2.9353  -12.5599  -40.0550 H         1 UNK         0.0600 
    178 H178        1.2740  -13.0732  -39.8179 H         1 UNK         0.0600 
    179 H179        2.9002  -13.4867  -43.3865 H         1 UNK         0.3000 
    180 H180        5.1514  -11.1094  -44.4905 H         1 UNK         0.0600 
    181 H181        6.1951  -13.3193  -42.6383 H         1 UNK         0.0600 
    182 H182        6.5731  -11.6069  -42.4972 H         1 UNK         0.0600 
    183 H183        7.1194  -12.5054  -43.9024 H         1 UNK         0.0600 
    184 H184        5.2589  -13.9280  -44.8292 H         1 UNK         0.3000 
    185 H185        4.6999  -14.5390  -47.0895 H         1 UNK         0.0600 
    186 H186        2.8846  -16.2856  -46.7282 H         1 UNK         0.0600 
    187 H187        3.6587  -15.7736  -45.2418 H         1 UNK         0.0600 
    188 H188        2.0643  -15.1551  -45.6505 H         1 UNK         0.0600 
    189 H189        2.0062  -14.3924  -48.0723 H         1 UNK         0.3000 
    190 H190       -1.6044  -20.9746  -46.8917 H         1 UNK         0.3000 
    191 H191       -2.5711  -22.3636  -49.1517 H         1 UNK         0.0600 
    192 H192       -4.1026  -21.0562  -46.8464 H         1 UNK         0.0600 
    193 H193       -4.8122  -21.5512  -48.3789 H         1 UNK         0.0600 
    194 H194       -3.6006  -20.2830  -48.3480 H         1 UNK         0.0600 
    195 H195       -2.8409  -23.1817  -45.6739 H         1 UNK         0.3000 
    196 H196       -4.4257  -25.5215  -45.9703 H         1 UNK         0.0600 
    197 H197       -3.6136  -26.0436  -43.6686 H         1 UNK         0.0600 
    198 H198       -4.1219  -24.3666  -43.8027 H         1 UNK         0.0600 
    199 H199       -2.4073  -24.7690  -43.7904 H         1 UNK         0.0600 
    200 H200       -0.8418  -25.1167  -45.8213 H         1 UNK         0.3000 
    201 H201       -0.1713  -27.8557  -46.1371 H         1 UNK         0.0600 
    202 H202        1.4169  -26.1607  -45.2818 H         1 UNK         0.0600 
    203 H203        1.4203  -25.3312  -46.8364 H         1 UNK         0.0600 
    204 H204        2.0929  -26.9515  -46.6980 H         1 UNK         0.0600 
    205 H205       -0.7238  -25.2836  -48.5437 H         1 UNK         0.3000 
    206 H206       -0.1367  -26.8761  -50.8692 H         1 UNK         0.0600 
    207 H207       -0.0047  -24.3801  -50.8189 H         1 UNK         0.0600 
    208 H208       -1.1162  -24.9204  -52.0636 H         1 UNK         0.0600 
    209 H209       -1.7435  -24.2819  -50.5497 H         1 UNK         0.0600 
    210 H210       -2.7717  -27.0438  -48.7287 H         1 UNK         0.3000 
    211 H211       -4.8090  -27.8901  -48.7062 H         1 UNK         0.0600 
    212 H212       -4.0136  -29.4592  -51.2176 H         1 UNK         0.0600 
    213 H213       -5.3286  -29.8462  -50.1171 H         1 UNK         0.0600 
    214 H214       -3.6664  -29.9445  -49.5586 H         1 UNK         0.0600 
    215 H215       -4.6652  -25.3951  -49.6380 H         1 UNK         0.3000 
    216 H216       -5.8165  -23.7410  -50.4469 H         1 UNK         0.0600 
    217 H217       -8.1544  -23.9531  -51.1357 H         1 UNK         0.0600 
    218 H218       -7.8650  -25.0146  -49.7684 H         1 UNK         0.0600 
    219 H219       -7.9835  -25.6803  -51.3977 H         1 UNK         0.0600 
    220 H220       -4.1579  -25.7028  -52.4030 H         1 UNK         0.3000 
    221 H221       -4.9657  -24.9557  -55.0194 H         1 UNK         0.0600 
    222 H222       -2.1891  -25.8017  -54.0486 H         1 UNK         0.0600 
    223 H223       -3.4911  -26.9071  -54.4925 H         1 UNK         0.0600 
    224 H224       -2.7763  -25.8548  -55.7030 H         1 UNK         0.0600 
    225 H225       -3.4507  -23.0417  -52.6285 H         1 UNK         0.3000 
    226 H226       -2.0892  -21.1032  -54.2537 H         1 UNK         0.0600 
    227 H227       -1.6998  -21.3419  -51.8046 H         1 UNK         0.0600 
    228 H228       -2.2377  -19.7161  -52.1970 H         1 UNK         0.0600 
    229 H229       -3.3638  -20.8554  -51.4718 H         1 UNK         0.0600 
    230 H230       -5.4571  -21.7322  -53.6014 H         1 UNK         0.3000 
    231 H231       -7.3880  -20.8563  -54.1891 H         1 UNK         0.0600 
    232 H232       -6.5458  -21.5368  -56.3852 H         1 UNK         0.0600 
    233 H233       -5.7438  -19.9937  -56.6330 H         1 UNK         0.0600 
    234 H234       -7.5049  -20.0811  -56.5780 H         1 UNK         0.0600 
    235 H235       -6.2077  -18.1472  -55.9790 H         1 UNK         0.3000 
    236 H236       -7.6812  -16.2535  -54.3754 H         1 UNK         0.0600 
    237 H237       -6.8961  -14.6513  -56.1234 H         1 UNK         0.0600 
    238 H238       -5.8181  -15.8760  -56.7820 H         1 UNK         0.0600 
    239 H239       -7.5663  -16.1015  -56.8509 H         1 UNK         0.0600 
    240 H240       -4.4189  -17.4251  -54.1820 H         1 UNK         0.3000 
    241 H241       -2.6376  -16.8922  -53.0088 H         1 UNK         0.0600 
    242 H242       -2.1999  -13.7265  -55.1540 H         1 UNK         0.3800 
    243 H243       -3.3658  -15.0043  -55.3817 H         1 UNK         0.3800 
    244 H244       -4.6492  -15.3464  -51.3125 H         1 UNK         0.0800 
    245 H245       -2.9806  -15.3149  -50.9006 H         1 UNK         0.0800 
    246 H246       -2.7522  -18.1251  -48.5755 H         1 UNK         0.0800 
    247 H247       -2.4696  -16.4579  -48.9586 H         1 UNK         0.0800 
@<TRIPOS>BOND
     1    1    2 1    
     2    1  127 1    
     3    1  128 1    
     4    1  129 1    
     5    2    3 2    
     6    2    4 am   BACKBONE|DICT|INTERRES
     7    4    5 1    
     8    4  130 1    
     9    5    6 1    
    10    5   65 1    
    11    5  131 1    
    12    6    7 1    
    13    6  132 1    
    14    6  133 1    
    15    7    8 1    
    16    8    9 1    
    17    8  134 1    
    18    8  135 1    
    19    9   10 ar   
    20    9   14 ar   
    21   10   11 ar   
    22   10  136 1    
    23   11   12 ar   
    24   11  126 1    
    25   12   13 ar   
    26   12  137 1    
    27   13   14 ar   
    28   13   15 1    
    29   14  138 1    
    30   15   16 1    
    31   15  139 1    
    32   15  140 1    
    33   16   17 1    
    34   17   18 1    
    35   17  141 1    
    36   17  142 1    
    37   18   19 1    
    38   18   67 1    
    39   18  143 1    
    40   19   20 am   BACKBONE|DICT|INTERRES
    41   19  144 1    
    42   20   21 2    
    43   20   22 1    
    44   22   23 1    
    45   22   24 1    
    46   22  145 1    
    47   23  146 1    
    48   23  147 1    
    49   23  148 1    
    50   24   25 am   BACKBONE|DICT|INTERRES
    51   24  149 1    
    52   25   26 2    
    53   25   27 1    
    54   27   28 1    
    55   27   29 1    
    56   27  150 1    
    57   28  151 1    
    58   28  152 1    
    59   28  153 1    
    60   29   30 am   BACKBONE|DICT|INTERRES
    61   29  154 1    
    62   30   31 2    
    63   30   32 1    
    64   32   33 1    
    65   32   34 1    
    66   32  155 1    
    67   33  156 1    
    68   33  157 1    
    69   33  158 1    
    70   34   35 am   BACKBONE|DICT|INTERRES
    71   34  159 1    
    72   35   36 2    
    73   35   37 1    
    74   37   38 1    
    75   37   39 1    
    76   37  160 1    
    77   38  161 1    
    78   38  162 1    
    79   38  163 1    
    80   39   40 am   BACKBONE|DICT|INTERRES
    81   39  164 1    
    82   40   41 2    
    83   40   42 1    
    84   42   43 1    
    85   42   44 1    
    86   42  165 1    
    87   43  166 1    
    88   43  167 1    
    89   43  168 1    
    90   44   45 am   BACKBONE|DICT|INTERRES
    91   44  169 1    
    92   45   46 2    
    93   45   47 1    
    94   47   48 1    
    95   47   49 1    
    96   47  170 1    
    97   48  171 1    
    98   48  172 1    
    99   48  173 1    
   100   49   50 am   BACKBONE|DICT|INTERRES
   101   49  174 1    
   102   50   51 2    
   103   50   52 1    
   104   52   53 1    
   105   52   54 1    
   106   52  175 1    
   107   53  176 1    
   108   53  177 1    
   109   53  178 1    
   110   54   55 am   BACKBONE|DICT|INTERRES
   111   54  179 1    
   112   55   56 2    
   113   55   57 1    
   114   57   58 1    
   115   57   59 1    
   116   57  180 1    
   117   58  181 1    
   118   58  182 1    
   119   58  183 1    
   120   59   60 am   BACKBONE|DICT|INTERRES
   121   59  184 1    
   122   60   61 2    
   123   60   62 1    
   124   62   63 1    
   125   62   64 1    
   126   62  185 1    
   127   63  186 1    
   128   63  187 1    
   129   63  188 1    
   130   64   65 am   BACKBONE|DICT|INTERRES
   131   64  189 1    
   132   65   66 2    
   133   67   68 2    
   134   67   69 am   BACKBONE|DICT|INTERRES
   135   69   70 1    
   136   69  190 1    
   137   70   71 1    
   138   70   72 1    
   139   70  191 1    
   140   71  192 1    
   141   71  193 1    
   142   71  194 1    
   143   72   73 2    
   144   72   74 am   BACKBONE|DICT|INTERRES
   145   74   75 1    
   146   74  195 1    
   147   75   76 1    
   148   75   77 1    
   149   75  196 1    
   150   76  197 1    
   151   76  198 1    
   152   76  199 1    
   153   77   78 2    
   154   77   79 am   BACKBONE|DICT|INTERRES
   155   79   80 1    
   156   79  200 1    
   157   80   81 1    
   158   80   82 1    
   159   80  201 1    
   160   81  202 1    
   161   81  203 1    
   162   81  204 1    
   163   82   83 2    
   164   82   84 am   BACKBONE|DICT|INTERRES
   165   84   85 1    
   166   84  205 1    
   167   85   86 1    
   168   85   87 1    
   169   85  206 1    
   170   86  207 1    
   171   86  208 1    
   172   86  209 1    
   173   87   88 2    
   174   87   89 am   BACKBONE|DICT|INTERRES
   175   89   90 1    
   176   89  210 1    
   177   90   91 1    
   178   90   92 1    
   179   90  211 1    
   180   91  212 1    
   181   91  213 1    
   182   91  214 1    
   183   92   93 2    
   184   92   94 am   BACKBONE|DICT|INTERRES
   185   94   95 1    
   186   94  215 1    
   187   95   96 1    
   188   95   97 1    
   189   95  216 1    
   190   96  217 1    
   191   96  218 1    
   192   96  219 1    
   193   97   98 2    
   194   97   99 am   BACKBONE|DICT|INTERRES
   195   99  100 1    
   196   99  220 1    
   197  100  101 1    
   198  100  102 1    
   199  100  221 1    
   200  101  222 1    
   201  101  223 1    
   202  101  224 1    
   203  102  103 2    
   204  102  104 am   BACKBONE|DICT|INTERRES
   205  104  105 1    
   206  104  225 1    
   207  105  106 1    
   208  105  107 1    
   209  105  226 1    
   210  106  227 1    
   211  106  228 1    
   212  106  229 1    
   213  107  108 2    
   214  107  109 am   BACKBONE|DICT|INTERRES
   215  109  110 1    
   216  109  230 1    
   217  110  111 1    
   218  110  112 1    
   219  110  231 1    
   220  111  232 1    
   221  111  233 1    
   222  111  234 1    
   223  112  113 2    
   224  112  114 am   BACKBONE|DICT|INTERRES
   225  114  115 1    
   226  114  235 1    
   227  115  116 1    
   228  115  117 1    
   229  115  236 1    
   230  116  237 1    
   231  116  238 1    
   232  116  239 1    
   233  117  118 2    
   234  117  119 am   BACKBONE|DICT|INTERRES
   235  119  120 1    
   236  119  240 1    
   237  120  121 1    
   238  120  124 1    
   239  120  241 1    
   240  121  122 am   BACKBONE|DICT|INTERRES
   241  121  123 2    
   242  122  242 1    
   243  122  243 1    
   244  124  125 1    
   245  124  244 1    
   246  124  245 1    
   247  125  126 1    
   248  126  246 1    
   249  126  247 1    
@<TRIPOS>SUBSTRUCTURE
     1 UNK         1 GROUP             0       ****    0 ROOT    
