@<TRIPOS>MOLECULE
3R540
247   249    1
SMALL
USER_CHARGES


@<TRIPOS>ATOM
      1 CA         -1.3170   -9.2057  -41.2748 C.3       0 UNK        -0.1800 
      2 C          -1.1930   -9.8652  -42.6406 C.2       0 UNK         0.5000 
      3 O          -1.0501   -9.1721  -43.6479 O.2       0 UNK        -0.5000 
      4 N          -1.2188  -11.2033  -42.6827 N.am      1 UNK        -0.5000 
      5 CA         -1.1500  -12.0387  -43.8922 C.3       1 UNK         0.1400 
      6 C6         -1.8546  -13.4043  -43.6571 C.3       23 UNK        -0.0398 
      7 S7         -2.7134  -14.0459  -45.1344 S.3       23 UNK        -0.2404 
      8 C8         -3.7937  -15.2827  -44.3393 C.3       23 UNK        -0.0205 
      9 C9         -4.6548  -16.0873  -45.3092 C.ar      23 UNK        -0.0193 
     10 C10        -5.3318  -15.4659  -46.3652 C.ar      23 UNK        -0.1150 
     11 C11        -6.1945  -16.1961  -47.1879 C.ar      23 UNK        -0.0193 
     12 C12        -6.3881  -17.5580  -46.9415 C.ar      23 UNK        -0.1150 
     13 C13        -5.7216  -18.1949  -45.8904 C.ar      23 UNK        -0.0193 
     14 C14        -4.8474  -17.4560  -45.0869 C.ar      23 UNK        -0.1150 
     15 C15        -6.0053  -19.6604  -45.5802 C.3       23 UNK        -0.0205 
     16 S16        -5.5442  -20.7718  -46.9455 S.3       23 UNK        -0.2404 
     17 C17        -3.7278  -20.7761  -46.8103 C.3       23 UNK        -0.0398 
     18 CA         -3.1394  -22.1916  -46.5927 C.3       11 UNK         0.1400 
     19 N          -1.7136  -22.2338  -46.9203 N.am      11 UNK        -0.5000 
     20 C          -0.9773  -23.3444  -47.0482 C.2       10 UNK         0.5000 
     21 O          -1.4394  -24.4795  -46.9610 O.2       10 UNK        -0.5000 
     22 CA          0.5315  -23.1600  -47.2881 C.3       10 UNK         0.1400 
     23 CB          0.8211  -22.9558  -48.7813 C.3       10 UNK        -0.1800 
     24 N           1.0930  -22.0532  -46.5120 N.am      10 UNK        -0.5000 
     25 C           1.1261  -22.0219  -45.1713 C.2       9 UNK         0.5000 
     26 O           0.7368  -22.9458  -44.4582 O.2       9 UNK        -0.5000 
     27 CA          1.6224  -20.7243  -44.5131 C.3       9 UNK         0.1400 
     28 CB          3.1565  -20.6575  -44.5261 C.3       9 UNK        -0.1800 
     29 N           1.0656  -19.5285  -45.1446 N.am      9 UNK        -0.5000 
     30 C          -0.2385  -19.2158  -45.1726 C.2       8 UNK         0.5000 
     31 O          -1.1154  -19.8848  -44.6259 O.2       8 UNK        -0.5000 
     32 CA         -0.6340  -17.9756  -45.9937 C.3       8 UNK         0.1400 
     33 CB         -0.2948  -16.6933  -45.2234 C.3       8 UNK        -0.1800 
     34 N           0.0150  -17.9435  -47.3045 N.am      8 UNK        -0.5000 
     35 C          -0.1238  -18.8791  -48.2543 C.2       7 UNK         0.5000 
     36 O          -0.8583  -19.8579  -48.1471 O.2       7 UNK        -0.5000 
     37 CA          0.7569  -18.7384  -49.5052 C.3       7 UNK         0.1400 
     38 CB          0.1301  -17.7759  -50.5204 C.3       7 UNK        -0.1800 
     39 N           2.1073  -18.2938  -49.1668 N.am      7 UNK        -0.5000 
     40 C           3.0110  -19.0559  -48.5358 C.2       6 UNK         0.5000 
     41 O           2.8121  -20.2268  -48.2105 O.2       6 UNK        -0.5000 
     42 CA          4.3447  -18.3777  -48.1731 C.3       6 UNK         0.1400 
     43 CB          5.2803  -18.3313  -49.3904 C.3       6 UNK        -0.1800 
     44 N           4.1595  -17.0231  -47.6480 N.am      6 UNK        -0.5000 
     45 C           3.5700  -16.7461  -46.4764 C.2       5 UNK         0.5000 
     46 O           3.1506  -17.6079  -45.7059 O.2       5 UNK        -0.5000 
     47 CA          3.3893  -15.2600  -46.1153 C.3       5 UNK         0.1400 
     48 CB          4.6356  -14.7312  -45.3901 C.3       5 UNK        -0.1800 
     49 N           3.0918  -14.3905  -47.2562 N.am      5 UNK        -0.5000 
     50 C           2.0526  -14.5287  -48.0887 C.2       4 UNK         0.5000 
     51 O           1.2605  -15.4711  -48.0565 O.2       4 UNK        -0.5000 
     52 CA          1.8909  -13.4447  -49.1597 C.3       4 UNK         0.1400 
     53 CB          2.0493  -14.0454  -50.5654 C.3       4 UNK        -0.1800 
     54 N           0.5567  -12.8602  -49.0315 N.am      4 UNK        -0.5000 
     55 C           0.2056  -11.6001  -48.7375 C.2       3 UNK         0.5000 
     56 O          -0.9775  -11.2918  -48.5986 O.2       3 UNK        -0.5000 
     57 CA          1.2714  -10.5117  -48.4879 C.3       3 UNK         0.1400 
     58 CB          0.7902   -9.1226  -48.9467 C.3       3 UNK        -0.1800 
     59 N           1.4976  -10.4667  -47.0495 N.am      3 UNK        -0.5000 
     60 C           2.5462  -10.9820  -46.3988 C.2       2 UNK         0.5000 
     61 O           3.5390  -11.4555  -46.9528 O.2       2 UNK        -0.5000 
     62 CA          2.4523  -10.9975  -44.8623 C.3       2 UNK         0.1400 
     63 CB          3.1135   -9.7457  -44.2675 C.3       2 UNK        -0.1800 
     64 N           1.0699  -11.0814  -44.3856 N.am      2 UNK        -0.5000 
     65 C           0.2986  -12.1769  -44.4325 C.2       1 UNK         0.5000 
     66 O           0.7051  -13.2570  -44.8598 O.2       1 UNK        -0.5000 
     67 C          -3.4091  -22.7444  -45.1785 C.2       11 UNK         0.5000 
     68 O          -4.2891  -23.5906  -45.0186 O.2       11 UNK        -0.5000 
     69 N          -2.6061  -22.3146  -44.1944 N.am      12 UNK        -0.5000 
     70 CA         -2.6453  -22.8012  -42.8131 C.3       12 UNK         0.1400 
     71 CB         -1.7129  -21.9432  -41.9449 C.3       12 UNK        -0.1800 
     72 C          -2.2916  -24.2970  -42.6860 C.2       12 UNK         0.5000 
     73 O          -2.9191  -25.0051  -41.8980 O.2       12 UNK        -0.5000 
     74 N          -1.3180  -24.7558  -43.4840 N.am      13 UNK        -0.5000 
     75 CA         -0.8978  -26.1562  -43.5805 C.3       13 UNK         0.1400 
     76 CB          0.5005  -26.2065  -44.2170 C.3       13 UNK        -0.1800 
     77 C          -1.8729  -27.0474  -44.3786 C.2       13 UNK         0.5000 
     78 O          -1.7338  -28.2703  -44.3332 O.2       13 UNK        -0.5000 
     79 N          -2.8119  -26.4286  -45.1104 N.am      14 UNK        -0.5000 
     80 CA         -3.7571  -27.0332  -46.0559 C.3       14 UNK         0.1400 
     81 CB         -4.7422  -27.9777  -45.3369 C.3       14 UNK        -0.1800 
     82 C          -3.0605  -27.6901  -47.2690 C.2       14 UNK         0.5000 
     83 O          -3.5767  -28.6519  -47.8409 O.2       14 UNK        -0.5000 
     84 N          -1.9119  -27.1326  -47.6719 N.am      15 UNK        -0.5000 
     85 CA         -1.0928  -27.5521  -48.8082 C.3       15 UNK         0.1400 
     86 CB          0.3795  -27.2323  -48.4931 C.3       15 UNK        -0.1800 
     87 C          -1.5870  -26.8736  -50.1006 C.2       15 UNK         0.5000 
     88 O          -0.8415  -26.1329  -50.7468 O.2       15 UNK        -0.5000 
     89 N          -2.8771  -27.0817  -50.4070 N.am      16 UNK        -0.5000 
     90 CA         -3.6420  -26.5351  -51.5390 C.3       16 UNK         0.1400 
     91 CB         -3.1219  -27.1240  -52.8666 C.3       16 UNK        -0.1800 
     92 C          -3.7037  -24.9913  -51.5890 C.2       16 UNK         0.5000 
     93 O          -4.0635  -24.4322  -52.6269 O.2       16 UNK        -0.5000 
     94 N          -3.3137  -24.3278  -50.4892 N.am      17 UNK        -0.5000 
     95 CA         -3.1291  -22.8812  -50.3457 C.3       17 UNK         0.1400 
     96 CB         -4.4950  -22.1736  -50.2690 C.3       17 UNK        -0.1800 
     97 C          -2.1836  -22.2851  -51.4086 C.2       17 UNK         0.5000 
     98 O          -2.4513  -21.2044  -51.9272 O.2       17 UNK        -0.5000 
     99 N          -1.1214  -23.0326  -51.7541 N.am      18 UNK        -0.5000 
    100 CA        -0.1532  -22.7214  -52.8146 C.3       18 UNK         0.1400 
    101 CB         0.7361  -21.5262  -52.4090 C.3       18 UNK        -0.1800 
    102 C         -0.8289  -22.5373  -54.1937 C.2       18 UNK         0.5000 
    103 O         -0.5002  -21.6046  -54.9283 O.2       18 UNK        -0.5000 
    104 N         -1.7790  -23.4366  -54.4918 N.am      19 UNK        -0.5000 
    105 CA        -2.6843  -23.4386  -55.6437 C.3       19 UNK         0.1400 
    106 CB        -1.9141  -23.5169  -56.9797 C.3       19 UNK        -0.1800 
    107 C         -3.6993  -22.2789  -55.5762 C.2       19 UNK         0.5000 
    108 O         -3.8046  -21.4869  -56.5147 O.2       19 UNK        -0.5000 
    109 N         -4.4424  -22.2322  -54.4601 N.am      20 UNK        -0.5000 
    110 CA        -5.5539  -21.3199  -54.1652 C.3       20 UNK         0.1400 
    111 CB        -6.7584  -21.6343  -55.0779 C.3       20 UNK        -0.1800 
    112 C         -5.1591  -19.8271  -54.1776 C.2       20 UNK         0.5000 
    113 O         -5.8568  -19.0080  -54.7804 O.2       20 UNK        -0.5000 
    114 N         -4.0493  -19.4998  -53.5090 N.am      21 UNK        -0.5000 
    115 CA        -3.5261  -18.1470  -53.3515 C.3       21 UNK         0.1400 
    116 CB        -2.0572  -18.1466  -53.8073 C.3       21 UNK        -0.1800 
    117 C         -3.6260  -17.7022  -51.8824 C.2       21 UNK         0.5000 
    118 O         -3.6504  -18.5389  -50.9784 O.2       21 UNK        -0.5000 
    119 N         -3.6374  -16.3821  -51.6744 N.am      22 UNK        -0.5000 
    120 CA        -3.5263  -15.7383  -50.3519 C.3       22 UNK         0.1400 
    121 C         -2.2388  -14.8742  -50.2214 C.2       22 UNK         0.5000 
    122 N         -1.4691  -14.6435  -51.2811 N.am      22 UNK        -0.7600 
    123 O         -1.9157  -14.4155  -49.1320 O.2       22 UNK        -0.5000 
    124 C124       -4.7824  -14.8960  -50.0078 C.3       23 UNK        -0.0398 
    125 S125       -6.3145  -15.8895  -49.9567 S.3       23 UNK        -0.2404 
    126 C126       -6.9698  -15.5057  -48.3015 C.3       23 UNK        -0.0205 
    127 H127       -0.4302   -8.6077  -41.0651 H         1 UNK         0.0600 
    128 H128       -1.4281   -9.9412  -40.4777 H         1 UNK         0.0600 
    129 H129       -2.1859   -8.5480  -41.2541 H         1 UNK         0.0600 
    130 H130       -1.2894  -11.7114  -41.8123 H         1 UNK         0.3000 
    131 H131       -1.7067  -11.5109  -44.6698 H         1 UNK         0.0600 
    132 H132       -1.1651  -14.1600  -43.2764 H         1 UNK         0.0800 
    133 H133       -2.6164  -13.2935  -42.8838 H         1 UNK         0.0800 
    134 H134       -4.4574  -14.7749  -43.6383 H         1 UNK         0.0800 
    135 H135       -3.1711  -15.9533  -43.7455 H         1 UNK         0.0800 
    136 H136       -5.2070  -14.4052  -46.5307 H         1 UNK         0.1150 
    137 H137       -7.0727  -18.1213  -47.5602 H         1 UNK         0.1150 
    138 H138       -4.3472  -17.9394  -44.2591 H         1 UNK         0.1150 
    139 H139       -5.4970  -19.9775  -44.6680 H         1 UNK         0.0800 
    140 H140       -7.0729  -19.7733  -45.3871 H         1 UNK         0.0800 
    141 H141       -3.3962  -20.0858  -46.0338 H         1 UNK         0.0800 
    142 H142       -3.3598  -20.3631  -47.7500 H         1 UNK         0.0800 
    143 H143       -3.6375  -22.8682  -47.2899 H         1 UNK         0.0600 
    144 H144       -1.2663  -21.3359  -47.0907 H         1 UNK         0.3000 
    145 H145        1.0327  -24.0757  -46.9689 H         1 UNK         0.0600 
    146 H146        1.8913  -22.8656  -48.9677 H         1 UNK         0.0600 
    147 H147        0.4597  -23.8013  -49.3676 H         1 UNK         0.0600 
    148 H148        0.3380  -22.0581  -49.1665 H         1 UNK         0.0600 
    149 H149        1.4692  -21.2691  -47.0346 H         1 UNK         0.3000 
    150 H150        1.2925  -20.7339  -43.4723 H         1 UNK         0.0600 
    151 H151        3.5908  -21.5430  -44.0605 H         1 UNK         0.0600 
    152 H152        3.5165  -19.7900  -43.9727 H         1 UNK         0.0600 
    153 H153        3.5493  -20.5923  -45.5412 H         1 UNK         0.0600 
    154 H154        1.7327  -18.8927  -45.5736 H         1 UNK         0.3000 
    155 H155       -1.7129  -18.0028  -46.1601 H         1 UNK         0.0600 
    156 H156        0.7549  -16.6555  -44.9366 H         1 UNK         0.0600 
    157 H157       -0.8825  -16.6223  -44.3084 H         1 UNK         0.0600 
    158 H158       -0.5032  -15.8067  -45.8219 H         1 UNK         0.0600 
    159 H159        0.5985  -17.1340  -47.5036 H         1 UNK         0.3000 
    160 H160        0.8278  -19.7214  -49.9741 H         1 UNK         0.0600 
    161 H161        0.7245  -17.7144  -51.4319 H         1 UNK         0.0600 
    162 H162        0.0343  -16.7722  -50.1091 H         1 UNK         0.0600 
    163 H163       -0.8672  -18.1123  -50.8029 H         1 UNK         0.0600 
    164 H164        2.3193  -17.3208  -49.3309 H         1 UNK         0.3000 
    165 H165        4.8236  -18.9804  -47.3983 H         1 UNK         0.0600 
    166 H166        6.2561  -17.9262  -49.1219 H         1 UNK         0.0600 
    167 H167        5.4447  -19.3315  -49.7937 H         1 UNK         0.0600 
    168 H168        4.8707  -17.7169  -50.1931 H         1 UNK         0.0600 
    169 H169        4.4781  -16.2566  -48.2219 H         1 UNK         0.3000 
    170 H170        2.5447  -15.1908  -45.4283 H         1 UNK         0.0600 
    171 H171        4.8665  -15.3405  -44.5152 H         1 UNK         0.0600 
    172 H172        5.5126  -14.7403  -46.0385 H         1 UNK         0.0600 
    173 H173        4.4875  -13.7093  -45.0421 H         1 UNK         0.0600 
    174 H174        3.6528  -13.5497  -47.3289 H         1 UNK         0.3000 
    175 H175        2.6874  -12.7177  -49.0328 H         1 UNK         0.0600 
    176 H176        1.3284  -14.8402  -50.7549 H         1 UNK         0.0600 
    177 H177        1.9209  -13.2849  -51.3357 H         1 UNK         0.0600 
    178 H178        3.0444  -14.4728  -50.6948 H         1 UNK         0.0600 
    179 H179       -0.1969  -13.5443  -49.0373 H         1 UNK         0.3000 
    180 H180        2.1894  -10.7098  -49.0380 H         1 UNK         0.0600 
    181 H181       -0.1056   -8.7995  -48.4147 H         1 UNK         0.0600 
    182 H182        0.5581   -9.1245  -50.0124 H         1 UNK         0.0600 
    183 H183        1.5608   -8.3690  -48.7834 H         1 UNK         0.0600 
    184 H184        0.7163  -10.1435  -46.4971 H         1 UNK         0.3000 
    185 H185        2.9942  -11.8744  -44.5035 H         1 UNK         0.0600 
    186 H186        4.1535   -9.6646  -44.5866 H         1 UNK         0.0600 
    187 H187        2.6020   -8.8336  -44.5777 H         1 UNK         0.0600 
    188 H188        3.1103   -9.7785  -43.1778 H         1 UNK         0.0600 
    189 H189        0.6461  -10.2273  -44.0403 H         1 UNK         0.3000 
    190 H190       -1.9238  -21.5885  -44.4004 H         1 UNK         0.3000 
    191 H191       -3.6653  -22.6712  -42.4459 H         1 UNK         0.0600 
    192 H192       -1.7460  -22.2620  -40.9025 H         1 UNK         0.0600 
    193 H193       -2.0035  -20.8928  -41.9742 H         1 UNK         0.0600 
    194 H194       -0.6768  -22.0117  -42.2773 H         1 UNK         0.0600 
    195 H195       -0.7939  -24.0886  -44.0433 H         1 UNK         0.3000 
    196 H196       -0.8289  -26.5677  -42.5715 H         1 UNK         0.0600 
    197 H197        0.8737  -27.2301  -44.2679 H         1 UNK         0.0600 
    198 H198        1.2197  -25.6280  -43.6370 H         1 UNK         0.0600 
    199 H199        0.4921  -25.8100  -45.2328 H         1 UNK         0.0600 
    200 H200       -2.8241  -25.4170  -45.0840 H         1 UNK         0.3000 
    201 H201       -4.3386  -26.2041  -46.4613 H         1 UNK         0.0600 
    202 H202       -5.2131  -27.4824  -44.4877 H         1 UNK         0.0600 
    203 H203       -4.2495  -28.8784  -44.9703 H         1 UNK         0.0600 
    204 H204       -5.5401  -28.2946  -46.0094 H         1 UNK         0.0600 
    205 H205       -1.6244  -26.2690  -47.2152 H         1 UNK         0.3000 
    206 H206       -1.1814  -28.6316  -48.9459 H         1 UNK         0.0600 
    207 H207        0.7070  -27.7423  -47.5870 H         1 UNK         0.0600 
    208 H208        1.0330  -27.5566  -49.3038 H         1 UNK         0.0600 
    209 H209        0.5381  -26.1634  -48.3492 H         1 UNK         0.0600 
    210 H210       -3.3987  -27.6856  -49.7812 H         1 UNK         0.3000 
    211 H211       -4.6705  -26.8726  -51.4047 H         1 UNK         0.0600 
    212 H212       -2.1140  -26.7771  -53.0966 H         1 UNK         0.0600 
    213 H213       -3.7632  -26.8411  -53.7022 H         1 UNK         0.0600 
    214 H214       -3.1013  -28.2132  -52.8326 H         1 UNK         0.0600 
    215 H215       -3.0188  -24.8867  -49.7018 H         1 UNK         0.3000 
    216 H216       -2.6211  -22.7233  -49.3987 H         1 UNK         0.0600 
    217 H217       -4.3777  -21.1033  -50.0940 H         1 UNK         0.0600 
    218 H218       -5.0959  -22.5706  -49.4514 H         1 UNK         0.0600 
    219 H219       -5.0645  -22.2991  -51.1871 H         1 UNK         0.0600 
    220 H220       -1.0083  -23.9373  -51.3109 H         1 UNK         0.3000 
    221 H221        0.4935  -23.5950  -52.9074 H         1 UNK         0.0600 
    222 H222        0.1592  -20.6069  -52.3049 H         1 UNK         0.0600 
    223 H223        1.2428  -21.7150  -51.4634 H         1 UNK         0.0600 
    224 H224        1.5095  -21.3428  -53.1554 H         1 UNK         0.0600 
    225 H225       -2.0022  -24.1201  -53.7818 H         1 UNK         0.3000 
    226 H226       -3.2695  -24.3558  -55.5606 H         1 UNK         0.0600 
    227 H227       -2.6023  -23.6616  -57.8132 H         1 UNK         0.0600 
    228 H228       -1.3482  -22.6079  -57.1837 H         1 UNK         0.0600 
    229 H229       -1.2175  -24.3551  -56.9848 H         1 UNK         0.0600 
    230 H230       -4.2645  -22.9399  -53.7505 H         1 UNK         0.3000 
    231 H231       -5.8664  -21.5359  -53.1446 H         1 UNK         0.0600 
    232 H232       -7.0396  -22.6852  -55.0105 H         1 UNK         0.0600 
    233 H233       -6.5445  -21.4106  -56.1234 H         1 UNK         0.0600 
    234 H234       -7.6315  -21.0477  -54.7897 H         1 UNK         0.0600 
    235 H235       -3.5487  -20.2111  -52.9762 H         1 UNK         0.3000 
    236 H236       -4.0840  -17.4392  -53.9678 H         1 UNK         0.0600 
    237 H237       -1.9704  -18.4475  -54.8516 H         1 UNK         0.0600 
    238 H238       -1.6124  -17.1554  -53.7150 H         1 UNK         0.0600 
    239 H239       -1.4538  -18.8354  -53.2144 H         1 UNK         0.0600 
    240 H240       -3.6625  -15.7574  -52.4665 H         1 UNK         0.3000 
    241 H241       -3.4273  -16.5017  -49.5774 H         1 UNK         0.0600 
    242 H242       -0.6531  -14.0643  -51.1800 H         1 UNK         0.3800 
    243 H243       -1.6864  -15.0325  -52.1824 H         1 UNK         0.3800 
    244 H244       -4.6510  -14.3977  -49.0460 H         1 UNK         0.0800 
    245 H245       -4.9183  -14.1004  -50.7419 H         1 UNK         0.0800 
    246 H246       -6.9830  -14.4245  -48.1555 H         1 UNK         0.0800 
    247 H247       -8.0116  -15.8265  -48.2584 H         1 UNK         0.0800 
@<TRIPOS>BOND
     1    1    2 1    
     2    1  127 1    
     3    1  128 1    
     4    1  129 1    
     5    2    3 2    
     6    2    4 am   BACKBONE|DICT|INTERRES
     7    4    5 1    
     8    4  130 1    
     9    5    6 1    
    10    5   65 1    
    11    5  131 1    
    12    6    7 1    
    13    6  132 1    
    14    6  133 1    
    15    7    8 1    
    16    8    9 1    
    17    8  134 1    
    18    8  135 1    
    19    9   10 ar   
    20    9   14 ar   
    21   10   11 ar   
    22   10  136 1    
    23   11   12 ar   
    24   11  126 1    
    25   12   13 ar   
    26   12  137 1    
    27   13   14 ar   
    28   13   15 1    
    29   14  138 1    
    30   15   16 1    
    31   15  139 1    
    32   15  140 1    
    33   16   17 1    
    34   17   18 1    
    35   17  141 1    
    36   17  142 1    
    37   18   19 1    
    38   18   67 1    
    39   18  143 1    
    40   19   20 am   BACKBONE|DICT|INTERRES
    41   19  144 1    
    42   20   21 2    
    43   20   22 1    
    44   22   23 1    
    45   22   24 1    
    46   22  145 1    
    47   23  146 1    
    48   23  147 1    
    49   23  148 1    
    50   24   25 am   BACKBONE|DICT|INTERRES
    51   24  149 1    
    52   25   26 2    
    53   25   27 1    
    54   27   28 1    
    55   27   29 1    
    56   27  150 1    
    57   28  151 1    
    58   28  152 1    
    59   28  153 1    
    60   29   30 am   BACKBONE|DICT|INTERRES
    61   29  154 1    
    62   30   31 2    
    63   30   32 1    
    64   32   33 1    
    65   32   34 1    
    66   32  155 1    
    67   33  156 1    
    68   33  157 1    
    69   33  158 1    
    70   34   35 am   BACKBONE|DICT|INTERRES
    71   34  159 1    
    72   35   36 2    
    73   35   37 1    
    74   37   38 1    
    75   37   39 1    
    76   37  160 1    
    77   38  161 1    
    78   38  162 1    
    79   38  163 1    
    80   39   40 am   BACKBONE|DICT|INTERRES
    81   39  164 1    
    82   40   41 2    
    83   40   42 1    
    84   42   43 1    
    85   42   44 1    
    86   42  165 1    
    87   43  166 1    
    88   43  167 1    
    89   43  168 1    
    90   44   45 am   BACKBONE|DICT|INTERRES
    91   44  169 1    
    92   45   46 2    
    93   45   47 1    
    94   47   48 1    
    95   47   49 1    
    96   47  170 1    
    97   48  171 1    
    98   48  172 1    
    99   48  173 1    
   100   49   50 am   BACKBONE|DICT|INTERRES
   101   49  174 1    
   102   50   51 2    
   103   50   52 1    
   104   52   53 1    
   105   52   54 1    
   106   52  175 1    
   107   53  176 1    
   108   53  177 1    
   109   53  178 1    
   110   54   55 am   BACKBONE|DICT|INTERRES
   111   54  179 1    
   112   55   56 2    
   113   55   57 1    
   114   57   58 1    
   115   57   59 1    
   116   57  180 1    
   117   58  181 1    
   118   58  182 1    
   119   58  183 1    
   120   59   60 am   BACKBONE|DICT|INTERRES
   121   59  184 1    
   122   60   61 2    
   123   60   62 1    
   124   62   63 1    
   125   62   64 1    
   126   62  185 1    
   127   63  186 1    
   128   63  187 1    
   129   63  188 1    
   130   64   65 am   BACKBONE|DICT|INTERRES
   131   64  189 1    
   132   65   66 2    
   133   67   68 2    
   134   67   69 am   BACKBONE|DICT|INTERRES
   135   69   70 1    
   136   69  190 1    
   137   70   71 1    
   138   70   72 1    
   139   70  191 1    
   140   71  192 1    
   141   71  193 1    
   142   71  194 1    
   143   72   73 2    
   144   72   74 am   BACKBONE|DICT|INTERRES
   145   74   75 1    
   146   74  195 1    
   147   75   76 1    
   148   75   77 1    
   149   75  196 1    
   150   76  197 1    
   151   76  198 1    
   152   76  199 1    
   153   77   78 2    
   154   77   79 am   BACKBONE|DICT|INTERRES
   155   79   80 1    
   156   79  200 1    
   157   80   81 1    
   158   80   82 1    
   159   80  201 1    
   160   81  202 1    
   161   81  203 1    
   162   81  204 1    
   163   82   83 2    
   164   82   84 am   BACKBONE|DICT|INTERRES
   165   84   85 1    
   166   84  205 1    
   167   85   86 1    
   168   85   87 1    
   169   85  206 1    
   170   86  207 1    
   171   86  208 1    
   172   86  209 1    
   173   87   88 2    
   174   87   89 am   BACKBONE|DICT|INTERRES
   175   89   90 1    
   176   89  210 1    
   177   90   91 1    
   178   90   92 1    
   179   90  211 1    
   180   91  212 1    
   181   91  213 1    
   182   91  214 1    
   183   92   93 2    
   184   92   94 am   BACKBONE|DICT|INTERRES
   185   94   95 1    
   186   94  215 1    
   187   95   96 1    
   188   95   97 1    
   189   95  216 1    
   190   96  217 1    
   191   96  218 1    
   192   96  219 1    
   193   97   98 2    
   194   97   99 am   BACKBONE|DICT|INTERRES
   195   99  100 1    
   196   99  220 1    
   197  100  101 1    
   198  100  102 1    
   199  100  221 1    
   200  101  222 1    
   201  101  223 1    
   202  101  224 1    
   203  102  103 2    
   204  102  104 am   BACKBONE|DICT|INTERRES
   205  104  105 1    
   206  104  225 1    
   207  105  106 1    
   208  105  107 1    
   209  105  226 1    
   210  106  227 1    
   211  106  228 1    
   212  106  229 1    
   213  107  108 2    
   214  107  109 am   BACKBONE|DICT|INTERRES
   215  109  110 1    
   216  109  230 1    
   217  110  111 1    
   218  110  112 1    
   219  110  231 1    
   220  111  232 1    
   221  111  233 1    
   222  111  234 1    
   223  112  113 2    
   224  112  114 am   BACKBONE|DICT|INTERRES
   225  114  115 1    
   226  114  235 1    
   227  115  116 1    
   228  115  117 1    
   229  115  236 1    
   230  116  237 1    
   231  116  238 1    
   232  116  239 1    
   233  117  118 2    
   234  117  119 am   BACKBONE|DICT|INTERRES
   235  119  120 1    
   236  119  240 1    
   237  120  121 1    
   238  120  124 1    
   239  120  241 1    
   240  121  122 am   BACKBONE|DICT|INTERRES
   241  121  123 2    
   242  122  242 1    
   243  122  243 1    
   244  124  125 1    
   245  124  244 1    
   246  124  245 1    
   247  125  126 1    
   248  126  246 1    
   249  126  247 1    
@<TRIPOS>SUBSTRUCTURE
     1 UNK         1 GROUP             0       ****    0 ROOT    
