@<TRIPOS>MOLECULE
3R540
247   249    1
SMALL
USER_CHARGES


@<TRIPOS>ATOM
      1 CA          1.3340  -11.8220  -47.3188 C.3       0 UNK        -0.1800 
      2 C          -0.1321  -12.2310  -47.3208 C.2       0 UNK         0.5000 
      3 O          -0.9870  -11.4399  -47.7178 O.2       0 UNK        -0.5000 
      4 N          -0.4170  -13.4596  -46.8673 N.am      1 UNK        -0.5000 
      5 CA         -1.7467  -14.0875  -46.7863 C.3       1 UNK         0.1400 
      6 C6         -2.4233  -14.2952  -48.1729 C.3       23 UNK        -0.0398 
      7 S7         -1.4839  -15.4132  -49.2714 S.3       23 UNK        -0.2404 
      8 C8         -2.2399  -17.0008  -48.7990 C.3       23 UNK        -0.0205 
      9 C9         -1.7360  -18.1896  -49.6087 C.ar      23 UNK        -0.0193 
     10 C10        -2.6507  -19.0246  -50.2620 C.ar      23 UNK        -0.1150 
     11 C11        -2.2178  -20.1870  -50.9055 C.ar      23 UNK        -0.0193 
     12 C12        -0.8563  -20.4848  -50.9331 C.ar      23 UNK        -0.1150 
     13 C13         0.0702  -19.6631  -50.2917 C.ar      23 UNK        -0.0193 
     14 C14        -0.3751  -18.5157  -49.6279 C.ar      23 UNK        -0.1150 
     15 C15         1.5433  -20.0454  -50.2952 C.3       23 UNK        -0.0205 
     16 S16         1.8335  -21.6785  -49.5311 S.3       23 UNK        -0.2404 
     17 C17         1.4234  -21.3196  -47.7933 C.3       23 UNK        -0.0398 
     18 CA          0.5219  -22.3603  -47.0842 C.3       11 UNK         0.1400 
     19 N           0.5157  -22.1108  -45.6382 N.am      11 UNK        -0.5000 
     20 C          -0.0693  -22.8735  -44.7051 C.2       10 UNK         0.5000 
     21 O          -0.6344  -23.9390  -44.9469 O.2       10 UNK        -0.5000 
     22 CA         -0.0648  -22.3239  -43.2651 C.3       10 UNK         0.1400 
     23 CB          1.2797  -22.5965  -42.5748 C.3       10 UNK        -0.1800 
     24 N          -0.3655  -20.8910  -43.2119 N.am      10 UNK        -0.5000 
     25 C          -1.5437  -20.3531  -43.5596 C.2       9 UNK         0.5000 
     26 O          -2.5221  -21.0212  -43.8913 O.2       9 UNK        -0.5000 
     27 CA         -1.6291  -18.8139  -43.6021 C.3       9 UNK         0.1400 
     28 CB         -1.8873  -18.2309  -42.2055 C.3       9 UNK        -0.1800 
     29 N          -0.4322  -18.2028  -44.1840 N.am      9 UNK        -0.5000 
     30 C          -0.0389  -18.3891  -45.4516 C.2       8 UNK         0.5000 
     31 O          -0.6872  -19.0317  -46.2733 O.2       8 UNK        -0.5000 
     32 CA          1.3282  -17.8137  -45.8573 C.3       8 UNK         0.1400 
     33 CB          1.2005  -16.3522  -46.3018 C.3       8 UNK        -0.1800 
     34 N           2.3069  -17.9264  -44.7770 N.am      8 UNK        -0.5000 
     35 C           2.8501  -19.0853  -44.3777 C.2       7 UNK         0.5000 
     36 O           2.6092  -20.1685  -44.9089 O.2       7 UNK        -0.5000 
     37 CA          3.7764  -19.0309  -43.1492 C.3       7 UNK         0.1400 
     38 CB          5.1996  -18.6258  -43.5598 C.3       7 UNK        -0.1800 
     39 N           3.2845  -18.1109  -42.1229 N.am      7 UNK        -0.5000 
     40 C           2.1524  -18.2901  -41.4276 C.2       6 UNK         0.5000 
     41 O           1.4392  -19.2875  -41.5344 O.2       6 UNK        -0.5000 
     42 CA          1.7186  -17.1399  -40.4990 C.3       6 UNK         0.1400 
     43 CB          2.3113  -17.3256  -39.0949 C.3       6 UNK        -0.1800 
     44 N           2.0839  -15.8142  -41.0056 N.am      6 UNK        -0.5000 
     45 C           1.6510  -15.2717  -42.1504 C.2       5 UNK         0.5000 
     46 O           0.8786  -15.8489  -42.9178 O.2       5 UNK        -0.5000 
     47 CA          2.1905  -13.8648  -42.4908 C.3       5 UNK         0.1400 
     48 CB          1.7701  -13.3925  -43.8935 C.3       5 UNK        -0.1800 
     49 N           1.7886  -12.8585  -41.5047 N.am      5 UNK        -0.5000 
     50 C           2.3235  -12.7210  -40.2817 C.2       4 UNK         0.5000 
     51 O           3.2166  -13.4553  -39.8541 O.2       4 UNK        -0.5000 
     52 CA          1.8055  -11.5836  -39.3783 C.3       4 UNK         0.1400 
     53 CB          2.9021  -10.5285  -39.1610 C.3       4 UNK        -0.1800 
     54 N           0.6085  -10.9090  -39.8798 N.am      4 UNK        -0.5000 
     55 C          -0.6340  -11.4063  -39.8544 C.2       3 UNK         0.5000 
     56 O          -0.9113  -12.5302  -39.4329 O.2       3 UNK        -0.5000 
     57 CA         -1.7652  -10.4974  -40.3818 C.3       3 UNK         0.1400 
     58 CB         -1.3240   -9.0473  -40.6882 C.3       3 UNK        -0.1800 
     59 N          -2.4461  -11.0691  -41.5464 N.am      3 UNK        -0.5000 
     60 C          -1.8890  -11.4397  -42.7072 C.2       2 UNK         0.5000 
     61 O          -0.6772  -11.4038  -42.9418 O.2       2 UNK        -0.5000 
     62 CA         -2.8687  -11.8880  -43.8004 C.3       2 UNK         0.1400 
     63 CB         -3.5899  -10.6710  -44.4134 C.3       2 UNK        -0.1800 
     64 N          -2.1425  -12.6117  -44.8385 N.am      2 UNK        -0.5000 
     65 C          -2.6925  -13.4086  -45.7631 C.2       1 UNK         0.5000 
     66 O          -3.9022  -13.6388  -45.8091 O.2       1 UNK        -0.5000 
     67 C          -0.9135  -22.4212  -47.6620 C.2       11 UNK         0.5000 
     68 O          -1.2281  -23.3427  -48.4195 O.2       11 UNK        -0.5000 
     69 N          -1.7730  -21.4847  -47.2315 N.am      12 UNK        -0.5000 
     70 CA         -3.1988  -21.4370  -47.5510 C.3       12 UNK         0.1400 
     71 CB         -3.8050  -20.1139  -47.0589 C.3       12 UNK        -0.1800 
     72 C          -3.9811  -22.6267  -46.9750 C.2       12 UNK         0.5000 
     73 O          -4.7653  -23.2359  -47.7014 O.2       12 UNK        -0.5000 
     74 N          -3.7416  -22.9519  -45.6963 N.am      13 UNK        -0.5000 
     75 CA         -4.3687  -24.0715  -44.9876 C.3       13 UNK         0.1400 
     76 CB         -3.9894  -24.0167  -43.5002 C.3       13 UNK        -0.1800 
     77 C          -4.0136  -25.4432  -45.5909 C.2       13 UNK         0.5000 
     78 O          -4.8758  -26.3197  -45.6620 O.2       13 UNK        -0.5000 
     79 N          -2.7631  -25.5895  -46.0470 N.am      14 UNK        -0.5000 
     80 CA         -2.2710  -26.7552  -46.7812 C.3       14 UNK         0.1400 
     81 CB         -0.7341  -26.7279  -46.7702 C.3       14 UNK        -0.1800 
     82 C          -2.7879  -26.8283  -48.2329 C.2       14 UNK         0.5000 
     83 O          -2.7085  -27.8973  -48.8395 O.2       14 UNK        -0.5000 
     84 N          -3.2737  -25.6958  -48.7667 N.am      15 UNK        -0.5000 
     85 CA         -3.6662  -25.4547  -50.1603 C.3       15 UNK         0.1400 
     86 CB         -4.9358  -26.2516  -50.5217 C.3       15 UNK        -0.1800 
     87 C          -2.4954  -25.6894  -51.1387 C.2       15 UNK         0.5000 
     88 O          -2.6807  -26.2584  -52.2165 O.2       15 UNK        -0.5000 
     89 N          -1.2974  -25.2735  -50.7125 N.am      16 UNK        -0.5000 
     90 CA         -0.0391  -25.4417  -51.4314 C.3       16 UNK         0.1400 
     91 CB          1.0959  -25.4448  -50.3924 C.3       16 UNK        -0.1800 
     92 C           0.1637  -24.3463  -52.4956 C.2       16 UNK         0.5000 
     93 O          -0.6787  -23.4601  -52.6459 O.2       16 UNK        -0.5000 
     94 N           1.2877  -24.4338  -53.2211 N.am      17 UNK        -0.5000 
     95 CA          1.8651  -23.4614  -54.1644 C.3       17 UNK         0.1400 
     96 CB          2.2046  -22.1459  -53.4381 C.3       17 UNK        -0.1800 
     97 C           1.0586  -23.1610  -55.4456 C.2       17 UNK         0.5000 
     98 O           1.6732  -22.8599  -56.4696 O.2       17 UNK        -0.5000 
     99 N          -0.2773  -23.2223  -55.3703 N.am      18 UNK        -0.5000 
    100 CA        -1.2489  -22.8039  -56.3862 C.3       18 UNK         0.1400 
    101 CB        -1.1661  -23.6911  -57.6457 C.3       18 UNK        -0.1800 
    102 C         -1.1403  -21.2940  -56.6876 C.2       18 UNK         0.5000 
    103 O         -1.1459  -20.8794  -57.8491 O.2       18 UNK        -0.5000 
    104 N         -1.0298  -20.4965  -55.6167 N.am      19 UNK        -0.5000 
    105 CA        -0.9600  -19.0363  -55.6227 C.3       19 UNK         0.1400 
    106 CB        -0.3827  -18.5713  -54.2728 C.3       19 UNK        -0.1800 
    107 C         -2.3383  -18.4124  -55.9292 C.2       19 UNK         0.5000 
    108 O         -2.9680  -17.8253  -55.0481 O.2       19 UNK        -0.5000 
    109 N         -2.7819  -18.5808  -57.1813 N.am      20 UNK        -0.5000 
    110 CA        -4.0945  -18.2260  -57.7206 C.3       20 UNK         0.1400 
    111 CB        -4.3579  -16.7040  -57.6385 C.3       20 UNK        -0.1800 
    112 C         -5.1993  -19.1132  -57.1110 C.2       20 UNK         0.5000 
    113 O         -5.1109  -20.3380  -57.2261 O.2       20 UNK        -0.5000 
    114 N         -6.2278  -18.5012  -56.5103 N.am      21 UNK        -0.5000 
    115 CA        -7.4471  -19.1366  -56.0021 C.3       21 UNK         0.1400 
    116 CB        -8.5367  -18.0563  -55.8708 C.3       21 UNK        -0.1800 
    117 C         -7.2492  -19.9435  -54.6970 C.2       21 UNK         0.5000 
    118 O         -7.9579  -19.7156  -53.7145 O.2       21 UNK        -0.5000 
    119 N         -6.3035  -20.8876  -54.7141 N.am      22 UNK        -0.5000 
    120 CA        -6.0447  -21.8506  -53.6295 C.3       22 UNK         0.1400 
    121 C         -7.0217  -23.0634  -53.6069 C.2       22 UNK         0.5000 
    122 N         -7.8675  -23.2636  -54.6107 N.am      22 UNK        -0.7600 
    123 O         -7.0194  -23.8344  -52.6518 O.2       22 UNK        -0.5000 
    124 C124       -4.5724  -22.3328  -53.6303 C.3       23 UNK        -0.0398 
    125 S125       -3.4047  -20.9769  -53.2859 S.3       23 UNK        -0.2404 
    126 C126       -3.2154  -21.1725  -51.4918 C.3       23 UNK        -0.0205 
    127 H127        1.6360  -11.5026  -48.3162 H         1 UNK         0.0600 
    128 H128        1.9846  -12.6424  -47.0146 H         1 UNK         0.0600 
    129 H129        1.4897  -10.9910  -46.6308 H         1 UNK         0.0600 
    130 H130        0.3469  -14.0481  -46.5705 H         1 UNK         0.3000 
    131 H131       -1.5737  -15.0790  -46.3660 H         1 UNK         0.0600 
    132 H132       -2.5528  -13.3407  -48.6839 H         1 UNK         0.0800 
    133 H133       -3.4295  -14.7024  -48.0640 H         1 UNK         0.0800 
    134 H134       -2.0362  -17.1872  -47.7444 H         1 UNK         0.0800 
    135 H135       -3.3236  -16.9168  -48.8932 H         1 UNK         0.0800 
    136 H136       -3.7073  -18.8003  -50.2250 H         1 UNK         0.1150 
    137 H137       -0.5146  -21.3839  -51.4184 H         1 UNK         0.1150 
    138 H138        0.3306  -17.8868  -49.1049 H         1 UNK         0.1150 
    139 H139        1.9002  -20.0639  -51.3250 H         1 UNK         0.0800 
    140 H140        2.1428  -19.2952  -49.7773 H         1 UNK         0.0800 
    141 H141        0.9739  -20.3317  -47.7251 H         1 UNK         0.0800 
    142 H142        2.3775  -21.2482  -47.2706 H         1 UNK         0.0800 
    143 H143        0.9686  -23.3459  -47.2301 H         1 UNK         0.0600 
    144 H144        1.0077  -21.2783  -45.3303 H         1 UNK         0.3000 
    145 H145       -0.8420  -22.8493  -42.7067 H         1 UNK         0.0600 
    146 H146        1.2622  -22.2665  -41.5359 H         1 UNK         0.0600 
    147 H147        1.5085  -23.6629  -42.5745 H         1 UNK         0.0600 
    148 H148        2.1027  -22.0841  -43.0727 H         1 UNK         0.0600 
    149 H149        0.3734  -20.2779  -42.8819 H         1 UNK         0.3000 
    150 H150       -2.4758  -18.5475  -44.2382 H         1 UNK         0.0600 
    151 H151       -2.8315  -18.5982  -41.8019 H         1 UNK         0.0600 
    152 H152       -1.9458  -17.1425  -42.2354 H         1 UNK         0.0600 
    153 H153       -1.1041  -18.5057  -41.5003 H         1 UNK         0.0600 
    154 H154        0.1267  -17.6066  -43.5828 H         1 UNK         0.3000 
    155 H155        1.6995  -18.3852  -46.7093 H         1 UNK         0.0600 
    156 H156        0.7505  -15.7372  -45.5243 H         1 UNK         0.0600 
    157 H157        0.5708  -16.2778  -47.1883 H         1 UNK         0.0600 
    158 H158        2.1715  -15.9273  -46.5565 H         1 UNK         0.0600 
    159 H159        2.5019  -17.0881  -44.2503 H         1 UNK         0.3000 
    160 H160        3.8165  -20.0331  -42.7172 H         1 UNK         0.0600 
    161 H161        5.8790  -18.6557  -42.7078 H         1 UNK         0.0600 
    162 H162        5.2292  -17.6191  -43.9784 H         1 UNK         0.0600 
    163 H163        5.5960  -19.3070  -44.3141 H         1 UNK         0.0600 
    164 H164        3.8160  -17.2671  -41.9678 H         1 UNK         0.3000 
    165 H165        0.6307  -17.1735  -40.4175 H         1 UNK         0.0600 
    166 H166        1.9436  -16.5629  -38.4082 H         1 UNK         0.0600 
    167 H167        2.0362  -18.2962  -38.6798 H         1 UNK         0.0600 
    168 H168        3.4005  -17.2692  -39.1069 H         1 UNK         0.0600 
    169 H169        2.6848  -15.2431  -40.4184 H         1 UNK         0.3000 
    170 H170        3.2806  -13.9290  -42.4868 H         1 UNK         0.0600 
    171 H171        0.6880  -13.4163  -44.0197 H         1 UNK         0.0600 
    172 H172        2.1081  -12.3746  -44.0888 H         1 UNK         0.0600 
    173 H173        2.2082  -14.0292  -44.6617 H         1 UNK         0.0600 
    174 H174        1.0343  -12.2398  -41.7789 H         1 UNK         0.3000 
    175 H175        1.5669  -12.0284  -38.4101 H         1 UNK         0.0600 
    176 H176        3.1829  -10.0423  -40.0961 H         1 UNK         0.0600 
    177 H177        2.5748   -9.7560  -38.4649 H         1 UNK         0.0600 
    178 H178        3.8032  -10.9783  -38.7418 H         1 UNK         0.0600 
    179 H179        0.7444   -9.9881  -40.2711 H         1 UNK         0.3000 
    180 H180       -2.5069  -10.4500  -39.5833 H         1 UNK         0.0600 
    181 H181       -0.5966   -8.9985  -41.4994 H         1 UNK         0.0600 
    182 H182       -0.8823   -8.5735  -39.8106 H         1 UNK         0.0600 
    183 H183       -2.1787   -8.4370  -40.9804 H         1 UNK         0.0600 
    184 H184       -3.4466  -11.1695  -41.4473 H         1 UNK         0.3000 
    185 H185       -3.6006  -12.5592  -43.3462 H         1 UNK         0.0600 
    186 H186       -4.1191  -10.0978  -43.6514 H         1 UNK         0.0600 
    187 H187       -2.8861   -9.9963  -44.9026 H         1 UNK         0.0600 
    188 H188       -4.3292  -10.9749  -45.1544 H         1 UNK         0.0600 
    189 H189       -1.1404  -12.4721  -44.8215 H         1 UNK         0.3000 
    190 H190       -1.4138  -20.7200  -46.6659 H         1 UNK         0.3000 
    191 H191       -3.2932  -21.4745  -48.6359 H         1 UNK         0.0600 
    192 H192       -3.8037  -20.0429  -45.9719 H         1 UNK         0.0600 
    193 H193       -4.8381  -20.0120  -47.3927 H         1 UNK         0.0600 
    194 H194       -3.2535  -19.2590  -47.4414 H         1 UNK         0.0600 
    195 H195       -3.1170  -22.3630  -45.1518 H         1 UNK         0.3000 
    196 H196       -5.4506  -23.9470  -45.0664 H         1 UNK         0.0600 
    197 H197       -4.4695  -24.8230  -42.9445 H         1 UNK         0.0600 
    198 H198       -4.3046  -23.0766  -43.0471 H         1 UNK         0.0600 
    199 H199       -2.9133  -24.1136  -43.3558 H         1 UNK         0.0600 
    200 H200       -2.0928  -24.8443  -45.8767 H         1 UNK         0.3000 
    201 H201       -2.6033  -27.6579  -46.2646 H         1 UNK         0.0600 
    202 H202       -0.3467  -26.7410  -45.7513 H         1 UNK         0.0600 
    203 H203       -0.3459  -25.8358  -47.2637 H         1 UNK         0.0600 
    204 H204       -0.3211  -27.5953  -47.2867 H         1 UNK         0.0600 
    205 H205       -3.2997  -24.8774  -48.1720 H         1 UNK         0.3000 
    206 H206       -3.9122  -24.3940  -50.2287 H         1 UNK         0.0600 
    207 H207       -5.7400  -26.0497  -49.8142 H         1 UNK         0.0600 
    208 H208       -5.2998  -25.9751  -51.5120 H         1 UNK         0.0600 
    209 H209       -4.7540  -27.3265  -50.5276 H         1 UNK         0.0600 
    210 H210       -1.2536  -24.7364  -49.8513 H         1 UNK         0.3000 
    211 H211       -0.0453  -26.4070  -51.9416 H         1 UNK         0.0600 
    212 H212        1.1333  -24.5063  -49.8400 H         1 UNK         0.0600 
    213 H213        2.0711  -25.5947  -50.8559 H         1 UNK         0.0600 
    214 H214        0.9594  -26.2478  -49.6676 H         1 UNK         0.0600 
    215 H215        1.8747  -25.2395  -53.0569 H         1 UNK         0.3000 
    216 H216        2.8065  -23.9034  -54.4946 H         1 UNK         0.0600 
    217 H217        2.7458  -21.4639  -54.0950 H         1 UNK         0.0600 
    218 H218        2.8334  -22.3255  -52.5660 H         1 UNK         0.0600 
    219 H219        1.3056  -21.6277  -53.1039 H         1 UNK         0.0600 
    220 H220       -0.6574  -23.4189  -54.4459 H         1 UNK         0.3000 
    221 H221       -2.2347  -22.9552  -55.9451 H         1 UNK         0.0600 
    222 H222       -0.2303  -23.5487  -58.1864 H         1 UNK         0.0600 
    223 H223       -1.2489  -24.7473  -57.3894 H         1 UNK         0.0600 
    224 H224       -1.9781  -23.4601  -58.3361 H         1 UNK         0.0600 
    225 H225       -1.0819  -20.9249  -54.7031 H         1 UNK         0.3000 
    226 H226       -0.2692  -18.7218  -56.4076 H         1 UNK         0.0600 
    227 H227       -0.2804  -17.4859  -54.2450 H         1 UNK         0.0600 
    228 H228       -1.0228  -18.8606  -53.4383 H         1 UNK         0.0600 
    229 H229        0.6057  -18.9963  -54.0969 H         1 UNK         0.0600 
    230 H230       -2.2150  -19.1725  -57.7811 H         1 UNK         0.3000 
    231 H231       -4.0598  -18.4864  -58.7793 H         1 UNK         0.0600 
    232 H232       -3.5501  -16.1450  -58.1109 H         1 UNK         0.0600 
    233 H233       -4.4471  -16.3476  -56.6122 H         1 UNK         0.0600 
    234 H234       -5.2768  -16.4374  -58.1622 H         1 UNK         0.0600 
    235 H235       -6.1867  -17.4966  -56.4204 H         1 UNK         0.3000 
    236 H236       -7.7892  -19.8498  -56.7548 H         1 UNK         0.0600 
    237 H237       -8.7123  -17.5545  -56.8226 H         1 UNK         0.0600 
    238 H238       -9.4869  -18.4913  -55.5580 H         1 UNK         0.0600 
    239 H239       -8.2637  -17.2974  -55.1364 H         1 UNK         0.0600 
    240 H240       -5.7450  -20.9805  -55.5578 H         1 UNK         0.3000 
    241 H241       -6.2121  -21.3354  -52.6817 H         1 UNK         0.0600 
    242 H242       -8.4973  -24.0501  -54.5777 H         1 UNK         0.3800 
    243 H243       -7.8810  -22.6442  -55.4046 H         1 UNK         0.3800 
    244 H244       -4.3201  -22.7696  -54.5973 H         1 UNK         0.0800 
    245 H245       -4.4129  -23.1244  -52.8956 H         1 UNK         0.0800 
    246 H246       -4.1883  -21.0565  -51.0121 H         1 UNK         0.0800 
    247 H247       -2.8815  -22.1884  -51.2729 H         1 UNK         0.0800 
@<TRIPOS>BOND
     1    1    2 1    
     2    1  127 1    
     3    1  128 1    
     4    1  129 1    
     5    2    3 2    
     6    2    4 am   BACKBONE|DICT|INTERRES
     7    4    5 1    
     8    4  130 1    
     9    5    6 1    
    10    5   65 1    
    11    5  131 1    
    12    6    7 1    
    13    6  132 1    
    14    6  133 1    
    15    7    8 1    
    16    8    9 1    
    17    8  134 1    
    18    8  135 1    
    19    9   10 ar   
    20    9   14 ar   
    21   10   11 ar   
    22   10  136 1    
    23   11   12 ar   
    24   11  126 1    
    25   12   13 ar   
    26   12  137 1    
    27   13   14 ar   
    28   13   15 1    
    29   14  138 1    
    30   15   16 1    
    31   15  139 1    
    32   15  140 1    
    33   16   17 1    
    34   17   18 1    
    35   17  141 1    
    36   17  142 1    
    37   18   19 1    
    38   18   67 1    
    39   18  143 1    
    40   19   20 am   BACKBONE|DICT|INTERRES
    41   19  144 1    
    42   20   21 2    
    43   20   22 1    
    44   22   23 1    
    45   22   24 1    
    46   22  145 1    
    47   23  146 1    
    48   23  147 1    
    49   23  148 1    
    50   24   25 am   BACKBONE|DICT|INTERRES
    51   24  149 1    
    52   25   26 2    
    53   25   27 1    
    54   27   28 1    
    55   27   29 1    
    56   27  150 1    
    57   28  151 1    
    58   28  152 1    
    59   28  153 1    
    60   29   30 am   BACKBONE|DICT|INTERRES
    61   29  154 1    
    62   30   31 2    
    63   30   32 1    
    64   32   33 1    
    65   32   34 1    
    66   32  155 1    
    67   33  156 1    
    68   33  157 1    
    69   33  158 1    
    70   34   35 am   BACKBONE|DICT|INTERRES
    71   34  159 1    
    72   35   36 2    
    73   35   37 1    
    74   37   38 1    
    75   37   39 1    
    76   37  160 1    
    77   38  161 1    
    78   38  162 1    
    79   38  163 1    
    80   39   40 am   BACKBONE|DICT|INTERRES
    81   39  164 1    
    82   40   41 2    
    83   40   42 1    
    84   42   43 1    
    85   42   44 1    
    86   42  165 1    
    87   43  166 1    
    88   43  167 1    
    89   43  168 1    
    90   44   45 am   BACKBONE|DICT|INTERRES
    91   44  169 1    
    92   45   46 2    
    93   45   47 1    
    94   47   48 1    
    95   47   49 1    
    96   47  170 1    
    97   48  171 1    
    98   48  172 1    
    99   48  173 1    
   100   49   50 am   BACKBONE|DICT|INTERRES
   101   49  174 1    
   102   50   51 2    
   103   50   52 1    
   104   52   53 1    
   105   52   54 1    
   106   52  175 1    
   107   53  176 1    
   108   53  177 1    
   109   53  178 1    
   110   54   55 am   BACKBONE|DICT|INTERRES
   111   54  179 1    
   112   55   56 2    
   113   55   57 1    
   114   57   58 1    
   115   57   59 1    
   116   57  180 1    
   117   58  181 1    
   118   58  182 1    
   119   58  183 1    
   120   59   60 am   BACKBONE|DICT|INTERRES
   121   59  184 1    
   122   60   61 2    
   123   60   62 1    
   124   62   63 1    
   125   62   64 1    
   126   62  185 1    
   127   63  186 1    
   128   63  187 1    
   129   63  188 1    
   130   64   65 am   BACKBONE|DICT|INTERRES
   131   64  189 1    
   132   65   66 2    
   133   67   68 2    
   134   67   69 am   BACKBONE|DICT|INTERRES
   135   69   70 1    
   136   69  190 1    
   137   70   71 1    
   138   70   72 1    
   139   70  191 1    
   140   71  192 1    
   141   71  193 1    
   142   71  194 1    
   143   72   73 2    
   144   72   74 am   BACKBONE|DICT|INTERRES
   145   74   75 1    
   146   74  195 1    
   147   75   76 1    
   148   75   77 1    
   149   75  196 1    
   150   76  197 1    
   151   76  198 1    
   152   76  199 1    
   153   77   78 2    
   154   77   79 am   BACKBONE|DICT|INTERRES
   155   79   80 1    
   156   79  200 1    
   157   80   81 1    
   158   80   82 1    
   159   80  201 1    
   160   81  202 1    
   161   81  203 1    
   162   81  204 1    
   163   82   83 2    
   164   82   84 am   BACKBONE|DICT|INTERRES
   165   84   85 1    
   166   84  205 1    
   167   85   86 1    
   168   85   87 1    
   169   85  206 1    
   170   86  207 1    
   171   86  208 1    
   172   86  209 1    
   173   87   88 2    
   174   87   89 am   BACKBONE|DICT|INTERRES
   175   89   90 1    
   176   89  210 1    
   177   90   91 1    
   178   90   92 1    
   179   90  211 1    
   180   91  212 1    
   181   91  213 1    
   182   91  214 1    
   183   92   93 2    
   184   92   94 am   BACKBONE|DICT|INTERRES
   185   94   95 1    
   186   94  215 1    
   187   95   96 1    
   188   95   97 1    
   189   95  216 1    
   190   96  217 1    
   191   96  218 1    
   192   96  219 1    
   193   97   98 2    
   194   97   99 am   BACKBONE|DICT|INTERRES
   195   99  100 1    
   196   99  220 1    
   197  100  101 1    
   198  100  102 1    
   199  100  221 1    
   200  101  222 1    
   201  101  223 1    
   202  101  224 1    
   203  102  103 2    
   204  102  104 am   BACKBONE|DICT|INTERRES
   205  104  105 1    
   206  104  225 1    
   207  105  106 1    
   208  105  107 1    
   209  105  226 1    
   210  106  227 1    
   211  106  228 1    
   212  106  229 1    
   213  107  108 2    
   214  107  109 am   BACKBONE|DICT|INTERRES
   215  109  110 1    
   216  109  230 1    
   217  110  111 1    
   218  110  112 1    
   219  110  231 1    
   220  111  232 1    
   221  111  233 1    
   222  111  234 1    
   223  112  113 2    
   224  112  114 am   BACKBONE|DICT|INTERRES
   225  114  115 1    
   226  114  235 1    
   227  115  116 1    
   228  115  117 1    
   229  115  236 1    
   230  116  237 1    
   231  116  238 1    
   232  116  239 1    
   233  117  118 2    
   234  117  119 am   BACKBONE|DICT|INTERRES
   235  119  120 1    
   236  119  240 1    
   237  120  121 1    
   238  120  124 1    
   239  120  241 1    
   240  121  122 am   BACKBONE|DICT|INTERRES
   241  121  123 2    
   242  122  242 1    
   243  122  243 1    
   244  124  125 1    
   245  124  244 1    
   246  124  245 1    
   247  125  126 1    
   248  126  246 1    
   249  126  247 1    
@<TRIPOS>SUBSTRUCTURE
     1 UNK         1 GROUP             0       ****    0 ROOT    
