@<TRIPOS>MOLECULE
3R540
247   249    1
SMALL
USER_CHARGES


@<TRIPOS>ATOM
      1 CA         -5.3556  -14.2500  -43.9103 C.3       0 UNK        -0.1800 
      2 C          -4.0145  -14.3644  -44.6192 C.2       0 UNK         0.5000 
      3 O          -3.7695  -13.6475  -45.5894 O.2       0 UNK        -0.5000 
      4 N          -3.1352  -15.2504  -44.1302 N.am      1 UNK        -0.5000 
      5 CA         -1.8144  -15.5452  -44.7077 C.3       1 UNK         0.1400 
      6 C6         -1.1305  -16.7525  -44.0187 C.3       23 UNK        -0.0398 
      7 S7         -2.1068  -18.2946  -43.8668 S.3       23 UNK        -0.2404 
      8 C8         -3.1472  -18.3957  -45.3664 C.3       23 UNK        -0.0205 
      9 C9         -2.3515  -18.6331  -46.6426 C.ar      23 UNK        -0.0193 
     10 C10        -2.4503  -17.7392  -47.7141 C.ar      23 UNK        -0.1150 
     11 C11        -1.7507  -17.9739  -48.9014 C.ar      23 UNK        -0.0193 
     12 C12        -0.9355  -19.1033  -49.0086 C.ar      23 UNK        -0.1150 
     13 C13        -0.8402  -20.0121  -47.9525 C.ar      23 UNK        -0.0193 
     14 C14        -1.5571  -19.7758  -46.7760 C.ar      23 UNK        -0.1150 
     15 C15        -0.0034  -21.2704  -48.0993 C.3       23 UNK        -0.0205 
     16 S16         1.3152  -21.3823  -46.8460 S.3       23 UNK        -0.2404 
     17 C17         1.7589  -23.1476  -46.9970 C.3       23 UNK        -0.0398 
     18 CA          1.0937  -24.1110  -45.9770 C.3       11 UNK         0.1400 
     19 N           1.5893  -23.9535  -44.6044 N.am      11 UNK        -0.5000 
     20 C           1.6727  -24.9740  -43.7349 C.2       10 UNK         0.5000 
     21 O           1.3874  -26.1372  -44.0210 O.2       10 UNK        -0.5000 
     22 CA          2.1254  -24.6511  -42.2986 C.3       10 UNK         0.1400 
     23 CB          3.6552  -24.5293  -42.2274 C.3       10 UNK        -0.1800 
     24 N           1.5210  -23.4335  -41.7636 N.am      10 UNK        -0.5000 
     25 C           0.2108  -23.2454  -41.5485 C.2       9 UNK         0.5000 
     26 O          -0.6444  -24.1121  -41.7294 O.2       9 UNK        -0.5000 
     27 CA         -0.2179  -21.8378  -41.0801 C.3       9 UNK         0.1400 
     28 CB         -0.3789  -21.8086  -39.5530 C.3       9 UNK        -0.1800 
     29 N           0.6970  -20.7647  -41.4854 N.am      9 UNK        -0.5000 
     30 C           1.0325  -20.4722  -42.7490 C.2       8 UNK         0.5000 
     31 O           0.6048  -21.0891  -43.7277 O.2       8 UNK        -0.5000 
     32 CA          2.0686  -19.3546  -42.9289 C.3       8 UNK         0.1400 
     33 CB          3.4425  -19.7861  -42.3785 C.3       8 UNK        -0.1800 
     34 N           2.1952  -19.0198  -44.3432 N.am      8 UNK        -0.5000 
     35 C           2.6589  -17.8589  -44.8156 C.2       7 UNK         0.5000 
     36 O           2.9925  -16.9153  -44.0946 O.2       7 UNK        -0.5000 
     37 CA          2.7177  -17.7216  -46.3489 C.3       7 UNK         0.1400 
     38 CB          1.3225  -17.4328  -46.9088 C.3       7 UNK        -0.1800 
     39 N           3.5951  -16.6362  -46.7741 N.am      7 UNK        -0.5000 
     40 C           4.9328  -16.6405  -46.7308 C.2       6 UNK         0.5000 
     41 O           5.6073  -17.6207  -46.4126 O.2       6 UNK        -0.5000 
     42 CA          5.6321  -15.3206  -47.1177 C.3       6 UNK         0.1400 
     43 CB          6.1357  -15.3825  -48.5679 C.3       6 UNK        -0.1800 
     44 N           4.7499  -14.1593  -46.9743 N.am      6 UNK        -0.5000 
     45 C           4.4038  -13.5965  -45.8107 C.2       5 UNK         0.5000 
     46 O           4.8951  -13.9196  -44.7292 O.2       5 UNK        -0.5000 
     47 CA          3.3076  -12.5139  -45.8436 C.3       5 UNK         0.1400 
     48 CB          3.9111  -11.1117  -46.0466 C.3       5 UNK        -0.1800 
     49 N           2.2089  -12.7681  -46.7873 N.am      5 UNK        -0.5000 
     50 C           2.2101  -12.7456  -48.1288 C.2       4 UNK         0.5000 
     51 O           3.2238  -12.6001  -48.8120 O.2       4 UNK        -0.5000 
     52 CA          0.8479  -12.9148  -48.8258 C.3       4 UNK         0.1400 
     53 CB          0.5691  -14.3906  -49.1450 C.3       4 UNK        -0.1800 
     54 N          -0.2454  -12.3817  -48.0114 N.am      4 UNK        -0.5000 
     55 C          -0.6558  -11.1056  -48.0371 C.2       3 UNK         0.5000 
     56 O          -0.2248  -10.2624  -48.8246 O.2       3 UNK        -0.5000 
     57 CA         -1.7136  -10.6947  -46.9935 C.3       3 UNK         0.1400 
     58 CB         -3.1296  -10.9494  -47.5311 C.3       3 UNK        -0.1800 
     59 N          -1.5438  -11.3920  -45.7170 N.am      3 UNK        -0.5000 
     60 C          -0.5194  -11.1810  -44.8749 C.2       2 UNK         0.5000 
     61 O           0.3320  -10.3092  -45.0482 O.2       2 UNK        -0.5000 
     62 CA         -0.3965  -12.1054  -43.6450 C.3       2 UNK         0.1400 
     63 CB         -0.9006  -11.3884  -42.3835 C.3       2 UNK        -0.1800 
     64 N          -1.1011  -13.3824  -43.7738 N.am      2 UNK        -0.5000 
     65 C          -0.8689  -14.3218  -44.7023 C.2       1 UNK         0.5000 
     66 O           0.0097  -14.2218  -45.5596 O.2       1 UNK        -0.5000 
     67 C          -0.4473  -24.0752  -46.0235 C.2       11 UNK         0.5000 
     68 O          -1.0335  -24.6994  -46.9068 O.2       11 UNK        -0.5000 
     69 N          -1.0808  -23.3786  -45.0655 N.am      12 UNK        -0.5000 
     70 CA         -2.5370  -23.2404  -44.9483 C.3       12 UNK         0.1400 
     71 CB         -2.8701  -22.2073  -43.8625 C.3       12 UNK        -0.1800 
     72 C          -3.2829  -24.5613  -44.6727 C.2       12 UNK         0.5000 
     73 O          -4.4913  -24.6322  -44.8969 O.2       12 UNK        -0.5000 
     74 N          -2.5546  -25.5844  -44.2069 N.am      13 UNK        -0.5000 
     75 CA         -3.0321  -26.9585  -44.0603 C.3       13 UNK         0.1400 
     76 CB         -2.0191  -27.7368  -43.2066 C.3       13 UNK        -0.1800 
     77 C          -3.2645  -27.6733  -45.4102 C.2       13 UNK         0.5000 
     78 O          -3.9821  -28.6742  -45.4407 O.2       13 UNK        -0.5000 
     79 N          -2.6575  -27.1635  -46.4899 N.am      14 UNK        -0.5000 
     80 CA         -2.7937  -27.6543  -47.8577 C.3       14 UNK         0.1400 
     81 CB         -1.3826  -27.7970  -48.4576 C.3       14 UNK        -0.1800 
     82 C          -3.6515  -26.6866  -48.6947 C.2       14 UNK         0.5000 
     83 O          -4.0565  -25.6236  -48.2180 O.2       14 UNK        -0.5000 
     84 N          -3.8866  -27.0606  -49.9595 N.am      15 UNK        -0.5000 
     85 CA         -4.6434  -26.2874  -50.9523 C.3       15 UNK         0.1400 
     86 CB         -4.9475  -27.1964  -52.1538 C.3       15 UNK        -0.1800 
     87 C          -3.9516  -24.9869  -51.4187 C.2       15 UNK         0.5000 
     88 O          -4.5664  -24.2022  -52.1399 O.2       15 UNK        -0.5000 
     89 N          -2.6999  -24.7635  -50.9955 N.am      16 UNK        -0.5000 
     90 CA         -1.8749  -23.5926  -51.3032 C.3       16 UNK         0.1400 
     91 CB         -0.4722  -23.8217  -50.7187 C.3       16 UNK        -0.1800 
     92 C          -2.4532  -22.2421  -50.8258 C.2       16 UNK         0.5000 
     93 O          -2.0122  -21.2050  -51.3155 O.2       16 UNK        -0.5000 
     94 N          -3.4237  -22.2743  -49.9017 N.am      17 UNK        -0.5000 
     95 CA         -4.1669  -21.1066  -49.4229 C.3       17 UNK         0.1400 
     96 CB         -4.6935  -21.3994  -48.0097 C.3       17 UNK        -0.1800 
     97 C          -5.3122  -20.6590  -50.3562 C.2       17 UNK         0.5000 
     98 O          -5.9560  -19.6499  -50.0627 O.2       17 UNK        -0.5000 
     99 N          -5.5814  -21.4017  -51.4412 N.am      18 UNK        -0.5000 
    100 CA        -6.5516  -21.0233  -52.4709 C.3       18 UNK         0.1400 
    101 CB        -6.7511  -22.2007  -53.4367 C.3       18 UNK        -0.1800 
    102 C         -6.0934  -19.7764  -53.2489 C.2       18 UNK         0.5000 
    103 O         -4.8984  -19.6229  -53.5059 O.2       18 UNK        -0.5000 
    104 N         -7.0494  -18.9339  -53.6630 N.am      19 UNK        -0.5000 
    105 CA        -6.8035  -17.6740  -54.3770 C.3       19 UNK         0.1400 
    106 CB        -8.1423  -16.9659  -54.6316 C.3       19 UNK        -0.1800 
    107 C         -6.0200  -17.8372  -55.6948 C.2       19 UNK         0.5000 
    108 O         -5.2120  -16.9723  -56.0340 O.2       19 UNK        -0.5000 
    109 N         -6.2347  -18.9669  -56.3826 N.am      20 UNK        -0.5000 
    110 CA        -5.5139  -19.3590  -57.5944 C.3       20 UNK         0.1400 
    111 CB        -6.2298  -20.5606  -58.2303 C.3       20 UNK        -0.1800 
    112 C         -4.0261  -19.6865  -57.3503 C.2       20 UNK         0.5000 
    113 O         -3.2244  -19.5505  -58.2753 O.2       20 UNK        -0.5000 
    114 N         -3.6830  -20.1080  -56.1253 N.am      21 UNK        -0.5000 
    115 CA        -2.3119  -20.3723  -55.6955 C.3       21 UNK         0.1400 
    116 CB        -2.3053  -21.5304  -54.6857 C.3       21 UNK        -0.1800 
    117 C         -1.6604  -19.1082  -55.1076 C.2       21 UNK         0.5000 
    118 O         -0.4874  -18.8553  -55.3870 O.2       21 UNK        -0.5000 
    119 N         -2.4253  -18.3285  -54.3294 N.am      22 UNK        -0.5000 
    120 CA        -1.9882  -17.0415  -53.7602 C.3       22 UNK         0.1400 
    121 C         -1.7560  -15.9313  -54.8238 C.2       22 UNK         0.5000 
    122 N         -2.5614  -15.8500  -55.8758 N.am      22 UNK        -0.7600 
    123 O         -0.8316  -15.1339  -54.6921 O.2       22 UNK        -0.5000 
    124 C124       -2.9402  -16.5196  -52.6543 C.3       23 UNK        -0.0398 
    125 S125       -3.1242  -17.6806  -51.2630 S.3       23 UNK        -0.2404 
    126 C126       -1.8984  -17.0345  -50.0861 C.3       23 UNK        -0.0205 
    127 H127       -5.4295  -14.9392  -43.0689 H         1 UNK         0.0600 
    128 H128       -6.1657  -14.4724  -44.6048 H         1 UNK         0.0600 
    129 H129       -5.4954  -13.2365  -43.5346 H         1 UNK         0.0600 
    130 H130       -3.3925  -15.8125  -43.3308 H         1 UNK         0.3000 
    131 H131       -1.9694  -15.7956  -45.7571 H         1 UNK         0.0600 
    132 H132       -0.2128  -17.0085  -44.5462 H         1 UNK         0.0800 
    133 H133       -0.8194  -16.4785  -43.0089 H         1 UNK         0.0800 
    134 H134       -3.8360  -19.2322  -45.2412 H         1 UNK         0.0800 
    135 H135       -3.7758  -17.5099  -45.4522 H         1 UNK         0.0800 
    136 H136       -3.0891  -16.8708  -47.6354 H         1 UNK         0.1150 
    137 H137       -0.4072  -19.2924  -49.9324 H         1 UNK         0.1150 
    138 H138       -1.4859  -20.4800  -45.9602 H         1 UNK         0.1150 
    139 H139       -0.6758  -22.1237  -48.0238 H         1 UNK         0.0800 
    140 H140        0.4499  -21.3198  -49.0901 H         1 UNK         0.0800 
    141 H141        2.8430  -23.2236  -46.9053 H         1 UNK         0.0800 
    142 H142        1.5370  -23.4792  -48.0128 H         1 UNK         0.0800 
    143 H143        1.3704  -25.1129  -46.3136 H         1 UNK         0.0600 
    144 H144        1.7760  -23.0088  -44.2944 H         1 UNK         0.3000 
    145 H145        1.8193  -25.4824  -41.6599 H         1 UNK         0.0600 
    146 H146        3.9924  -24.3897  -41.2001 H         1 UNK         0.0600 
    147 H147        4.1366  -25.4320  -42.6061 H         1 UNK         0.0600 
    148 H148        4.0217  -23.6890  -42.8185 H         1 UNK         0.0600 
    149 H149        2.1451  -22.6634  -41.5775 H         1 UNK         0.3000 
    150 H150       -1.1883  -21.6197  -41.5258 H         1 UNK         0.0600 
    151 H151        0.5700  -21.9849  -39.0449 H         1 UNK         0.0600 
    152 H152       -1.0780  -22.5767  -39.2191 H         1 UNK         0.0600 
    153 H153       -0.7691  -20.8484  -39.2150 H         1 UNK         0.0600 
    154 H154        1.0992  -20.2194  -40.7367 H         1 UNK         0.3000 
    155 H155        1.7094  -18.4801  -42.3822 H         1 UNK         0.0600 
    156 H156        3.8230  -20.6660  -42.8989 H         1 UNK         0.0600 
    157 H157        3.3909  -20.0275  -41.3164 H         1 UNK         0.0600 
    158 H158        4.1807  -18.9914  -42.4872 H         1 UNK         0.0600 
    159 H159        1.8466  -19.7336  -44.9744 H         1 UNK         0.3000 
    160 H160        3.0848  -18.6605  -46.7687 H         1 UNK         0.0600 
    161 H161        0.9538  -16.4620  -46.5827 H         1 UNK         0.0600 
    162 H162        0.6103  -18.1776  -46.5638 H         1 UNK         0.0600 
    163 H163        1.3179  -17.4506  -47.9986 H         1 UNK         0.0600 
    164 H164        3.1428  -15.7654  -47.0041 H         1 UNK         0.3000 
    165 H165        6.4933  -15.1932  -46.4586 H         1 UNK         0.0600 
    166 H166        6.8147  -16.2242  -48.7104 H         1 UNK         0.0600 
    167 H167        5.3130  -15.4996  -49.2745 H         1 UNK         0.0600 
    168 H168        6.6807  -14.4768  -48.8346 H         1 UNK         0.0600 
    169 H169        4.3282  -13.7830  -47.8191 H         1 UNK         0.3000 
    170 H170        2.8413  -12.5233  -44.8573 H         1 UNK         0.0600 
    171 H171        3.1401  -10.3423  -46.0014 H         1 UNK         0.0600 
    172 H172        4.4216  -11.0206  -47.0056 H         1 UNK         0.0600 
    173 H173        4.6408  -10.8869  -45.2679 H         1 UNK         0.0600 
    174 H174        1.3333  -13.0270  -46.3433 H         1 UNK         0.3000 
    175 H175        0.8979  -12.3743  -49.7735 H         1 UNK         0.0600 
    176 H176       -0.3013  -14.4846  -49.7933 H         1 UNK         0.0600 
    177 H177        1.4107  -14.8517  -49.6637 H         1 UNK         0.0600 
    178 H178        0.3760  -14.9696  -48.2434 H         1 UNK         0.0600 
    179 H179       -0.6256  -12.9993  -47.3064 H         1 UNK         0.3000 
    180 H180       -1.6069   -9.6228  -46.8133 H         1 UNK         0.0600 
    181 H181       -3.2935  -12.0053  -47.7499 H         1 UNK         0.0600 
    182 H182       -3.3022  -10.3931  -48.4532 H         1 UNK         0.0600 
    183 H183       -3.8875  -10.6345  -46.8137 H         1 UNK         0.0600 
    184 H184       -2.2117  -12.1260  -45.5101 H         1 UNK         0.3000 
    185 H185        0.6641  -12.3271  -43.5122 H         1 UNK         0.0600 
    186 H186       -0.3758  -10.4439  -42.2335 H         1 UNK         0.0600 
    187 H187       -1.9664  -11.1652  -42.4473 H         1 UNK         0.0600 
    188 H188       -0.7359  -11.9939  -41.4920 H         1 UNK         0.0600 
    189 H189       -1.8598  -13.5410  -43.1268 H         1 UNK         0.3000 
    190 H190       -0.5209  -22.8481  -44.4089 H         1 UNK         0.3000 
    191 H191       -2.8931  -22.8650  -45.9058 H         1 UNK         0.0600 
    192 H192       -2.2511  -21.3151  -43.9449 H         1 UNK         0.0600 
    193 H193       -3.9109  -21.8906  -43.9382 H         1 UNK         0.0600 
    194 H194       -2.7318  -22.6234  -42.8652 H         1 UNK         0.0600 
    195 H195       -1.5784  -25.4186  -44.0059 H         1 UNK         0.3000 
    196 H196       -3.9858  -26.9362  -43.5292 H         1 UNK         0.0600 
    197 H197       -2.3539  -28.7610  -43.0374 H         1 UNK         0.0600 
    198 H198       -1.8872  -27.2721  -42.2291 H         1 UNK         0.0600 
    199 H199       -1.0416  -27.7851  -43.6886 H         1 UNK         0.0600 
    200 H200       -2.1515  -26.2880  -46.4013 H         1 UNK         0.3000 
    201 H201       -3.2793  -28.6320  -47.8687 H         1 UNK         0.0600 
    202 H202       -1.4134  -28.2489  -49.4494 H         1 UNK         0.0600 
    203 H203       -0.8824  -26.8325  -48.5515 H         1 UNK         0.0600 
    204 H204       -0.7555  -28.4362  -47.8357 H         1 UNK         0.0600 
    205 H205       -3.5153  -27.9434  -50.2803 H         1 UNK         0.3000 
    206 H206       -5.5926  -25.9954  -50.4984 H         1 UNK         0.0600 
    207 H207       -5.5079  -28.0804  -51.8489 H         1 UNK         0.0600 
    208 H208       -5.5502  -26.6749  -52.8988 H         1 UNK         0.0600 
    209 H209       -4.0334  -27.5299  -52.6467 H         1 UNK         0.0600 
    210 H210       -2.2830  -25.4555  -50.3917 H         1 UNK         0.3000 
    211 H211       -1.7862  -23.5325  -52.3895 H         1 UNK         0.0600 
    212 H212       -0.5057  -23.9528  -49.6367 H         1 UNK         0.0600 
    213 H213        0.1855  -22.9781  -50.9318 H         1 UNK         0.0600 
    214 H214       -0.0064  -24.7088  -51.1480 H         1 UNK         0.0600 
    215 H215       -3.7150  -23.1740  -49.5457 H         1 UNK         0.3000 
    216 H216       -3.4839  -20.2597  -49.3529 H         1 UNK         0.0600 
    217 H217       -5.3051  -20.5783  -47.6335 H         1 UNK         0.0600 
    218 H218       -3.8667  -21.5154  -47.3142 H         1 UNK         0.0600 
    219 H219       -5.2983  -22.3064  -47.9796 H         1 UNK         0.0600 
    220 H220       -5.0210  -22.2248  -51.6297 H         1 UNK         0.3000 
    221 H221       -7.5033  -20.8069  -51.9813 H         1 UNK         0.0600 
    222 H222       -5.8245  -22.4574  -53.9527 H         1 UNK         0.0600 
    223 H223       -7.0968  -23.0898  -52.9090 H         1 UNK         0.0600 
    224 H224       -7.4961  -21.9641  -54.1972 H         1 UNK         0.0600 
    225 H225       -8.0116  -19.1355  -53.4321 H         1 UNK         0.3000 
    226 H226       -6.2043  -17.0407  -53.7202 H         1 UNK         0.0600 
    227 H227       -7.9900  -16.0141  -55.1425 H         1 UNK         0.0600 
    228 H228       -8.8054  -17.5695  -55.2526 H         1 UNK         0.0600 
    229 H229       -8.6597  -16.7511  -53.6964 H         1 UNK         0.0600 
    230 H230       -6.9131  -19.6227  -56.0246 H         1 UNK         0.3000 
    231 H231       -5.5552  -18.5243  -58.2974 H         1 UNK         0.0600 
    232 H232       -6.2384  -21.4231  -57.5625 H         1 UNK         0.0600 
    233 H233       -5.7362  -20.8656  -59.1540 H         1 UNK         0.0600 
    234 H234       -7.2627  -20.3180  -58.4806 H         1 UNK         0.0600 
    235 H235       -4.3847  -20.1228  -55.3945 H         1 UNK         0.3000 
    236 H236       -1.7128  -20.6845  -56.5536 H         1 UNK         0.0600 
    237 H237       -1.2963  -21.7253  -54.3203 H         1 UNK         0.0600 
    238 H238       -2.9308  -21.3153  -53.8202 H         1 UNK         0.0600 
    239 H239       -2.6729  -22.4507  -55.1394 H         1 UNK         0.0600 
    240 H240       -3.3551  -18.6490  -54.0748 H         1 UNK         0.3000 
    241 H241       -1.0199  -17.2208  -53.2884 H         1 UNK         0.0600 
    242 H242       -3.3859  -16.4391  -55.9553 H         1 UNK         0.3800 
    243 H243       -2.4017  -15.1313  -56.5633 H         1 UNK         0.3800 
    244 H244       -3.9315  -16.3345  -53.0703 H         1 UNK         0.0800 
    245 H245       -2.5929  -15.5609  -52.2645 H         1 UNK         0.0800 
    246 H246       -0.9353  -16.9175  -50.5852 H         1 UNK         0.0800 
    247 H247       -2.2044  -16.0427  -49.7506 H         1 UNK         0.0800 
@<TRIPOS>BOND
     1    1    2 1    
     2    1  127 1    
     3    1  128 1    
     4    1  129 1    
     5    2    3 2    
     6    2    4 am   BACKBONE|DICT|INTERRES
     7    4    5 1    
     8    4  130 1    
     9    5    6 1    
    10    5   65 1    
    11    5  131 1    
    12    6    7 1    
    13    6  132 1    
    14    6  133 1    
    15    7    8 1    
    16    8    9 1    
    17    8  134 1    
    18    8  135 1    
    19    9   10 ar   
    20    9   14 ar   
    21   10   11 ar   
    22   10  136 1    
    23   11   12 ar   
    24   11  126 1    
    25   12   13 ar   
    26   12  137 1    
    27   13   14 ar   
    28   13   15 1    
    29   14  138 1    
    30   15   16 1    
    31   15  139 1    
    32   15  140 1    
    33   16   17 1    
    34   17   18 1    
    35   17  141 1    
    36   17  142 1    
    37   18   19 1    
    38   18   67 1    
    39   18  143 1    
    40   19   20 am   BACKBONE|DICT|INTERRES
    41   19  144 1    
    42   20   21 2    
    43   20   22 1    
    44   22   23 1    
    45   22   24 1    
    46   22  145 1    
    47   23  146 1    
    48   23  147 1    
    49   23  148 1    
    50   24   25 am   BACKBONE|DICT|INTERRES
    51   24  149 1    
    52   25   26 2    
    53   25   27 1    
    54   27   28 1    
    55   27   29 1    
    56   27  150 1    
    57   28  151 1    
    58   28  152 1    
    59   28  153 1    
    60   29   30 am   BACKBONE|DICT|INTERRES
    61   29  154 1    
    62   30   31 2    
    63   30   32 1    
    64   32   33 1    
    65   32   34 1    
    66   32  155 1    
    67   33  156 1    
    68   33  157 1    
    69   33  158 1    
    70   34   35 am   BACKBONE|DICT|INTERRES
    71   34  159 1    
    72   35   36 2    
    73   35   37 1    
    74   37   38 1    
    75   37   39 1    
    76   37  160 1    
    77   38  161 1    
    78   38  162 1    
    79   38  163 1    
    80   39   40 am   BACKBONE|DICT|INTERRES
    81   39  164 1    
    82   40   41 2    
    83   40   42 1    
    84   42   43 1    
    85   42   44 1    
    86   42  165 1    
    87   43  166 1    
    88   43  167 1    
    89   43  168 1    
    90   44   45 am   BACKBONE|DICT|INTERRES
    91   44  169 1    
    92   45   46 2    
    93   45   47 1    
    94   47   48 1    
    95   47   49 1    
    96   47  170 1    
    97   48  171 1    
    98   48  172 1    
    99   48  173 1    
   100   49   50 am   BACKBONE|DICT|INTERRES
   101   49  174 1    
   102   50   51 2    
   103   50   52 1    
   104   52   53 1    
   105   52   54 1    
   106   52  175 1    
   107   53  176 1    
   108   53  177 1    
   109   53  178 1    
   110   54   55 am   BACKBONE|DICT|INTERRES
   111   54  179 1    
   112   55   56 2    
   113   55   57 1    
   114   57   58 1    
   115   57   59 1    
   116   57  180 1    
   117   58  181 1    
   118   58  182 1    
   119   58  183 1    
   120   59   60 am   BACKBONE|DICT|INTERRES
   121   59  184 1    
   122   60   61 2    
   123   60   62 1    
   124   62   63 1    
   125   62   64 1    
   126   62  185 1    
   127   63  186 1    
   128   63  187 1    
   129   63  188 1    
   130   64   65 am   BACKBONE|DICT|INTERRES
   131   64  189 1    
   132   65   66 2    
   133   67   68 2    
   134   67   69 am   BACKBONE|DICT|INTERRES
   135   69   70 1    
   136   69  190 1    
   137   70   71 1    
   138   70   72 1    
   139   70  191 1    
   140   71  192 1    
   141   71  193 1    
   142   71  194 1    
   143   72   73 2    
   144   72   74 am   BACKBONE|DICT|INTERRES
   145   74   75 1    
   146   74  195 1    
   147   75   76 1    
   148   75   77 1    
   149   75  196 1    
   150   76  197 1    
   151   76  198 1    
   152   76  199 1    
   153   77   78 2    
   154   77   79 am   BACKBONE|DICT|INTERRES
   155   79   80 1    
   156   79  200 1    
   157   80   81 1    
   158   80   82 1    
   159   80  201 1    
   160   81  202 1    
   161   81  203 1    
   162   81  204 1    
   163   82   83 2    
   164   82   84 am   BACKBONE|DICT|INTERRES
   165   84   85 1    
   166   84  205 1    
   167   85   86 1    
   168   85   87 1    
   169   85  206 1    
   170   86  207 1    
   171   86  208 1    
   172   86  209 1    
   173   87   88 2    
   174   87   89 am   BACKBONE|DICT|INTERRES
   175   89   90 1    
   176   89  210 1    
   177   90   91 1    
   178   90   92 1    
   179   90  211 1    
   180   91  212 1    
   181   91  213 1    
   182   91  214 1    
   183   92   93 2    
   184   92   94 am   BACKBONE|DICT|INTERRES
   185   94   95 1    
   186   94  215 1    
   187   95   96 1    
   188   95   97 1    
   189   95  216 1    
   190   96  217 1    
   191   96  218 1    
   192   96  219 1    
   193   97   98 2    
   194   97   99 am   BACKBONE|DICT|INTERRES
   195   99  100 1    
   196   99  220 1    
   197  100  101 1    
   198  100  102 1    
   199  100  221 1    
   200  101  222 1    
   201  101  223 1    
   202  101  224 1    
   203  102  103 2    
   204  102  104 am   BACKBONE|DICT|INTERRES
   205  104  105 1    
   206  104  225 1    
   207  105  106 1    
   208  105  107 1    
   209  105  226 1    
   210  106  227 1    
   211  106  228 1    
   212  106  229 1    
   213  107  108 2    
   214  107  109 am   BACKBONE|DICT|INTERRES
   215  109  110 1    
   216  109  230 1    
   217  110  111 1    
   218  110  112 1    
   219  110  231 1    
   220  111  232 1    
   221  111  233 1    
   222  111  234 1    
   223  112  113 2    
   224  112  114 am   BACKBONE|DICT|INTERRES
   225  114  115 1    
   226  114  235 1    
   227  115  116 1    
   228  115  117 1    
   229  115  236 1    
   230  116  237 1    
   231  116  238 1    
   232  116  239 1    
   233  117  118 2    
   234  117  119 am   BACKBONE|DICT|INTERRES
   235  119  120 1    
   236  119  240 1    
   237  120  121 1    
   238  120  124 1    
   239  120  241 1    
   240  121  122 am   BACKBONE|DICT|INTERRES
   241  121  123 2    
   242  122  242 1    
   243  122  243 1    
   244  124  125 1    
   245  124  244 1    
   246  124  245 1    
   247  125  126 1    
   248  126  246 1    
   249  126  247 1    
@<TRIPOS>SUBSTRUCTURE
     1 UNK         1 GROUP             0       ****    0 ROOT    
