@<TRIPOS>MOLECULE
3R540
247   249    1
SMALL
USER_CHARGES


@<TRIPOS>ATOM
      1 CA          5.2801   -9.7205  -48.1368 C.3       0 UNK        -0.1800 
      2 C           4.6878  -11.1074  -48.3451 C.2       0 UNK         0.5000 
      3 O           4.8806  -11.9887  -47.5064 O.2       0 UNK        -0.5000 
      4 N           3.9766  -11.3052  -49.4633 N.am      1 UNK        -0.5000 
      5 CA          3.3184  -12.5590  -49.8418 C.3       1 UNK         0.1400 
      6 C6          2.8266  -12.5163  -51.3127 C.3       23 UNK        -0.0398 
      7 S7          2.6884  -14.1825  -52.0411 S.3       23 UNK        -0.2404 
      8 C8          0.8896  -14.3477  -52.2619 C.3       23 UNK        -0.0205 
      9 C9          0.4889  -15.8131  -52.2461 C.ar      23 UNK        -0.0193 
     10 C10         0.3201  -16.5345  -53.4327 C.ar      23 UNK        -0.1150 
     11 C11        -0.0033  -17.8965  -53.3930 C.ar      23 UNK        -0.0193 
     12 C12        -0.1578  -18.5305  -52.1554 C.ar      23 UNK        -0.1150 
     13 C13        -0.0042  -17.8136  -50.9658 C.ar      23 UNK        -0.0193 
     14 C14         0.3137  -16.4560  -51.0206 C.ar      23 UNK        -0.1150 
     15 C15        -0.1625  -18.4946  -49.6178 C.3       23 UNK        -0.0205 
     16 S16         1.4594  -18.9721  -48.9433 S.3       23 UNK        -0.2404 
     17 C17         1.0491  -19.2813  -47.1936 C.3       23 UNK        -0.0398 
     18 CA          0.7775  -20.7728  -46.8822 C.3       11 UNK         0.1400 
     19 N           0.9181  -21.0735  -45.4574 N.am      11 UNK        -0.5000 
     20 C           0.8590  -22.2971  -44.9126 C.2       10 UNK         0.5000 
     21 O           0.7328  -23.3348  -45.5640 O.2       10 UNK        -0.5000 
     22 CA          0.8946  -22.3639  -43.3743 C.3       10 UNK         0.1400 
     23 CB          2.3310  -22.2281  -42.8477 C.3       10 UNK        -0.1800 
     24 N           0.0445  -21.3462  -42.7533 N.am      10 UNK        -0.5000 
     25 C          -1.2899  -21.2995  -42.8803 C.2       9 UNK         0.5000 
     26 O          -1.9495  -22.1396  -43.4940 O.2       9 UNK        -0.5000 
     27 CA         -2.0015  -20.0846  -42.2580 C.3       9 UNK         0.1400 
     28 CB         -2.1653  -20.2636  -40.7415 C.3       9 UNK        -0.1800 
     29 N          -1.3104  -18.8240  -42.5328 N.am      9 UNK        -0.5000 
     30 C          -1.1309  -18.3070  -43.7569 C.2       8 UNK         0.5000 
     31 O          -1.5623  -18.8198  -44.7875 O.2       8 UNK        -0.5000 
     32 CA         -0.2839  -17.0286  -43.8582 C.3       8 UNK         0.1400 
     33 CB         -1.1235  -15.7979  -43.4890 C.3       8 UNK        -0.1800 
     34 N           0.9182  -17.0824  -43.0276 N.am      8 UNK        -0.5000 
     35 C           1.9015  -17.9835  -43.1617 C.2       7 UNK         0.5000 
     36 O           1.9192  -18.8483  -44.0349 O.2       7 UNK        -0.5000 
     37 CA          3.0270  -17.9532  -42.1162 C.3       7 UNK         0.1400 
     38 CB          4.0921  -16.9107  -42.4769 C.3       7 UNK        -0.1800 
     39 N           2.5121  -17.6874  -40.7757 N.am      7 UNK        -0.5000 
     40 C           1.7933  -18.5622  -40.0598 C.2       6 UNK         0.5000 
     41 O           1.5247  -19.7034  -40.4389 O.2       6 UNK        -0.5000 
     42 CA          1.2519  -18.0523  -38.7122 C.3       6 UNK         0.1400 
     43 CB          2.3368  -18.1213  -37.6269 C.3       6 UNK        -0.1800 
     44 N           0.7340  -16.6843  -38.7989 N.am      6 UNK        -0.5000 
     45 C          -0.3582  -16.3421  -39.4955 C.2       5 UNK         0.5000 
     46 O          -1.0401  -17.1455  -40.1318 O.2       5 UNK        -0.5000 
     47 CA         -0.7426  -14.8508  -39.5063 C.3       5 UNK         0.1400 
     48 CB         -1.5761  -14.5037  -38.2634 C.3       5 UNK        -0.1800 
     49 N           0.3869  -13.9191  -39.6076 N.am      5 UNK        -0.5000 
     50 C           1.2760  -13.8868  -40.6099 C.2       4 UNK         0.5000 
     51 O           1.3401  -14.7491  -41.4853 O.2       4 UNK        -0.5000 
     52 CA          2.2470  -12.6903  -40.6246 C.3       4 UNK         0.1400 
     53 CB          3.6440  -13.0900  -40.1101 C.3       4 UNK        -0.1800 
     54 N           2.2906  -12.0323  -41.9401 N.am      4 UNK        -0.5000 
     55 C           2.8633  -12.4589  -43.0761 C.2       3 UNK         0.5000 
     56 O           3.6032  -13.4401  -43.1667 O.2       3 UNK        -0.5000 
     57 CA          2.5855  -11.6161  -44.3364 C.3       3 UNK         0.1400 
     58 CB          3.6993  -10.5829  -44.5589 C.3       3 UNK        -0.1800 
     59 N           2.4876  -12.4820  -45.5122 N.am      3 UNK        -0.5000 
     60 C           1.4171  -13.2399  -45.7869 C.2       2 UNK         0.5000 
     61 O           0.3361  -13.1093  -45.2112 O.2       2 UNK        -0.5000 
     62 CA          1.5982  -14.3331  -46.8641 C.3       2 UNK         0.1400 
     63 CB          0.2715  -14.9624  -47.3399 C.3       2 UNK        -0.1800 
     64 N           2.4290  -13.9090  -47.9976 N.am      2 UNK        -0.5000 
     65 C           2.1891  -12.8946  -48.8424 C.2       1 UNK         0.5000 
     66 O           1.1670  -12.2055  -48.8300 O.2       1 UNK        -0.5000 
     67 C          -0.5938  -21.2213  -47.4188 C.2       11 UNK         0.5000 
     68 O          -0.6386  -21.9187  -48.4281 O.2       11 UNK        -0.5000 
     69 N          -1.6786  -20.8523  -46.7224 N.am      12 UNK        -0.5000 
     70 CA         -3.0529  -21.2300  -47.0523 C.3       12 UNK         0.1400 
     71 CB         -4.0269  -20.5706  -46.0649 C.3       12 UNK        -0.1800 
     72 C          -3.2626  -22.7515  -47.0847 C.2       12 UNK         0.5000 
     73 O          -3.8509  -23.2558  -48.0411 O.2       12 UNK        -0.5000 
     74 N          -2.7422  -23.4536  -46.0682 N.am      13 UNK        -0.5000 
     75 CA         -2.7695  -24.9131  -45.9706 C.3       13 UNK         0.1400 
     76 CB         -2.1973  -25.3491  -44.6135 C.3       13 UNK        -0.1800 
     77 C          -2.0286  -25.6059  -47.1297 C.2       13 UNK         0.5000 
     78 O          -2.5481  -26.5753  -47.6846 O.2       13 UNK        -0.5000 
     79 N          -0.8526  -25.0766  -47.4967 N.am      14 UNK        -0.5000 
     80 CA         -0.0653  -25.5311  -48.6436 C.3       14 UNK         0.1400 
     81 CB          1.3336  -24.8982  -48.5891 C.3       14 UNK        -0.1800 
     82 C          -0.7534  -25.2323  -49.9896 C.2       14 UNK         0.5000 
     83 O          -0.7703  -26.0928  -50.8697 O.2       14 UNK        -0.5000 
     84 N          -1.3454  -24.0380  -50.1119 N.am      15 UNK        -0.5000 
     85 CA         -2.0416  -23.5225  -51.2924 C.3       15 UNK         0.1400 
     86 CB         -2.0064  -21.9839  -51.2498 C.3       15 UNK        -0.1800 
     87 C          -3.4784  -24.0646  -51.4596 C.2       15 UNK         0.5000 
     88 O          -4.3553  -23.3283  -51.9154 O.2       15 UNK        -0.5000 
     89 N          -3.6973  -25.3361  -51.0947 N.am      16 UNK        -0.5000 
     90 CA         -4.9380  -26.1053  -51.2377 C.3       16 UNK         0.1400 
     91 CB         -5.1951  -26.4181  -52.7267 C.3       16 UNK        -0.1800 
     92 C          -6.1507  -25.4556  -50.5363 C.2       16 UNK         0.5000 
     93 O          -7.2286  -25.3608  -51.1256 O.2       16 UNK        -0.5000 
     94 N          -5.9367  -25.0151  -49.2874 N.am      17 UNK        -0.5000 
     95 CA         -6.8786  -24.2795  -48.4339 C.3       17 UNK         0.1400 
     96 CB         -8.1266  -25.1261  -48.1041 C.3       17 UNK        -0.1800 
     97 C          -7.2087  -22.8873  -49.0121 C.2       17 UNK         0.5000 
     98 O          -8.3745  -22.4904  -49.0590 O.2       17 UNK        -0.5000 
     99 N          -6.1504  -22.1834  -49.4398 N.am      18 UNK        -0.5000 
    100 CA        -6.1398  -20.8624  -50.0737 C.3       18 UNK         0.1400 
    101 CB        -6.5180  -19.7662  -49.0566 C.3       18 UNK        -0.1800 
    102 C         -6.9884  -20.8124  -51.3606 C.2       18 UNK         0.5000 
    103 O         -7.8619  -19.9529  -51.5014 O.2       18 UNK        -0.5000 
    104 N         -6.7173  -21.7485  -52.2780 N.am      19 UNK        -0.5000 
    105 CA        -7.3157  -21.7989  -53.6106 C.3       19 UNK         0.1400 
    106 CB        -6.9504  -23.1386  -54.2669 C.3       19 UNK        -0.1800 
    107 C         -6.8322  -20.6276  -54.4850 C.2       19 UNK         0.5000 
    108 O         -5.6926  -20.1830  -54.3341 O.2       19 UNK        -0.5000 
    109 N         -7.6811  -20.1790  -55.4193 N.am      20 UNK        -0.5000 
    110 CA        -7.4013  -19.0611  -56.3305 C.3       20 UNK         0.1400 
    111 CB        -8.6733  -18.7292  -57.1255 C.3       20 UNK        -0.1800 
    112 C         -6.2174  -19.3145  -57.2865 C.2       20 UNK         0.5000 
    113 O         -5.5182  -18.3701  -57.6545 O.2       20 UNK        -0.5000 
    114 N         -6.0064  -20.5864  -57.6477 N.am      21 UNK        -0.5000 
    115 CA        -4.8748  -21.0581  -58.4482 C.3       21 UNK         0.1400 
    116 CB        -5.3607  -22.2210  -59.3297 C.3       21 UNK        -0.1800 
    117 C         -3.6738  -21.4984  -57.5832 C.2       21 UNK         0.5000 
    118 O         -2.6472  -21.8859  -58.1425 O.2       21 UNK        -0.5000 
    119 N         -3.8237  -21.4640  -56.2507 N.am      22 UNK        -0.5000 
    120 CA        -2.8530  -21.9253  -55.2419 C.3       22 UNK         0.1400 
    121 C         -2.5748  -23.4615  -55.2690 C.2       22 UNK         0.5000 
    122 N         -3.4583  -24.2839  -55.8224 N.am      22 UNK        -0.7600 
    123 O         -1.5553  -23.9249  -54.7670 O.2       22 UNK        -0.5000 
    124 C124       -1.5480  -21.0784  -55.2081 C.3       23 UNK        -0.0398 
    125 S125       -1.8494  -19.2986  -54.9287 S.3       23 UNK        -0.2404 
    126 C126       -0.1462  -18.6963  -54.6809 C.3       23 UNK        -0.0205 
    127 H127        5.0758   -9.0615  -48.9809 H         1 UNK         0.0600 
    128 H128        6.3609   -9.7900  -48.0150 H         1 UNK         0.0600 
    129 H129        4.8651   -9.2619  -47.2402 H         1 UNK         0.0600 
    130 H130        3.8331  -10.5294  -50.0938 H         1 UNK         0.3000 
    131 H131        4.0837  -13.3356  -49.7710 H         1 UNK         0.0600 
    132 H132        1.8908  -11.9638  -51.4147 H         1 UNK         0.0800 
    133 H133        3.5502  -11.9789  -51.9273 H         1 UNK         0.0800 
    134 H134        0.3635  -13.8223  -51.4628 H         1 UNK         0.0800 
    135 H135        0.5903  -13.8731  -53.1976 H         1 UNK         0.0800 
    136 H136        0.4600  -16.0400  -54.3837 H         1 UNK         0.1150 
    137 H137       -0.3942  -19.5838  -52.1228 H         1 UNK         0.1150 
    138 H138        0.4534  -15.8980  -50.1077 H         1 UNK         0.1150 
    139 H139       -0.6737  -17.8210  -48.9287 H         1 UNK         0.0800 
    140 H140       -0.7953  -19.3778  -49.7138 H         1 UNK         0.0800 
    141 H141        0.2248  -18.6426  -46.8728 H         1 UNK         0.0800 
    142 H142        1.9170  -18.9455  -46.6259 H         1 UNK         0.0800 
    143 H143        1.5375  -21.3676  -47.3937 H         1 UNK         0.0600 
    144 H144        1.0808  -20.2773  -44.8451 H         1 UNK         0.3000 
    145 H145        0.5152  -23.3436  -43.0761 H         1 UNK         0.0600 
    146 H146        2.3643  -22.3348  -41.7633 H         1 UNK         0.0600 
    147 H147        2.9758  -22.9990  -43.2714 H         1 UNK         0.0600 
    148 H148        2.7658  -21.2610  -43.1004 H         1 UNK         0.0600 
    149 H149        0.5103  -20.6254  -42.2152 H         1 UNK         0.3000 
    150 H150       -2.9972  -20.0212  -42.7014 H         1 UNK         0.0600 
    151 H151       -2.6833  -21.1954  -40.5111 H         1 UNK         0.0600 
    152 H152       -2.7506  -19.4509  -40.3110 H         1 UNK         0.0600 
    153 H153       -1.2019  -20.2867  -40.2312 H         1 UNK         0.0600 
    154 H154       -0.9677  -18.3076  -41.7280 H         1 UNK         0.3000 
    155 H155        0.0435  -16.9245  -44.8937 H         1 UNK         0.0600 
    156 H156       -1.5506  -15.8841  -42.4905 H         1 UNK         0.0600 
    157 H157       -0.5264  -14.8877  -43.5152 H         1 UNK         0.0600 
    158 H158       -1.9497  -15.6672  -44.1887 H         1 UNK         0.0600 
    159 H159        1.0161  -16.3553  -42.3219 H         1 UNK         0.3000 
    160 H160        3.5046  -18.9353  -42.1132 H         1 UNK         0.0600 
    161 H161        3.6839  -15.9018  -42.4490 H         1 UNK         0.0600 
    162 H162        4.4839  -17.0803  -43.4806 H         1 UNK         0.0600 
    163 H163        4.9341  -16.9503  -41.7858 H         1 UNK         0.0600 
    164 H164        2.6318  -16.7502  -40.4204 H         1 UNK         0.3000 
    165 H165        0.4311  -18.7089  -38.4152 H         1 UNK         0.0600 
    166 H166        1.9378  -17.8381  -36.6528 H         1 UNK         0.0600 
    167 H167        2.7306  -19.1343  -37.5336 H         1 UNK         0.0600 
    168 H168        3.1761  -17.4619  -37.8509 H         1 UNK         0.0600 
    169 H169        1.2424  -15.9637  -38.3078 H         1 UNK         0.3000 
    170 H170       -1.3707  -14.6879  -40.3840 H         1 UNK         0.0600 
    171 H171       -0.9913  -14.5957  -37.3474 H         1 UNK         0.0600 
    172 H172       -1.9596  -13.4847  -38.3168 H         1 UNK         0.0600 
    173 H173       -2.4367  -15.1678  -38.1717 H         1 UNK         0.0600 
    174 H174        0.4171  -13.1879  -38.9117 H         1 UNK         0.3000 
    175 H175        1.8569  -11.9344  -39.9412 H         1 UNK         0.0600 
    176 H176        4.3417  -12.2547  -40.1690 H         1 UNK         0.0600 
    177 H177        4.0671  -13.9233  -40.6717 H         1 UNK         0.0600 
    178 H178        3.5953  -13.4008  -39.0660 H         1 UNK         0.0600 
    179 H179        1.7136  -11.2051  -42.0033 H         1 UNK         0.3000 
    180 H180        1.6420  -11.0811  -44.2079 H         1 UNK         0.0600 
    181 H181        4.6630  -11.0609  -44.7397 H         1 UNK         0.0600 
    182 H182        3.8113   -9.9333  -43.6900 H         1 UNK         0.0600 
    183 H183        3.4730   -9.9455  -45.4130 H         1 UNK         0.0600 
    184 H184        3.3423  -12.6277  -46.0359 H         1 UNK         0.3000 
    185 H185        2.1569  -15.1250  -46.3626 H         1 UNK         0.0600 
    186 H186       -0.3715  -15.2287  -46.5013 H         1 UNK         0.0600 
    187 H187       -0.2977  -14.2901  -47.9816 H         1 UNK         0.0600 
    188 H188        0.4617  -15.8825  -47.8888 H         1 UNK         0.0600 
    189 H189        3.3202  -14.3797  -48.0734 H         1 UNK         0.3000 
    190 H190       -1.5633  -20.2426  -45.9148 H         1 UNK         0.3000 
    191 H191       -3.2701  -20.8467  -48.0512 H         1 UNK         0.0600 
    192 H192       -3.9939  -19.4841  -46.1469 H         1 UNK         0.0600 
    193 H193       -5.0542  -20.8828  -46.2559 H         1 UNK         0.0600 
    194 H194       -3.7946  -20.8337  -45.0331 H         1 UNK         0.0600 
    195 H195       -2.2968  -22.9536  -45.3045 H         1 UNK         0.3000 
    196 H196       -3.8149  -25.2258  -46.0138 H         1 UNK         0.0600 
    197 H197       -2.2229  -26.4343  -44.5084 H         1 UNK         0.0600 
    198 H198       -2.7743  -24.9281  -43.7899 H         1 UNK         0.0600 
    199 H199       -1.1617  -25.0305  -44.4913 H         1 UNK         0.0600 
    200 H200       -0.4814  -24.2930  -46.9695 H         1 UNK         0.3000 
    201 H201        0.0518  -26.6138  -48.5635 H         1 UNK         0.0600 
    202 H202        1.8500  -25.1642  -47.6666 H         1 UNK         0.0600 
    203 H203        1.2882  -23.8102  -48.6427 H         1 UNK         0.0600 
    204 H204        1.9508  -25.2429  -49.4197 H         1 UNK         0.0600 
    205 H205       -1.2494  -23.3783  -49.3422 H         1 UNK         0.3000 
    206 H206       -1.4819  -23.8404  -52.1721 H         1 UNK         0.0600 
    207 H207       -0.9829  -21.6222  -51.1565 H         1 UNK         0.0600 
    208 H208       -2.4216  -21.5449  -52.1563 H         1 UNK         0.0600 
    209 H209       -2.5772  -21.5958  -50.4058 H         1 UNK         0.0600 
    210 H210       -2.8995  -25.8498  -50.7409 H         1 UNK         0.3000 
    211 H211       -4.7695  -27.0549  -50.7281 H         1 UNK         0.0600 
    212 H212       -5.3720  -25.5118  -53.3055 H         1 UNK         0.0600 
    213 H213       -6.0663  -27.0625  -52.8496 H         1 UNK         0.0600 
    214 H214       -4.3451  -26.9353  -53.1717 H         1 UNK         0.0600 
    215 H215       -4.9928  -25.0731  -48.9258 H         1 UNK         0.3000 
    216 H216       -6.3588  -24.1000  -47.4918 H         1 UNK         0.0600 
    217 H217       -8.7447  -24.6289  -47.3558 H         1 UNK         0.0600 
    218 H218       -7.8473  -26.0988  -47.6993 H         1 UNK         0.0600 
    219 H219       -8.7525  -25.2937  -48.9807 H         1 UNK         0.0600 
    220 H220       -5.2422  -22.6223  -49.3264 H         1 UNK         0.3000 
    221 H221       -5.1095  -20.6805  -50.3835 H         1 UNK         0.0600 
    222 H222       -7.5366  -19.8878  -48.6873 H         1 UNK         0.0600 
    223 H223       -5.8466  -19.7743  -48.2000 H         1 UNK         0.0600 
    224 H224       -6.4492  -18.7754  -49.5070 H         1 UNK         0.0600 
    225 H225       -5.9474  -22.3918  -52.1034 H         1 UNK         0.3000 
    226 H226       -8.4008  -21.7404  -53.5050 H         1 UNK         0.0600 
    227 H227       -7.3209  -23.9767  -53.6763 H         1 UNK         0.0600 
    228 H228       -7.3873  -23.2244  -55.2624 H         1 UNK         0.0600 
    229 H229       -5.8705  -23.2531  -54.3674 H         1 UNK         0.0600 
    230 H230       -8.5962  -20.6000  -55.4944 H         1 UNK         0.3000 
    231 H231       -7.1452  -18.1927  -55.7198 H         1 UNK         0.0600 
    232 H232       -8.9986  -19.5729  -57.7355 H         1 UNK         0.0600 
    233 H233       -8.5060  -17.8850  -57.7958 H         1 UNK         0.0600 
    234 H234       -9.4942  -18.4569  -56.4620 H         1 UNK         0.0600 
    235 H235       -6.6429  -21.2910  -57.3052 H         1 UNK         0.3000 
    236 H236       -4.5268  -20.2578  -59.1045 H         1 UNK         0.0600 
    237 H237       -6.1851  -21.9103  -59.9718 H         1 UNK         0.0600 
    238 H238       -4.5633  -22.5807  -59.9813 H         1 UNK         0.0600 
    239 H239       -5.7017  -23.0663  -58.7308 H         1 UNK         0.0600 
    240 H240       -4.6666  -21.0553  -55.8651 H         1 UNK         0.3000 
    241 H241       -3.3551  -21.7690  -54.2872 H         1 UNK         0.0600 
    242 H242       -4.2976  -23.9289  -56.2485 H         1 UNK         0.3800 
    243 H243       -3.2689  -25.2732  -55.8339 H         1 UNK         0.3800 
    244 H244       -0.9840  -21.2010  -56.1336 H         1 UNK         0.0800 
    245 H245       -0.8982  -21.4285  -54.4042 H         1 UNK         0.0800 
    246 H246        0.5567  -19.5299  -54.6532 H         1 UNK         0.0800 
    247 H247        0.1367  -18.0926  -55.5444 H         1 UNK         0.0800 
@<TRIPOS>BOND
     1    1    2 1    
     2    1  127 1    
     3    1  128 1    
     4    1  129 1    
     5    2    3 2    
     6    2    4 am   BACKBONE|DICT|INTERRES
     7    4    5 1    
     8    4  130 1    
     9    5    6 1    
    10    5   65 1    
    11    5  131 1    
    12    6    7 1    
    13    6  132 1    
    14    6  133 1    
    15    7    8 1    
    16    8    9 1    
    17    8  134 1    
    18    8  135 1    
    19    9   10 ar   
    20    9   14 ar   
    21   10   11 ar   
    22   10  136 1    
    23   11   12 ar   
    24   11  126 1    
    25   12   13 ar   
    26   12  137 1    
    27   13   14 ar   
    28   13   15 1    
    29   14  138 1    
    30   15   16 1    
    31   15  139 1    
    32   15  140 1    
    33   16   17 1    
    34   17   18 1    
    35   17  141 1    
    36   17  142 1    
    37   18   19 1    
    38   18   67 1    
    39   18  143 1    
    40   19   20 am   BACKBONE|DICT|INTERRES
    41   19  144 1    
    42   20   21 2    
    43   20   22 1    
    44   22   23 1    
    45   22   24 1    
    46   22  145 1    
    47   23  146 1    
    48   23  147 1    
    49   23  148 1    
    50   24   25 am   BACKBONE|DICT|INTERRES
    51   24  149 1    
    52   25   26 2    
    53   25   27 1    
    54   27   28 1    
    55   27   29 1    
    56   27  150 1    
    57   28  151 1    
    58   28  152 1    
    59   28  153 1    
    60   29   30 am   BACKBONE|DICT|INTERRES
    61   29  154 1    
    62   30   31 2    
    63   30   32 1    
    64   32   33 1    
    65   32   34 1    
    66   32  155 1    
    67   33  156 1    
    68   33  157 1    
    69   33  158 1    
    70   34   35 am   BACKBONE|DICT|INTERRES
    71   34  159 1    
    72   35   36 2    
    73   35   37 1    
    74   37   38 1    
    75   37   39 1    
    76   37  160 1    
    77   38  161 1    
    78   38  162 1    
    79   38  163 1    
    80   39   40 am   BACKBONE|DICT|INTERRES
    81   39  164 1    
    82   40   41 2    
    83   40   42 1    
    84   42   43 1    
    85   42   44 1    
    86   42  165 1    
    87   43  166 1    
    88   43  167 1    
    89   43  168 1    
    90   44   45 am   BACKBONE|DICT|INTERRES
    91   44  169 1    
    92   45   46 2    
    93   45   47 1    
    94   47   48 1    
    95   47   49 1    
    96   47  170 1    
    97   48  171 1    
    98   48  172 1    
    99   48  173 1    
   100   49   50 am   BACKBONE|DICT|INTERRES
   101   49  174 1    
   102   50   51 2    
   103   50   52 1    
   104   52   53 1    
   105   52   54 1    
   106   52  175 1    
   107   53  176 1    
   108   53  177 1    
   109   53  178 1    
   110   54   55 am   BACKBONE|DICT|INTERRES
   111   54  179 1    
   112   55   56 2    
   113   55   57 1    
   114   57   58 1    
   115   57   59 1    
   116   57  180 1    
   117   58  181 1    
   118   58  182 1    
   119   58  183 1    
   120   59   60 am   BACKBONE|DICT|INTERRES
   121   59  184 1    
   122   60   61 2    
   123   60   62 1    
   124   62   63 1    
   125   62   64 1    
   126   62  185 1    
   127   63  186 1    
   128   63  187 1    
   129   63  188 1    
   130   64   65 am   BACKBONE|DICT|INTERRES
   131   64  189 1    
   132   65   66 2    
   133   67   68 2    
   134   67   69 am   BACKBONE|DICT|INTERRES
   135   69   70 1    
   136   69  190 1    
   137   70   71 1    
   138   70   72 1    
   139   70  191 1    
   140   71  192 1    
   141   71  193 1    
   142   71  194 1    
   143   72   73 2    
   144   72   74 am   BACKBONE|DICT|INTERRES
   145   74   75 1    
   146   74  195 1    
   147   75   76 1    
   148   75   77 1    
   149   75  196 1    
   150   76  197 1    
   151   76  198 1    
   152   76  199 1    
   153   77   78 2    
   154   77   79 am   BACKBONE|DICT|INTERRES
   155   79   80 1    
   156   79  200 1    
   157   80   81 1    
   158   80   82 1    
   159   80  201 1    
   160   81  202 1    
   161   81  203 1    
   162   81  204 1    
   163   82   83 2    
   164   82   84 am   BACKBONE|DICT|INTERRES
   165   84   85 1    
   166   84  205 1    
   167   85   86 1    
   168   85   87 1    
   169   85  206 1    
   170   86  207 1    
   171   86  208 1    
   172   86  209 1    
   173   87   88 2    
   174   87   89 am   BACKBONE|DICT|INTERRES
   175   89   90 1    
   176   89  210 1    
   177   90   91 1    
   178   90   92 1    
   179   90  211 1    
   180   91  212 1    
   181   91  213 1    
   182   91  214 1    
   183   92   93 2    
   184   92   94 am   BACKBONE|DICT|INTERRES
   185   94   95 1    
   186   94  215 1    
   187   95   96 1    
   188   95   97 1    
   189   95  216 1    
   190   96  217 1    
   191   96  218 1    
   192   96  219 1    
   193   97   98 2    
   194   97   99 am   BACKBONE|DICT|INTERRES
   195   99  100 1    
   196   99  220 1    
   197  100  101 1    
   198  100  102 1    
   199  100  221 1    
   200  101  222 1    
   201  101  223 1    
   202  101  224 1    
   203  102  103 2    
   204  102  104 am   BACKBONE|DICT|INTERRES
   205  104  105 1    
   206  104  225 1    
   207  105  106 1    
   208  105  107 1    
   209  105  226 1    
   210  106  227 1    
   211  106  228 1    
   212  106  229 1    
   213  107  108 2    
   214  107  109 am   BACKBONE|DICT|INTERRES
   215  109  110 1    
   216  109  230 1    
   217  110  111 1    
   218  110  112 1    
   219  110  231 1    
   220  111  232 1    
   221  111  233 1    
   222  111  234 1    
   223  112  113 2    
   224  112  114 am   BACKBONE|DICT|INTERRES
   225  114  115 1    
   226  114  235 1    
   227  115  116 1    
   228  115  117 1    
   229  115  236 1    
   230  116  237 1    
   231  116  238 1    
   232  116  239 1    
   233  117  118 2    
   234  117  119 am   BACKBONE|DICT|INTERRES
   235  119  120 1    
   236  119  240 1    
   237  120  121 1    
   238  120  124 1    
   239  120  241 1    
   240  121  122 am   BACKBONE|DICT|INTERRES
   241  121  123 2    
   242  122  242 1    
   243  122  243 1    
   244  124  125 1    
   245  124  244 1    
   246  124  245 1    
   247  125  126 1    
   248  126  246 1    
   249  126  247 1    
@<TRIPOS>SUBSTRUCTURE
     1 UNK         1 GROUP             0       ****    0 ROOT    
