@<TRIPOS>MOLECULE
3R540
247   249    1
SMALL
USER_CHARGES


@<TRIPOS>ATOM
      1 CA          4.7854  -12.2490  -51.5693 C.3       0 UNK        -0.1800 
      2 C           4.1255  -11.8162  -50.2677 C.2       0 UNK         0.5000 
      3 O           4.0159  -10.6176  -50.0096 O.2       0 UNK        -0.5000 
      4 N           3.6934  -12.7894  -49.4528 N.am      1 UNK        -0.5000 
      5 CA          3.0175  -12.6114  -48.1579 C.3       1 UNK         0.1400 
      6 C6          1.6159  -11.9462  -48.2607 C.3       23 UNK        -0.0398 
      7 S7          0.4834  -12.8952  -49.3261 S.3       23 UNK        -0.2404 
      8 C8         -0.3141  -13.9724  -48.0968 C.3       23 UNK        -0.0205 
      9 C9         -0.8030  -15.2521  -48.7497 C.ar      23 UNK        -0.0193 
     10 C10        -2.1444  -15.4017  -49.1102 C.ar      23 UNK        -0.1150 
     11 C11        -2.5806  -16.5793  -49.7219 C.ar      23 UNK        -0.0193 
     12 C12        -1.6635  -17.6005  -49.9832 C.ar      23 UNK        -0.1150 
     13 C13        -0.3239  -17.4837  -49.5903 C.ar      23 UNK        -0.0193 
     14 C14         0.0957  -16.2962  -48.9855 C.ar      23 UNK        -0.1150 
     15 C15         0.7032  -18.6049  -49.7790 C.3       23 UNK        -0.0205 
     16 S16         0.0331  -20.2746  -50.1085 S.3       23 UNK        -0.2404 
     17 C17        -1.0997  -20.5238  -48.7021 C.3       23 UNK        -0.0398 
     18 CA         -0.7947  -21.8114  -47.8937 C.3       11 UNK         0.1400 
     19 N          -0.1288  -21.5220  -46.6207 N.am      11 UNK        -0.5000 
     20 C           0.3623  -22.4459  -45.7828 C.2       10 UNK         0.5000 
     21 O           0.3959  -23.6505  -46.0328 O.2       10 UNK        -0.5000 
     22 CA          0.8417  -21.9463  -44.4073 C.3       10 UNK         0.1400 
     23 CB          2.2764  -21.4044  -44.4875 C.3       10 UNK        -0.1800 
     24 N          -0.0473  -20.9304  -43.8371 N.am      10 UNK        -0.5000 
     25 C          -1.3283  -21.1521  -43.5058 C.2       9 UNK         0.5000 
     26 O          -1.8733  -22.2503  -43.5982 O.2       9 UNK        -0.5000 
     27 CA         -2.1582  -19.9452  -43.0354 C.3       9 UNK         0.1400 
     28 CB         -1.9055  -19.6605  -41.5481 C.3       9 UNK        -0.1800 
     29 N          -1.9080  -18.7393  -43.8248 N.am      9 UNK        -0.5000 
     30 C          -2.1690  -18.6145  -45.1344 C.2       8 UNK         0.5000 
     31 O          -2.6906  -19.4978  -45.8151 O.2       8 UNK        -0.5000 
     32 CA         -1.7135  -17.3073  -45.8098 C.3       8 UNK         0.1400 
     33 CB         -2.7032  -16.1653  -45.5380 C.3       8 UNK        -0.1800 
     34 N          -0.3673  -16.9067  -45.3966 N.am      8 UNK        -0.5000 
     35 C           0.7362  -17.6347  -45.6231 C.2       7 UNK         0.5000 
     36 O           0.7426  -18.6945  -46.2492 O.2       7 UNK        -0.5000 
     37 CA          2.0392  -17.1243  -44.9858 C.3       7 UNK         0.1400 
     38 CB          2.6857  -16.0227  -45.8415 C.3       7 UNK        -0.1800 
     39 N           1.8109  -16.6461  -43.6206 N.am      7 UNK        -0.5000 
     40 C           1.5326  -17.4570  -42.5878 C.2       6 UNK         0.5000 
     41 O           1.5221  -18.6846  -42.6719 O.2       6 UNK        -0.5000 
     42 CA          1.1466  -16.7951  -41.2526 C.3       6 UNK         0.1400 
     43 CB          2.3768  -16.5822  -40.3611 C.3       6 UNK        -0.1800 
     44 N           0.4381  -15.5286  -41.4432 N.am      6 UNK        -0.5000 
     45 C          -0.8260  -15.4542  -41.8858 C.2       5 UNK         0.5000 
     46 O          -1.5090  -16.4431  -42.1465 O.2       5 UNK        -0.5000 
     47 CA         -1.4249  -14.0550  -42.1164 C.3       5 UNK         0.1400 
     48 CB         -2.1778  -13.5809  -40.8649 C.3       5 UNK        -0.1800 
     49 N          -0.4383  -13.0446  -42.4947 N.am      5 UNK        -0.5000 
     50 C           0.3244  -13.0802  -43.5949 C.2       4 UNK         0.5000 
     51 O           0.2822  -13.9927  -44.4232 O.2       4 UNK        -0.5000 
     52 CA          1.3229  -11.9210  -43.7938 C.3       4 UNK         0.1400 
     53 CB          1.1454  -10.7526  -42.7984 C.3       4 UNK        -0.1800 
     54 N           2.7157  -12.3764  -43.7825 N.am      4 UNK        -0.5000 
     55 C           3.3389  -13.0865  -42.8277 C.2       3 UNK         0.5000 
     56 O           2.7732  -13.5006  -41.8147 O.2       3 UNK        -0.5000 
     57 CA          4.8388  -13.3946  -43.0328 C.3       3 UNK         0.1400 
     58 CB          5.1618  -14.8720  -42.7515 C.3       3 UNK        -0.1800 
     59 N           5.2935  -13.0610  -44.3853 N.am      3 UNK        -0.5000 
     60 C           5.9746  -11.9562  -44.7185 C.2       2 UNK         0.5000 
     61 O           6.3560  -11.1118  -43.9075 O.2       2 UNK        -0.5000 
     62 CA          6.2486  -11.7418  -46.2213 C.3       2 UNK         0.1400 
     63 CB          7.6117  -12.3341  -46.6098 C.3       2 UNK        -0.1800 
     64 N           5.2158  -12.2972  -47.1042 N.am      2 UNK        -0.5000 
     65 C           3.9276  -11.9223  -47.1167 C.2       1 UNK         0.5000 
     66 O           3.4599  -11.0916  -46.3368 O.2       1 UNK        -0.5000 
     67 C          -2.0794  -22.6390  -47.6847 C.2       11 UNK         0.5000 
     68 O          -2.2594  -23.6504  -48.3572 O.2       11 UNK        -0.5000 
     69 N          -2.9407  -22.2130  -46.7511 N.am      12 UNK        -0.5000 
     70 CA         -4.2009  -22.8848  -46.4229 C.3       12 UNK         0.1400 
     71 CB         -5.0214  -21.9892  -45.4839 C.3       12 UNK        -0.1800 
     72 C          -4.0180  -24.2908  -45.8166 C.2       12 UNK         0.5000 
     73 O          -4.8692  -25.1542  -46.0275 O.2       12 UNK        -0.5000 
     74 N          -2.9131  -24.5030  -45.0913 N.am      13 UNK        -0.5000 
     75 CA         -2.5335  -25.7853  -44.4983 C.3       13 UNK         0.1400 
     76 CB         -1.5560  -25.5241  -43.3418 C.3       13 UNK        -0.1800 
     77 C          -1.9132  -26.7743  -45.5059 C.2       13 UNK         0.5000 
     78 O          -1.8849  -27.9720  -45.2203 O.2       13 UNK        -0.5000 
     79 N          -1.4075  -26.2705  -46.6412 N.am      14 UNK        -0.5000 
     80 CA         -0.7190  -27.0422  -47.6771 C.3       14 UNK         0.1400 
     81 CB         -0.1034  -26.1076  -48.7291 C.3       14 UNK        -0.1800 
     82 C          -1.5197  -28.1958  -48.3314 C.2       14 UNK         0.5000 
     83 O          -0.9466  -29.2753  -48.4679 O.2       14 UNK        -0.5000 
     84 N          -2.7946  -28.0644  -48.7394 N.am      15 UNK        -0.5000 
     85 CA         -3.6691  -26.8869  -48.8089 C.3       15 UNK         0.1400 
     86 CB         -5.1121  -27.3522  -48.5540 C.3       15 UNK        -0.1800 
     87 C          -3.5806  -26.1353  -50.1503 C.2       15 UNK         0.5000 
     88 O          -4.3024  -25.1536  -50.3307 O.2       15 UNK        -0.5000 
     89 N          -2.7204  -26.6097  -51.0679 N.am      16 UNK        -0.5000 
     90 CA         -2.4014  -26.0130  -52.3716 C.3       16 UNK         0.1400 
     91 CB         -1.5345  -24.7519  -52.1773 C.3       16 UNK        -0.1800 
     92 C          -3.6581  -25.7571  -53.2285 C.2       16 UNK         0.5000 
     93 O          -3.8698  -24.6408  -53.7077 O.2       16 UNK        -0.5000 
     94 N          -4.5008  -26.7947  -53.3325 N.am      17 UNK        -0.5000 
     95 CA         -5.8305  -26.8461  -53.9530 C.3       17 UNK         0.1400 
     96 CB         -5.7758  -26.5060  -55.4556 C.3       17 UNK        -0.1800 
     97 C          -6.8886  -26.0004  -53.2168 C.2       17 UNK         0.5000 
     98 O          -7.9123  -26.5427  -52.7987 O.2       17 UNK        -0.5000 
     99 N          -6.6205  -24.7012  -53.0636 N.am      18 UNK        -0.5000 
    100 CA        -7.4740  -23.7160  -52.4079 C.3       18 UNK         0.1400 
    101 CB        -8.6623  -23.3461  -53.3210 C.3       18 UNK        -0.1800 
    102 C         -6.6278  -22.4989  -51.9973 C.2       18 UNK         0.5000 
    103 O         -6.9750  -21.3676  -52.3357 O.2       18 UNK        -0.5000 
    104 N         -5.5187  -22.7568  -51.2886 N.am      19 UNK        -0.5000 
    105 CA        -4.5323  -21.7788  -50.8188 C.3       19 UNK         0.1400 
    106 CB        -5.1537  -20.8040  -49.7942 C.3       19 UNK        -0.1800 
    107 C         -3.7963  -21.0729  -51.9769 C.2       19 UNK         0.5000 
    108 O         -3.6240  -19.8531  -51.9551 O.2       19 UNK        -0.5000 
    109 N         -3.3606  -21.8718  -52.9618 N.am      20 UNK        -0.5000 
    110 CA        -2.5452  -21.4933  -54.1157 C.3       20 UNK         0.1400 
    111 CB        -1.1194  -21.1076  -53.6560 C.3       20 UNK        -0.1800 
    112 C         -3.2379  -20.4330  -54.9963 C.2       20 UNK         0.5000 
    113 O         -4.3670  -20.6562  -55.4397 O.2       20 UNK        -0.5000 
    114 N         -2.5571  -19.3036  -55.2356 N.am      21 UNK        -0.5000 
    115 CA        -2.9985  -18.1867  -56.0752 C.3       21 UNK         0.1400 
    116 CB        -1.8583  -17.1605  -56.1661 C.3       21 UNK        -0.1800 
    117 C         -4.3001  -17.5041  -55.6092 C.2       21 UNK         0.5000 
    118 O         -4.9500  -16.8395  -56.4179 O.2       21 UNK        -0.5000 
    119 N         -4.6644  -17.6839  -54.3340 N.am      22 UNK        -0.5000 
    120 CA        -5.9321  -17.2151  -53.7556 C.3       22 UNK         0.1400 
    121 C         -7.1722  -18.0618  -54.1731 C.2       22 UNK         0.5000 
    122 N         -7.0160  -19.2070  -54.8285 N.am      22 UNK        -0.7600 
    123 O         -8.3027  -17.6594  -53.9117 O.2       22 UNK        -0.5000 
    124 C124       -5.8483  -17.0752  -52.2150 C.3       23 UNK        -0.0398 
    125 S125       -4.4492  -16.0262  -51.6815 S.3       23 UNK        -0.2404 
    126 C126       -4.0458  -16.7718  -50.0741 C.3       23 UNK        -0.0205 
    127 H127        4.8140  -13.3344  -51.6692 H         1 UNK         0.0600 
    128 H128        5.8089  -11.8764  -51.6131 H         1 UNK         0.0600 
    129 H129        4.2372  -11.8442  -52.4200 H         1 UNK         0.0600 
    130 H130        3.8115  -13.7494  -49.7448 H         1 UNK         0.3000 
    131 H131        2.8634  -13.6187  -47.7693 H         1 UNK         0.0600 
    132 H132        1.6975  -10.9337  -48.6583 H         1 UNK         0.0800 
    133 H133        1.1550  -11.8453  -47.2768 H         1 UNK         0.0800 
    134 H134        0.3866  -14.2234  -47.3000 H         1 UNK         0.0800 
    135 H135       -1.1380  -13.4371  -47.6224 H         1 UNK         0.0800 
    136 H136       -2.8484  -14.6046  -48.9165 H         1 UNK         0.1150 
    137 H137       -2.0118  -18.4963  -50.4737 H         1 UNK         0.1150 
    138 H138        1.1293  -16.1829  -48.6914 H         1 UNK         0.1150 
    139 H139        1.3619  -18.3321  -50.6042 H         1 UNK         0.0800 
    140 H140        1.3332  -18.6686  -48.8907 H         1 UNK         0.0800 
    141 H141       -1.0869  -19.6503  -48.0506 H         1 UNK         0.0800 
    142 H142       -2.1008  -20.5357  -49.1341 H         1 UNK         0.0800 
    143 H143       -0.1166  -22.4447  -48.4701 H         1 UNK         0.0600 
    144 H144       -0.0624  -20.5447  -46.3539 H         1 UNK         0.3000 
    145 H145        0.8432  -22.8018  -43.7288 H         1 UNK         0.0600 
    146 H146        2.6470  -21.1239  -43.5015 H         1 UNK         0.0600 
    147 H147        2.9556  -22.1581  -44.8876 H         1 UNK         0.0600 
    148 H148        2.3433  -20.5280  -45.1317 H         1 UNK         0.0600 
    149 H149        0.3519  -20.0108  -43.6818 H         1 UNK         0.3000 
    150 H150       -3.2126  -20.2018  -43.1539 H         1 UNK         0.0600 
    151 H151       -2.1230  -20.5399  -40.9406 H         1 UNK         0.0600 
    152 H152       -2.5404  -18.8514  -41.1871 H         1 UNK         0.0600 
    153 H153       -0.8682  -19.3827  -41.3625 H         1 UNK         0.0600 
    154 H154       -1.5397  -17.9375  -43.3204 H         1 UNK         0.3000 
    155 H155       -1.6906  -17.4847  -46.8860 H         1 UNK         0.0600 
    156 H156       -3.6917  -16.4100  -45.9283 H         1 UNK         0.0600 
    157 H157       -2.3829  -15.2413  -46.0193 H         1 UNK         0.0600 
    158 H158       -2.8117  -15.9672  -44.4722 H         1 UNK         0.0600 
    159 H159       -0.2783  -16.0318  -44.8938 H         1 UNK         0.3000 
    160 H160        2.7364  -17.9640  -44.9439 H         1 UNK         0.0600 
    161 H161        2.0807  -15.1185  -45.8707 H         1 UNK         0.0600 
    162 H162        2.8213  -16.3600  -46.8698 H         1 UNK         0.0600 
    163 H163        3.6704  -15.7541  -45.4627 H         1 UNK         0.0600 
    164 H164        1.7278  -15.6475  -43.4901 H         1 UNK         0.3000 
    165 H165        0.4795  -17.4812  -40.7271 H         1 UNK         0.0600 
    166 H166        2.0952  -16.1684  -39.3928 H         1 UNK         0.0600 
    167 H167        2.8913  -17.5258  -40.1753 H         1 UNK         0.0600 
    168 H168        3.0934  -15.9042  -40.8188 H         1 UNK         0.0600 
    169 H169        0.9695  -14.6775  -41.2998 H         1 UNK         0.3000 
    170 H170       -2.1422  -14.1371  -42.9352 H         1 UNK         0.0600 
    171 H171       -2.9407  -14.3033  -40.5710 H         1 UNK         0.0600 
    172 H172       -1.5053  -13.4499  -40.0162 H         1 UNK         0.0600 
    173 H173       -2.6834  -12.6317  -41.0437 H         1 UNK         0.0600 
    174 H174       -0.3172  -12.2726  -41.8556 H         1 UNK         0.3000 
    175 H175        1.1319  -11.5307  -44.7939 H         1 UNK         0.0600 
    176 H176        1.3538  -11.0501  -41.7700 H         1 UNK         0.0600 
    177 H177        1.8208   -9.9327  -43.0436 H         1 UNK         0.0600 
    178 H178        0.1323  -10.3499  -42.8352 H         1 UNK         0.0600 
    179 H179        3.2621  -12.0634  -44.5767 H         1 UNK         0.3000 
    180 H180        5.3839  -12.7961  -42.3003 H         1 UNK         0.0600 
    181 H181        4.5129  -15.5484  -43.3063 H         1 UNK         0.0600 
    182 H182        5.0445  -15.0967  -41.6918 H         1 UNK         0.0600 
    183 H183        6.1939  -15.1080  -43.0112 H         1 UNK         0.0600 
    184 H184        5.0306  -13.6990  -45.1218 H         1 UNK         0.3000 
    185 H185        6.2835  -10.6642  -46.3945 H         1 UNK         0.0600 
    186 H186        8.4083  -11.9220  -45.9888 H         1 UNK         0.0600 
    187 H187        7.6289  -13.4180  -46.4892 H         1 UNK         0.0600 
    188 H188        7.8601  -12.1065  -47.6466 H         1 UNK         0.0600 
    189 H189        5.5238  -12.9758  -47.7857 H         1 UNK         0.3000 
    190 H190       -2.7485  -21.3411  -46.2635 H         1 UNK         0.3000 
    191 H191       -4.7612  -23.0058  -47.3523 H         1 UNK         0.0600 
    192 H192       -5.2155  -21.0164  -45.9365 H         1 UNK         0.0600 
    193 H193       -5.9873  -22.4419  -45.2566 H         1 UNK         0.0600 
    194 H194       -4.5057  -21.8221  -44.5381 H         1 UNK         0.0600 
    195 H195       -2.3142  -23.7105  -44.8812 H         1 UNK         0.3000 
    196 H196       -3.4278  -26.2566  -44.0852 H         1 UNK         0.0600 
    197 H197       -1.2619  -26.4557  -42.8567 H         1 UNK         0.0600 
    198 H198       -2.0086  -24.8903  -42.5790 H         1 UNK         0.0600 
    199 H199       -0.6468  -25.0319  -43.6894 H         1 UNK         0.0600 
    200 H200       -1.4647  -25.2713  -46.7899 H         1 UNK         0.3000 
    201 H201        0.1219  -27.5173  -47.1674 H         1 UNK         0.0600 
    202 H202        0.5769  -25.3905  -48.2693 H         1 UNK         0.0600 
    203 H203       -0.8601  -25.5452  -49.2696 H         1 UNK         0.0600 
    204 H204        0.4697  -26.6716  -49.4660 H         1 UNK         0.0600 
    205 H205       -3.2215  -28.8992  -49.1126 H         1 UNK         0.3000 
    206 H206       -3.4225  -26.1624  -48.0415 H         1 UNK         0.0600 
    207 H207       -5.2000  -27.8410  -47.5834 H         1 UNK         0.0600 
    208 H208       -5.8025  -26.5074  -48.5481 H         1 UNK         0.0600 
    209 H209       -5.4540  -28.0517  -49.3177 H         1 UNK         0.0600 
    210 H210       -2.2081  -27.4477  -50.8329 H         1 UNK         0.3000 
    211 H211       -1.8030  -26.7431  -52.9183 H         1 UNK         0.0600 
    212 H212       -2.0458  -23.9936  -51.5838 H         1 UNK         0.0600 
    213 H213       -1.2715  -24.3045  -53.1362 H         1 UNK         0.0600 
    214 H214       -0.6005  -24.9928  -51.6706 H         1 UNK         0.0600 
    215 H215       -4.2330  -27.6418  -52.8512 H         1 UNK         0.3000 
    216 H216       -6.1511  -27.8859  -53.8715 H         1 UNK         0.0600 
    217 H217       -6.7533  -26.6449  -55.9189 H         1 UNK         0.0600 
    218 H218       -5.0730  -27.1536  -55.9797 H         1 UNK         0.0600 
    219 H219       -5.4771  -25.4732  -55.6359 H         1 UNK         0.0600 
    220 H220       -5.7196  -24.3682  -53.3983 H         1 UNK         0.3000 
    221 H221       -7.8668  -24.1498  -51.4862 H         1 UNK         0.0600 
    222 H222       -8.3214  -22.9243  -54.2672 H         1 UNK         0.0600 
    223 H223       -9.2809  -24.2148  -53.5455 H         1 UNK         0.0600 
    224 H224       -9.3085  -22.6083  -52.8439 H         1 UNK         0.0600 
    225 H225       -5.2933  -23.7225  -51.0558 H         1 UNK         0.3000 
    226 H226       -3.7717  -22.3565  -50.2928 H         1 UNK         0.0600 
    227 H227       -5.6569  -21.3433  -48.9922 H         1 UNK         0.0600 
    228 H228       -4.3904  -20.1794  -49.3315 H         1 UNK         0.0600 
    229 H229       -5.8810  -20.1362  -50.2558 H         1 UNK         0.0600 
    230 H230       -3.6219  -22.8524  -52.9422 H         1 UNK         0.3000 
    231 H231       -2.4603  -22.3883  -54.7334 H         1 UNK         0.0600 
    232 H232       -1.1131  -20.2009  -53.0497 H         1 UNK         0.0600 
    233 H233       -0.4577  -20.9473  -54.5079 H         1 UNK         0.0600 
    234 H234       -0.6747  -21.9004  -53.0548 H         1 UNK         0.0600 
    235 H235       -1.6499  -19.2018  -54.8048 H         1 UNK         0.3000 
    236 H236       -3.1843  -18.5828  -57.0755 H         1 UNK         0.0600 
    237 H237       -0.9555  -17.6073  -56.5831 H         1 UNK         0.0600 
    238 H238       -2.1331  -16.3254  -56.8120 H         1 UNK         0.0600 
    239 H239       -1.6102  -16.7496  -55.1865 H         1 UNK         0.0600 
    240 H240       -4.0838  -18.2514  -53.7300 H         1 UNK         0.3000 
    241 H241       -6.1165  -16.2148  -54.1521 H         1 UNK         0.0600 
    242 H242       -7.8290  -19.7464  -55.0768 H         1 UNK         0.3800 
    243 H243       -6.0922  -19.5788  -55.0179 H         1 UNK         0.3800 
    244 H244       -6.7661  -16.6386  -51.8175 H         1 UNK         0.0800 
    245 H245       -5.7600  -18.0655  -51.7658 H         1 UNK         0.0800 
    246 H246       -4.2740  -17.8378  -50.0849 H         1 UNK         0.0800 
    247 H247       -4.6796  -16.3322  -49.3027 H         1 UNK         0.0800 
@<TRIPOS>BOND
     1    1    2 1    
     2    1  127 1    
     3    1  128 1    
     4    1  129 1    
     5    2    3 2    
     6    2    4 am   BACKBONE|DICT|INTERRES
     7    4    5 1    
     8    4  130 1    
     9    5    6 1    
    10    5   65 1    
    11    5  131 1    
    12    6    7 1    
    13    6  132 1    
    14    6  133 1    
    15    7    8 1    
    16    8    9 1    
    17    8  134 1    
    18    8  135 1    
    19    9   10 ar   
    20    9   14 ar   
    21   10   11 ar   
    22   10  136 1    
    23   11   12 ar   
    24   11  126 1    
    25   12   13 ar   
    26   12  137 1    
    27   13   14 ar   
    28   13   15 1    
    29   14  138 1    
    30   15   16 1    
    31   15  139 1    
    32   15  140 1    
    33   16   17 1    
    34   17   18 1    
    35   17  141 1    
    36   17  142 1    
    37   18   19 1    
    38   18   67 1    
    39   18  143 1    
    40   19   20 am   BACKBONE|DICT|INTERRES
    41   19  144 1    
    42   20   21 2    
    43   20   22 1    
    44   22   23 1    
    45   22   24 1    
    46   22  145 1    
    47   23  146 1    
    48   23  147 1    
    49   23  148 1    
    50   24   25 am   BACKBONE|DICT|INTERRES
    51   24  149 1    
    52   25   26 2    
    53   25   27 1    
    54   27   28 1    
    55   27   29 1    
    56   27  150 1    
    57   28  151 1    
    58   28  152 1    
    59   28  153 1    
    60   29   30 am   BACKBONE|DICT|INTERRES
    61   29  154 1    
    62   30   31 2    
    63   30   32 1    
    64   32   33 1    
    65   32   34 1    
    66   32  155 1    
    67   33  156 1    
    68   33  157 1    
    69   33  158 1    
    70   34   35 am   BACKBONE|DICT|INTERRES
    71   34  159 1    
    72   35   36 2    
    73   35   37 1    
    74   37   38 1    
    75   37   39 1    
    76   37  160 1    
    77   38  161 1    
    78   38  162 1    
    79   38  163 1    
    80   39   40 am   BACKBONE|DICT|INTERRES
    81   39  164 1    
    82   40   41 2    
    83   40   42 1    
    84   42   43 1    
    85   42   44 1    
    86   42  165 1    
    87   43  166 1    
    88   43  167 1    
    89   43  168 1    
    90   44   45 am   BACKBONE|DICT|INTERRES
    91   44  169 1    
    92   45   46 2    
    93   45   47 1    
    94   47   48 1    
    95   47   49 1    
    96   47  170 1    
    97   48  171 1    
    98   48  172 1    
    99   48  173 1    
   100   49   50 am   BACKBONE|DICT|INTERRES
   101   49  174 1    
   102   50   51 2    
   103   50   52 1    
   104   52   53 1    
   105   52   54 1    
   106   52  175 1    
   107   53  176 1    
   108   53  177 1    
   109   53  178 1    
   110   54   55 am   BACKBONE|DICT|INTERRES
   111   54  179 1    
   112   55   56 2    
   113   55   57 1    
   114   57   58 1    
   115   57   59 1    
   116   57  180 1    
   117   58  181 1    
   118   58  182 1    
   119   58  183 1    
   120   59   60 am   BACKBONE|DICT|INTERRES
   121   59  184 1    
   122   60   61 2    
   123   60   62 1    
   124   62   63 1    
   125   62   64 1    
   126   62  185 1    
   127   63  186 1    
   128   63  187 1    
   129   63  188 1    
   130   64   65 am   BACKBONE|DICT|INTERRES
   131   64  189 1    
   132   65   66 2    
   133   67   68 2    
   134   67   69 am   BACKBONE|DICT|INTERRES
   135   69   70 1    
   136   69  190 1    
   137   70   71 1    
   138   70   72 1    
   139   70  191 1    
   140   71  192 1    
   141   71  193 1    
   142   71  194 1    
   143   72   73 2    
   144   72   74 am   BACKBONE|DICT|INTERRES
   145   74   75 1    
   146   74  195 1    
   147   75   76 1    
   148   75   77 1    
   149   75  196 1    
   150   76  197 1    
   151   76  198 1    
   152   76  199 1    
   153   77   78 2    
   154   77   79 am   BACKBONE|DICT|INTERRES
   155   79   80 1    
   156   79  200 1    
   157   80   81 1    
   158   80   82 1    
   159   80  201 1    
   160   81  202 1    
   161   81  203 1    
   162   81  204 1    
   163   82   83 2    
   164   82   84 am   BACKBONE|DICT|INTERRES
   165   84   85 1    
   166   84  205 1    
   167   85   86 1    
   168   85   87 1    
   169   85  206 1    
   170   86  207 1    
   171   86  208 1    
   172   86  209 1    
   173   87   88 2    
   174   87   89 am   BACKBONE|DICT|INTERRES
   175   89   90 1    
   176   89  210 1    
   177   90   91 1    
   178   90   92 1    
   179   90  211 1    
   180   91  212 1    
   181   91  213 1    
   182   91  214 1    
   183   92   93 2    
   184   92   94 am   BACKBONE|DICT|INTERRES
   185   94   95 1    
   186   94  215 1    
   187   95   96 1    
   188   95   97 1    
   189   95  216 1    
   190   96  217 1    
   191   96  218 1    
   192   96  219 1    
   193   97   98 2    
   194   97   99 am   BACKBONE|DICT|INTERRES
   195   99  100 1    
   196   99  220 1    
   197  100  101 1    
   198  100  102 1    
   199  100  221 1    
   200  101  222 1    
   201  101  223 1    
   202  101  224 1    
   203  102  103 2    
   204  102  104 am   BACKBONE|DICT|INTERRES
   205  104  105 1    
   206  104  225 1    
   207  105  106 1    
   208  105  107 1    
   209  105  226 1    
   210  106  227 1    
   211  106  228 1    
   212  106  229 1    
   213  107  108 2    
   214  107  109 am   BACKBONE|DICT|INTERRES
   215  109  110 1    
   216  109  230 1    
   217  110  111 1    
   218  110  112 1    
   219  110  231 1    
   220  111  232 1    
   221  111  233 1    
   222  111  234 1    
   223  112  113 2    
   224  112  114 am   BACKBONE|DICT|INTERRES
   225  114  115 1    
   226  114  235 1    
   227  115  116 1    
   228  115  117 1    
   229  115  236 1    
   230  116  237 1    
   231  116  238 1    
   232  116  239 1    
   233  117  118 2    
   234  117  119 am   BACKBONE|DICT|INTERRES
   235  119  120 1    
   236  119  240 1    
   237  120  121 1    
   238  120  124 1    
   239  120  241 1    
   240  121  122 am   BACKBONE|DICT|INTERRES
   241  121  123 2    
   242  122  242 1    
   243  122  243 1    
   244  124  125 1    
   245  124  244 1    
   246  124  245 1    
   247  125  126 1    
   248  126  246 1    
   249  126  247 1    
@<TRIPOS>SUBSTRUCTURE
     1 UNK         1 GROUP             0       ****    0 ROOT    
