@<TRIPOS>MOLECULE
3R540
247   249    1
SMALL
USER_CHARGES


@<TRIPOS>ATOM
      1 CA          2.3580  -12.3971  -46.1381 C.3       0 UNK        -0.1800 
      2 C           2.3729  -13.4094  -47.2740 C.2       0 UNK         0.5000 
      3 O           1.3214  -13.9226  -47.6565 O.2       0 UNK        -0.5000 
      4 N           3.5599  -13.6854  -47.8269 N.am      1 UNK        -0.5000 
      5 CA          3.8369  -14.6428  -48.9092 C.3       1 UNK         0.1400 
      6 C6          5.3430  -15.0218  -48.9240 C.3       23 UNK        -0.0398 
      7 S7          5.7429  -16.2286  -47.6165 S.3       23 UNK        -0.2404 
      8 C8          5.9938  -17.7474  -48.5943 C.3       23 UNK        -0.0205 
      9 C9          4.6866  -18.3530  -49.0921 C.ar      23 UNK        -0.0193 
     10 C10         4.0805  -17.8815  -50.2620 C.ar      23 UNK        -0.1150 
     11 C11         2.8949  -18.4511  -50.7346 C.ar      23 UNK        -0.0193 
     12 C12         2.3349  -19.5312  -50.0479 C.ar      23 UNK        -0.1150 
     13 C13         2.9423  -20.0274  -48.8912 C.ar      23 UNK        -0.0193 
     14 C14         4.1053  -19.4231  -48.4061 C.ar      23 UNK        -0.1150 
     15 C15         2.3500  -21.2284  -48.1790 C.3       23 UNK        -0.0205 
     16 S16         3.0228  -22.7801  -48.8401 S.3       23 UNK        -0.2404 
     17 C17         1.9003  -23.9909  -48.0682 C.3       23 UNK        -0.0398 
     18 CA          2.5207  -24.6960  -46.8366 C.3       11 UNK         0.1400 
     19 N           2.8297  -23.7431  -45.7666 N.am      11 UNK        -0.5000 
     20 C           3.8268  -23.8808  -44.8824 C.2       10 UNK         0.5000 
     21 O           4.6318  -24.8123  -44.8997 O.2       10 UNK        -0.5000 
     22 CA          3.9291  -22.8125  -43.7744 C.3       10 UNK         0.1400 
     23 CB          4.9742  -21.7532  -44.1553 C.3       10 UNK        -0.1800 
     24 N           2.6562  -22.1463  -43.4806 N.am      10 UNK        -0.5000 
     25 C           1.5626  -22.7547  -42.9935 C.2       9 UNK         0.5000 
     26 O           1.5239  -23.9518  -42.7108 O.2       9 UNK        -0.5000 
     27 CA          0.2797  -21.9127  -42.8481 C.3       9 UNK         0.1400 
     28 CB          0.0765  -21.4885  -41.3868 C.3       9 UNK        -0.1800 
     29 N           0.2599  -20.7231  -43.6992 N.am      9 UNK        -0.5000 
     30 C           0.2637  -20.7303  -45.0399 C.2       8 UNK         0.5000 
     31 O           0.2464  -21.7616  -45.7153 O.2       8 UNK        -0.5000 
     32 CA          0.3342  -19.3610  -45.7419 C.3       8 UNK         0.1400 
     33 CB         -1.0539  -18.9449  -46.2417 C.3       8 UNK        -0.1800 
     34 N           0.9004  -18.3043  -44.8997 N.am      8 UNK        -0.5000 
     35 C           2.1836  -18.2637  -44.5046 C.2       7 UNK         0.5000 
     36 O           3.0015  -19.1389  -44.7880 O.2       7 UNK        -0.5000 
     37 CA          2.6337  -17.0746  -43.6312 C.3       7 UNK         0.1400 
     38 CB          3.3279  -16.0168  -44.5014 C.3       7 UNK        -0.1800 
     39 N           1.5438  -16.4351  -42.8937 N.am      7 UNK        -0.5000 
     40 C           0.8287  -17.0045  -41.9129 C.2       6 UNK         0.5000 
     41 O           1.0546  -18.1302  -41.4693 O.2       6 UNK        -0.5000 
     42 CA         -0.3763  -16.1988  -41.3785 C.3       6 UNK         0.1400 
     43 CB          0.0218  -15.4043  -40.1257 C.3       6 UNK        -0.1800 
     44 N          -0.9635  -15.2808  -42.3655 N.am      6 UNK        -0.5000 
     45 C          -1.4582  -15.6578  -43.5528 C.2       5 UNK         0.5000 
     46 O          -1.4871  -16.8336  -43.9203 O.2       5 UNK        -0.5000 
     47 CA         -1.9245  -14.5365  -44.5018 C.3       5 UNK         0.1400 
     48 CB         -0.7603  -13.5923  -44.8411 C.3       5 UNK        -0.1800 
     49 N          -2.4301  -15.0929  -45.7548 N.am      5 UNK        -0.5000 
     50 C          -3.6518  -15.6007  -45.9429 C.2       4 UNK         0.5000 
     51 O          -4.5485  -15.5344  -45.0998 O.2       4 UNK        -0.5000 
     52 CA         -3.9090  -16.2773  -47.3101 C.3       4 UNK         0.1400 
     53 CB         -5.3782  -16.6972  -47.4904 C.3       4 UNK        -0.1800 
     54 N          -3.5201  -15.4293  -48.4413 N.am      4 UNK        -0.5000 
     55 C          -2.2683  -15.2141  -48.8669 C.2       3 UNK         0.5000 
     56 O          -1.2806  -15.7554  -48.3666 O.2       3 UNK        -0.5000 
     57 CA         -2.0983  -14.1990  -50.0084 C.3       3 UNK         0.1400 
     58 CB         -2.7639  -12.8473  -49.6723 C.3       3 UNK        -0.1800 
     59 N          -0.6784  -13.9974  -50.2798 N.am      3 UNK        -0.5000 
     60 C          -0.1803  -13.4915  -51.4170 C.2       2 UNK         0.5000 
     61 O          -0.8866  -13.1759  -52.3755 O.2       2 UNK        -0.5000 
     62 CA          1.3428  -13.2888  -51.5278 C.3       2 UNK         0.1400 
     63 CB          1.6911  -11.8132  -51.8009 C.3       2 UNK        -0.1800 
     64 N           2.0543  -13.7458  -50.3377 N.am      2 UNK        -0.5000 
     65 C           3.3214  -14.1623  -50.2903 C.2       1 UNK         0.5000 
     66 O           4.0606  -14.1766  -51.2763 O.2       1 UNK        -0.5000 
     67 C           1.5741  -25.8159  -46.3519 C.2       11 UNK         0.5000 
     68 O           1.2897  -26.7266  -47.1300 O.2       11 UNK        -0.5000 
     69 N           1.0388  -25.7048  -45.1240 N.am      12 UNK        -0.5000 
     70 CA          0.0090  -26.5358  -44.4781 C.3       12 UNK         0.1400 
     71 CB          0.4590  -28.0038  -44.3564 C.3       12 UNK        -0.1800 
     72 C          -1.3927  -26.4312  -45.1185 C.2       12 UNK         0.5000 
     73 O          -2.3910  -26.4934  -44.4012 O.2       12 UNK        -0.5000 
     74 N          -1.4471  -26.2448  -46.4427 N.am      13 UNK        -0.5000 
     75 CA         -2.6545  -26.0852  -47.2525 C.3       13 UNK         0.1400 
     76 CB         -2.2784  -26.2799  -48.7300 C.3       13 UNK        -0.1800 
     77 C          -3.3722  -24.7345  -47.0638 C.2       13 UNK         0.5000 
     78 O          -4.5036  -24.6021  -47.5293 O.2       13 UNK        -0.5000 
     79 N          -2.7123  -23.7549  -46.4239 N.am      14 UNK        -0.5000 
     80 CA         -3.2248  -22.4161  -46.1009 C.3       14 UNK         0.1400 
     81 CB         -4.3471  -22.5065  -45.0457 C.3       14 UNK        -0.1800 
     82 C          -3.6429  -21.6156  -47.3518 C.2       14 UNK         0.5000 
     83 O          -4.7186  -21.0168  -47.3705 O.2       14 UNK        -0.5000 
     84 N          -2.7908  -21.6555  -48.3886 N.am      15 UNK        -0.5000 
     85 CA         -2.9908  -21.0477  -49.7120 C.3       15 UNK         0.1400 
     86 CB         -2.9161  -19.5089  -49.6320 C.3       15 UNK        -0.1800 
     87 C          -4.2739  -21.5609  -50.4017 C.2       15 UNK         0.5000 
     88 O          -5.0746  -20.7664  -50.9023 O.2       15 UNK        -0.5000 
     89 N          -4.4267  -22.8936  -50.3796 N.am      16 UNK        -0.5000 
     90 CA         -5.5530  -23.6860  -50.8787 C.3       16 UNK         0.1400 
     91 CB         -5.7072  -23.5412  -52.4062 C.3       16 UNK        -0.1800 
     92 C          -6.8519  -23.4026  -50.1006 C.2       16 UNK         0.5000 
     93 O          -7.8555  -23.0019  -50.6892 O.2       16 UNK        -0.5000 
     94 N          -6.7961  -23.6218  -48.7797 N.am      17 UNK        -0.5000 
     95 CA         -7.8882  -23.4890  -47.8102 C.3       17 UNK         0.1400 
     96 CB         -8.9663  -24.5658  -48.0539 C.3       17 UNK        -0.1800 
     97 C          -8.4591  -22.0584  -47.7494 C.2       17 UNK         0.5000 
     98 O          -9.6748  -21.8660  -47.8132 O.2       17 UNK        -0.5000 
     99 N          -7.5494  -21.0821  -47.6344 N.am      18 UNK        -0.5000 
    100 CA        -7.7919  -19.6413  -47.5521 C.3       18 UNK         0.1400 
    101 CB        -8.6073  -19.2758  -46.2943 C.3       18 UNK        -0.1800 
    102 C         -8.3563  -19.0194  -48.8461 C.2       18 UNK         0.5000 
    103 O         -8.9619  -17.9478  -48.7932 O.2       18 UNK        -0.5000 
    104 N         -8.1129  -19.6671  -49.9950 N.am      19 UNK        -0.5000 
    105 CA        -8.4459  -19.1434  -51.3231 C.3       19 UNK         0.1400 
    106 CB        -8.4805  -20.2999  -52.3317 C.3       19 UNK        -0.1800 
    107 C         -7.4693  -18.0505  -51.8009 C.2       19 UNK         0.5000 
    108 O         -7.7828  -17.3514  -52.7651 O.2       19 UNK        -0.5000 
    109 N         -6.3117  -17.9348  -51.1298 N.am      20 UNK        -0.5000 
    110 CA        -5.1988  -17.0256  -51.4211 C.3       20 UNK         0.1400 
    111 CB        -5.6410  -15.5486  -51.3289 C.3       20 UNK        -0.1800 
    112 C         -4.4997  -17.3780  -52.7488 C.2       20 UNK         0.5000 
    113 O         -4.0620  -16.4867  -53.4775 O.2       20 UNK        -0.5000 
    114 N         -4.3989  -18.6838  -53.0344 N.am      21 UNK        -0.5000 
    115 CA        -3.8883  -19.2641  -54.2786 C.3       21 UNK         0.1400 
    116 CB        -4.4467  -20.6918  -54.4089 C.3       21 UNK        -0.1800 
    117 C         -2.3488  -19.2166  -54.4285 C.2       21 UNK         0.5000 
    118 O         -1.7472  -20.1884  -54.8902 O.2       21 UNK        -0.5000 
    119 N         -1.7323  -18.0898  -54.0579 N.am      22 UNK        -0.5000 
    120 CA        -0.3330  -17.7673  -54.3693 C.3       22 UNK         0.1400 
    121 C         -0.1654  -17.3577  -55.8594 C.2       22 UNK         0.5000 
    122 N          0.9597  -17.6907  -56.4772 N.am      22 UNK        -0.7600 
    123 O         -1.0258  -16.7083  -56.4502 O.2       22 UNK        -0.5000 
    124 C124        0.2240  -16.6621  -53.4364 C.3       23 UNK        -0.0398 
    125 S125        0.5757  -17.2750  -51.7543 S.3       23 UNK        -0.2404 
    126 C126        2.2556  -17.9355  -52.0163 C.3       23 UNK        -0.0205 
    127 H127        3.2783  -11.8137  -46.1067 H         1 UNK         0.0600 
    128 H128        2.2448  -12.9071  -45.1818 H         1 UNK         0.0600 
    129 H129        1.5236  -11.7063  -46.2596 H         1 UNK         0.0600 
    130 H130        4.3744  -13.2077  -47.4693 H         1 UNK         0.3000 
    131 H131        3.2642  -15.5489  -48.6978 H         1 UNK         0.0600 
    132 H132        5.6656  -15.4381  -49.8773 H         1 UNK         0.0800 
    133 H133        5.9625  -14.1347  -48.7848 H         1 UNK         0.0800 
    134 H134        6.6576  -17.5443  -49.4360 H         1 UNK         0.0800 
    135 H135        6.5210  -18.4713  -47.9711 H         1 UNK         0.0800 
    136 H136        4.5356  -17.0763  -50.8184 H         1 UNK         0.1150 
    137 H137        1.4334  -19.9942  -50.4244 H         1 UNK         0.1150 
    138 H138        4.5713  -19.8043  -47.5079 H         1 UNK         0.1150 
    139 H139        2.5674  -21.1732  -47.1117 H         1 UNK         0.0800 
    140 H140        1.2644  -21.2198  -48.2865 H         1 UNK         0.0800 
    141 H141        1.6556  -24.7207  -48.8424 H         1 UNK         0.0800 
    142 H142        0.9570  -23.5093  -47.8050 H         1 UNK         0.0800 
    143 H143        3.4430  -25.1832  -47.1602 H         1 UNK         0.0600 
    144 H144        2.2007  -22.9559  -45.6749 H         1 UNK         0.3000 
    145 H145        4.2617  -23.3127  -42.8626 H         1 UNK         0.0600 
    146 H146        4.7071  -21.2406  -45.0804 H         1 UNK         0.0600 
    147 H147        5.0806  -21.0010  -43.3735 H         1 UNK         0.0600 
    148 H148        5.9542  -22.2079  -44.3050 H         1 UNK         0.0600 
    149 H149        2.6040  -21.1616  -43.7095 H         1 UNK         0.3000 
    150 H150       -0.5608  -22.5450  -43.1418 H         1 UNK         0.0600 
    151 H151        0.0261  -22.3584  -40.7306 H         1 UNK         0.0600 
    152 H152       -0.8528  -20.9326  -41.2612 H         1 UNK         0.0600 
    153 H153        0.8945  -20.8589  -41.0344 H         1 UNK         0.0600 
    154 H154        0.2957  -19.8302  -43.2258 H         1 UNK         0.3000 
    155 H155        0.9810  -19.4576  -46.6129 H         1 UNK         0.0600 
    156 H156       -1.4171  -19.6534  -46.9828 H         1 UNK         0.0600 
    157 H157       -1.0259  -17.9639  -46.7155 H         1 UNK         0.0600 
    158 H158       -1.7872  -18.9145  -45.4356 H         1 UNK         0.0600 
    159 H159        0.2530  -17.5900  -44.5832 H         1 UNK         0.3000 
    160 H160        3.3559  -17.4533  -42.9052 H         1 UNK         0.0600 
    161 H161        3.6917  -15.1820  -43.9023 H         1 UNK         0.0600 
    162 H162        2.6546  -15.6207  -45.2621 H         1 UNK         0.0600 
    163 H163        4.1882  -16.4442  -45.0173 H         1 UNK         0.0600 
    164 H164        1.2840  -15.5064  -43.1892 H         1 UNK         0.3000 
    165 H165       -1.1477  -16.9185  -41.0971 H         1 UNK         0.0600 
    166 H166        0.7719  -14.6454  -40.3519 H         1 UNK         0.0600 
    167 H167       -0.8406  -14.9046  -39.6841 H         1 UNK         0.0600 
    168 H168        0.4400  -16.0621  -39.3625 H         1 UNK         0.0600 
    169 H169       -0.9645  -14.3009  -42.1213 H         1 UNK         0.3000 
    170 H170       -2.7155  -13.9680  -44.0088 H         1 UNK         0.0600 
    171 H171        0.0852  -14.1448  -45.2510 H         1 UNK         0.0600 
    172 H172       -1.0572  -12.8450  -45.5775 H         1 UNK         0.0600 
    173 H173       -0.4088  -13.0535  -43.9609 H         1 UNK         0.0600 
    174 H174       -1.7506  -15.2320  -46.4959 H         1 UNK         0.3000 
    175 H175       -3.3043  -17.1859  -47.3300 H         1 UNK         0.0600 
    176 H176       -6.0437  -15.8343  -47.5323 H         1 UNK         0.0600 
    177 H177       -5.5161  -17.2728  -48.4041 H         1 UNK         0.0600 
    178 H178       -5.7070  -17.3238  -46.6610 H         1 UNK         0.0600 
    179 H179       -4.2674  -14.8972  -48.8609 H         1 UNK         0.3000 
    180 H180       -2.5621  -14.6293  -50.8972 H         1 UNK         0.0600 
    181 H181       -2.3477  -12.4149  -48.7615 H         1 UNK         0.0600 
    182 H182       -3.8392  -12.9522  -49.5271 H         1 UNK         0.0600 
    183 H183       -2.6271  -12.1230  -50.4752 H         1 UNK         0.0600 
    184 H184       -0.0727  -14.3349  -49.5410 H         1 UNK         0.3000 
    185 H185        1.6677  -13.8887  -52.3804 H         1 UNK         0.0600 
    186 H186        1.3969  -11.1741  -50.9677 H         1 UNK         0.0600 
    187 H187        2.7608  -11.6806  -51.9635 H         1 UNK         0.0600 
    188 H188        1.1834  -11.4460  -52.6936 H         1 UNK         0.0600 
    189 H189        1.5433  -13.7382  -49.4586 H         1 UNK         0.3000 
    190 H190        1.3527  -24.9303  -44.5506 H         1 UNK         0.3000 
    191 H191       -0.0876  -26.1418  -43.4652 H         1 UNK         0.0600 
    192 H192        0.5343  -28.4926  -45.3280 H         1 UNK         0.0600 
    193 H193        1.4295  -28.0788  -43.8659 H         1 UNK         0.0600 
    194 H194       -0.2515  -28.5779  -43.7606 H         1 UNK         0.0600 
    195 H195       -0.5652  -26.2894  -46.9433 H         1 UNK         0.3000 
    196 H196       -3.3604  -26.8688  -46.9700 H         1 UNK         0.0600 
    197 H197       -1.8341  -27.2615  -48.8966 H         1 UNK         0.0600 
    198 H198       -1.5632  -25.5279  -49.0659 H         1 UNK         0.0600 
    199 H199       -3.1568  -26.2109  -49.3732 H         1 UNK         0.0600 
    200 H200       -1.7758  -23.9546  -46.1036 H         1 UNK         0.3000 
    201 H201       -2.4025  -21.8646  -45.6480 H         1 UNK         0.0600 
    202 H202       -4.6519  -21.5134  -44.7132 H         1 UNK         0.0600 
    203 H203       -4.0145  -23.0551  -44.1646 H         1 UNK         0.0600 
    204 H204       -5.2340  -23.0061  -45.4363 H         1 UNK         0.0600 
    205 H205       -1.9408  -22.1884  -48.2733 H         1 UNK         0.3000 
    206 H206       -2.1588  -21.3796  -50.3349 H         1 UNK         0.0600 
    207 H207       -1.9824  -19.1786  -49.1788 H         1 UNK         0.0600 
    208 H208       -3.7402  -19.0898  -49.0546 H         1 UNK         0.0600 
    209 H209       -2.9471  -19.0707  -50.6285 H         1 UNK         0.0600 
    210 H210       -3.7203  -23.4252  -49.8929 H         1 UNK         0.3000 
    211 H211       -5.3022  -24.7291  -50.6795 H         1 UNK         0.0600 
    212 H212       -4.7766  -23.7781  -52.9216 H         1 UNK         0.0600 
    213 H213       -6.4713  -24.2208  -52.7850 H         1 UNK         0.0600 
    214 H214       -6.0022  -22.5331  -52.6916 H         1 UNK         0.0600 
    215 H215       -5.9121  -23.9402  -48.3827 H         1 UNK         0.3000 
    216 H216       -7.4488  -23.6829  -46.8306 H         1 UNK         0.0600 
    217 H217       -9.7229  -24.5449  -47.2687 H         1 UNK         0.0600 
    218 H218       -9.4788  -24.4201  -49.0053 H         1 UNK         0.0600 
    219 H219       -8.5306  -25.5649  -48.0570 H         1 UNK         0.0600 
    220 H220       -6.5638  -21.3350  -47.6035 H         1 UNK         0.3000 
    221 H221       -6.8028  -19.2037  -47.4296 H         1 UNK         0.0600 
    222 H222       -9.6415  -19.6128  -46.3680 H         1 UNK         0.0600 
    223 H223       -8.1709  -19.7191  -45.3993 H         1 UNK         0.0600 
    224 H224       -8.6270  -18.1961  -46.1419 H         1 UNK         0.0600 
    225 H225       -7.6249  -20.5530  -49.9676 H         1 UNK         0.3000 
    226 H226       -9.4426  -18.6990  -51.2848 H         1 UNK         0.0600 
    227 H227       -9.2115  -21.0546  -52.0419 H         1 UNK         0.0600 
    228 H228       -8.7558  -19.9473  -53.3264 H         1 UNK         0.0600 
    229 H229       -7.5079  -20.7843  -52.4135 H         1 UNK         0.0600 
    230 H230       -6.1396  -18.6256  -50.4124 H         1 UNK         0.3000 
    231 H231       -4.4564  -17.1876  -50.6403 H         1 UNK         0.0600 
    232 H232       -4.7909  -14.8744  -51.4202 H         1 UNK         0.0600 
    233 H233       -6.1233  -15.3402  -50.3740 H         1 UNK         0.0600 
    234 H234       -6.3402  -15.2812  -52.1210 H         1 UNK         0.0600 
    235 H235       -4.7577  -19.3479  -52.3557 H         1 UNK         0.3000 
    236 H236       -4.2936  -18.6803  -55.1075 H         1 UNK         0.0600 
    237 H237       -5.5340  -20.6996  -54.3300 H         1 UNK         0.0600 
    238 H238       -4.1914  -21.1305  -55.3742 H         1 UNK         0.0600 
    239 H239       -4.0468  -21.3456  -53.6334 H         1 UNK         0.0600 
    240 H240       -2.3192  -17.3189  -53.7574 H         1 UNK         0.3000 
    241 H241        0.2603  -18.6710  -54.2167 H         1 UNK         0.0600 
    242 H242        1.0865  -17.4187  -57.4400 H         1 UNK         0.3800 
    243 H243        1.6830  -18.2219  -56.0174 H         1 UNK         0.3800 
    244 H244        1.1437  -16.2310  -53.8365 H         1 UNK         0.0800 
    245 H245       -0.4835  -15.8345  -53.3681 H         1 UNK         0.0800 
    246 H246        2.8771  -17.1561  -52.4603 H         1 UNK         0.0800 
    247 H247        2.2165  -18.7505  -52.7398 H         1 UNK         0.0800 
@<TRIPOS>BOND
     1    1    2 1    
     2    1  127 1    
     3    1  128 1    
     4    1  129 1    
     5    2    3 2    
     6    2    4 am   BACKBONE|DICT|INTERRES
     7    4    5 1    
     8    4  130 1    
     9    5    6 1    
    10    5   65 1    
    11    5  131 1    
    12    6    7 1    
    13    6  132 1    
    14    6  133 1    
    15    7    8 1    
    16    8    9 1    
    17    8  134 1    
    18    8  135 1    
    19    9   10 ar   
    20    9   14 ar   
    21   10   11 ar   
    22   10  136 1    
    23   11   12 ar   
    24   11  126 1    
    25   12   13 ar   
    26   12  137 1    
    27   13   14 ar   
    28   13   15 1    
    29   14  138 1    
    30   15   16 1    
    31   15  139 1    
    32   15  140 1    
    33   16   17 1    
    34   17   18 1    
    35   17  141 1    
    36   17  142 1    
    37   18   19 1    
    38   18   67 1    
    39   18  143 1    
    40   19   20 am   BACKBONE|DICT|INTERRES
    41   19  144 1    
    42   20   21 2    
    43   20   22 1    
    44   22   23 1    
    45   22   24 1    
    46   22  145 1    
    47   23  146 1    
    48   23  147 1    
    49   23  148 1    
    50   24   25 am   BACKBONE|DICT|INTERRES
    51   24  149 1    
    52   25   26 2    
    53   25   27 1    
    54   27   28 1    
    55   27   29 1    
    56   27  150 1    
    57   28  151 1    
    58   28  152 1    
    59   28  153 1    
    60   29   30 am   BACKBONE|DICT|INTERRES
    61   29  154 1    
    62   30   31 2    
    63   30   32 1    
    64   32   33 1    
    65   32   34 1    
    66   32  155 1    
    67   33  156 1    
    68   33  157 1    
    69   33  158 1    
    70   34   35 am   BACKBONE|DICT|INTERRES
    71   34  159 1    
    72   35   36 2    
    73   35   37 1    
    74   37   38 1    
    75   37   39 1    
    76   37  160 1    
    77   38  161 1    
    78   38  162 1    
    79   38  163 1    
    80   39   40 am   BACKBONE|DICT|INTERRES
    81   39  164 1    
    82   40   41 2    
    83   40   42 1    
    84   42   43 1    
    85   42   44 1    
    86   42  165 1    
    87   43  166 1    
    88   43  167 1    
    89   43  168 1    
    90   44   45 am   BACKBONE|DICT|INTERRES
    91   44  169 1    
    92   45   46 2    
    93   45   47 1    
    94   47   48 1    
    95   47   49 1    
    96   47  170 1    
    97   48  171 1    
    98   48  172 1    
    99   48  173 1    
   100   49   50 am   BACKBONE|DICT|INTERRES
   101   49  174 1    
   102   50   51 2    
   103   50   52 1    
   104   52   53 1    
   105   52   54 1    
   106   52  175 1    
   107   53  176 1    
   108   53  177 1    
   109   53  178 1    
   110   54   55 am   BACKBONE|DICT|INTERRES
   111   54  179 1    
   112   55   56 2    
   113   55   57 1    
   114   57   58 1    
   115   57   59 1    
   116   57  180 1    
   117   58  181 1    
   118   58  182 1    
   119   58  183 1    
   120   59   60 am   BACKBONE|DICT|INTERRES
   121   59  184 1    
   122   60   61 2    
   123   60   62 1    
   124   62   63 1    
   125   62   64 1    
   126   62  185 1    
   127   63  186 1    
   128   63  187 1    
   129   63  188 1    
   130   64   65 am   BACKBONE|DICT|INTERRES
   131   64  189 1    
   132   65   66 2    
   133   67   68 2    
   134   67   69 am   BACKBONE|DICT|INTERRES
   135   69   70 1    
   136   69  190 1    
   137   70   71 1    
   138   70   72 1    
   139   70  191 1    
   140   71  192 1    
   141   71  193 1    
   142   71  194 1    
   143   72   73 2    
   144   72   74 am   BACKBONE|DICT|INTERRES
   145   74   75 1    
   146   74  195 1    
   147   75   76 1    
   148   75   77 1    
   149   75  196 1    
   150   76  197 1    
   151   76  198 1    
   152   76  199 1    
   153   77   78 2    
   154   77   79 am   BACKBONE|DICT|INTERRES
   155   79   80 1    
   156   79  200 1    
   157   80   81 1    
   158   80   82 1    
   159   80  201 1    
   160   81  202 1    
   161   81  203 1    
   162   81  204 1    
   163   82   83 2    
   164   82   84 am   BACKBONE|DICT|INTERRES
   165   84   85 1    
   166   84  205 1    
   167   85   86 1    
   168   85   87 1    
   169   85  206 1    
   170   86  207 1    
   171   86  208 1    
   172   86  209 1    
   173   87   88 2    
   174   87   89 am   BACKBONE|DICT|INTERRES
   175   89   90 1    
   176   89  210 1    
   177   90   91 1    
   178   90   92 1    
   179   90  211 1    
   180   91  212 1    
   181   91  213 1    
   182   91  214 1    
   183   92   93 2    
   184   92   94 am   BACKBONE|DICT|INTERRES
   185   94   95 1    
   186   94  215 1    
   187   95   96 1    
   188   95   97 1    
   189   95  216 1    
   190   96  217 1    
   191   96  218 1    
   192   96  219 1    
   193   97   98 2    
   194   97   99 am   BACKBONE|DICT|INTERRES
   195   99  100 1    
   196   99  220 1    
   197  100  101 1    
   198  100  102 1    
   199  100  221 1    
   200  101  222 1    
   201  101  223 1    
   202  101  224 1    
   203  102  103 2    
   204  102  104 am   BACKBONE|DICT|INTERRES
   205  104  105 1    
   206  104  225 1    
   207  105  106 1    
   208  105  107 1    
   209  105  226 1    
   210  106  227 1    
   211  106  228 1    
   212  106  229 1    
   213  107  108 2    
   214  107  109 am   BACKBONE|DICT|INTERRES
   215  109  110 1    
   216  109  230 1    
   217  110  111 1    
   218  110  112 1    
   219  110  231 1    
   220  111  232 1    
   221  111  233 1    
   222  111  234 1    
   223  112  113 2    
   224  112  114 am   BACKBONE|DICT|INTERRES
   225  114  115 1    
   226  114  235 1    
   227  115  116 1    
   228  115  117 1    
   229  115  236 1    
   230  116  237 1    
   231  116  238 1    
   232  116  239 1    
   233  117  118 2    
   234  117  119 am   BACKBONE|DICT|INTERRES
   235  119  120 1    
   236  119  240 1    
   237  120  121 1    
   238  120  124 1    
   239  120  241 1    
   240  121  122 am   BACKBONE|DICT|INTERRES
   241  121  123 2    
   242  122  242 1    
   243  122  243 1    
   244  124  125 1    
   245  124  244 1    
   246  124  245 1    
   247  125  126 1    
   248  126  246 1    
   249  126  247 1    
@<TRIPOS>SUBSTRUCTURE
     1 UNK         1 GROUP             0       ****    0 ROOT    
