@<TRIPOS>MOLECULE
3R540
247   249    1
SMALL
USER_CHARGES


@<TRIPOS>ATOM
      1 CA          5.7776  -10.0382  -51.9303 C.3       0 UNK        -0.1800 
      2 C           5.0134  -10.4553  -50.6817 C.2       0 UNK         0.5000 
      3 O           4.6374   -9.6007  -49.8784 O.2       0 UNK        -0.5000 
      4 N           4.7838  -11.7634  -50.5128 N.am      1 UNK        -0.5000 
      5 CA          4.0247  -12.3491  -49.4063 C.3       1 UNK         0.1400 
      6 C6          4.4440  -13.8198  -49.1524 C.3       23 UNK        -0.0398 
      7 S7          3.9194  -14.4126  -47.5090 S.3       23 UNK        -0.2404 
      8 C8          4.2571  -16.1997  -47.6651 C.3       23 UNK        -0.0205 
      9 C9          3.2826  -17.0029  -48.5299 C.ar      23 UNK        -0.0193 
     10 C10         2.0211  -16.5221  -48.9074 C.ar      23 UNK        -0.1150 
     11 C11         1.1306  -17.3292  -49.6210 C.ar      23 UNK        -0.0193 
     12 C12         1.5189  -18.6168  -49.9971 C.ar      23 UNK        -0.1150 
     13 C13         2.7741  -19.1118  -49.6320 C.ar      23 UNK        -0.0193 
     14 C14         3.6467  -18.3011  -48.9010 C.ar      23 UNK        -0.1150 
     15 C15         3.1809  -20.5303  -50.0052 C.3       23 UNK        -0.0205 
     16 S16         2.8985  -21.7032  -48.6386 S.3       23 UNK        -0.2404 
     17 C17         1.0818  -21.6531  -48.5160 C.3       23 UNK        -0.0398 
     18 CA          0.4973  -22.7986  -47.6565 C.3       11 UNK         0.1400 
     19 N           0.7810  -22.6497  -46.2244 N.am      11 UNK        -0.5000 
     20 C           0.4529  -23.5487  -45.2831 C.2       10 UNK         0.5000 
     21 O          -0.0728  -24.6358  -45.5275 O.2       10 UNK        -0.5000 
     22 CA          0.6990  -23.1488  -43.8162 C.3       10 UNK         0.1400 
     23 CB          2.1819  -23.2903  -43.4420 C.3       10 UNK        -0.1800 
     24 N           0.2346  -21.7936  -43.5156 N.am      10 UNK        -0.5000 
     25 C          -1.0457  -21.3987  -43.5825 C.2       9 UNK         0.5000 
     26 O          -1.9799  -22.1499  -43.8594 O.2       9 UNK        -0.5000 
     27 CA         -1.3276  -19.9018  -43.3576 C.3       9 UNK         0.1400 
     28 CB         -1.3582  -19.5602  -41.8607 C.3       9 UNK        -0.1800 
     29 N          -0.3600  -19.0440  -44.0387 N.am      9 UNK        -0.5000 
     30 C          -0.1760  -19.0111  -45.3658 C.2       8 UNK         0.5000 
     31 O          -0.8445  -19.6557  -46.1720 O.2       8 UNK        -0.5000 
     32 CA          0.9849  -18.1458  -45.8723 C.3       8 UNK         0.1400 
     33 CB          0.5628  -16.6713  -45.9221 C.3       8 UNK        -0.1800 
     34 N           2.1872  -18.3062  -45.0546 N.am      8 UNK        -0.5000 
     35 C           2.8869  -19.4473  -44.9668 C.2       7 UNK         0.5000 
     36 O           2.5998  -20.4722  -45.5809 O.2       7 UNK        -0.5000 
     37 CA          4.0704  -19.4652  -43.9832 C.3       7 UNK         0.1400 
     38 CB          5.3273  -18.8665  -44.6318 C.3       7 UNK        -0.1800 
     39 N           3.7732  -18.7479  -42.7440 N.am      7 UNK        -0.5000 
     40 C           2.8452  -19.1232  -41.8512 C.2       6 UNK         0.5000 
     41 O           2.1973  -20.1665  -41.9350 O.2       6 UNK        -0.5000 
     42 CA          2.5505  -18.1259  -40.7130 C.3       6 UNK         0.1400 
     43 CB          3.5068  -18.3506  -39.5326 C.3       6 UNK        -0.1800 
     44 N           2.6370  -16.7291  -41.1557 N.am      6 UNK        -0.5000 
     45 C           1.8308  -16.1850  -42.0774 C.2       5 UNK         0.5000 
     46 O           0.8978  -16.7971  -42.6015 O.2       5 UNK        -0.5000 
     47 CA          2.1910  -14.7619  -42.5475 C.3       5 UNK         0.1400 
     48 CB          3.3452  -14.8181  -43.5627 C.3       5 UNK        -0.1800 
     49 N           1.0705  -14.0568  -43.1700 N.am      5 UNK        -0.5000 
     50 C          -0.0511  -13.6712  -42.5535 C.2       4 UNK         0.5000 
     51 O          -0.2648  -13.8642  -41.3554 O.2       4 UNK        -0.5000 
     52 CA         -1.1173  -12.9286  -43.3887 C.3       4 UNK         0.1400 
     53 CB         -0.9598  -11.4035  -43.2355 C.3       4 UNK        -0.1800 
     54 N          -1.2268  -13.2987  -44.8103 N.am      4 UNK        -0.5000 
     55 C          -0.3527  -13.1149  -45.8113 C.2       3 UNK         0.5000 
     56 O           0.7998  -12.7105  -45.6454 O.2       3 UNK        -0.5000 
     57 CA         -0.8340  -13.4768  -47.2373 C.3       3 UNK         0.1400 
     58 CB         -2.3702  -13.5209  -47.3945 C.3       3 UNK        -0.1800 
     59 N          -0.2348  -12.6241  -48.2648 N.am      3 UNK        -0.5000 
     60 C          -0.3140  -11.2917  -48.3779 C.2       2 UNK         0.5000 
     61 O          -1.0040  -10.5787  -47.6463 O.2       2 UNK        -0.5000 
     62 CA          0.5498  -10.6595  -49.4933 C.3       2 UNK         0.1400 
     63 CB          0.4279   -9.1258  -49.5464 C.3       2 UNK        -0.1800 
     64 N           1.9667  -11.0104  -49.3589 N.am      2 UNK        -0.5000 
     65 C           2.5134  -12.1907  -49.6749 C.2       1 UNK         0.5000 
     66 O           1.8715  -13.1156  -50.1741 O.2       1 UNK        -0.5000 
     67 C          -1.0133  -22.9322  -47.9243 C.2       11 UNK         0.5000 
     68 O          -1.4159  -23.8537  -48.6317 O.2       11 UNK        -0.5000 
     69 N          -1.8221  -22.0376  -47.3388 N.am      12 UNK        -0.5000 
     70 CA         -3.2781  -22.0351  -47.4690 C.3       12 UNK         0.1400 
     71 CB         -3.8632  -20.7768  -46.8130 C.3       12 UNK        -0.1800 
     72 C          -3.9347  -23.3051  -46.9052 C.2       12 UNK         0.5000 
     73 O          -4.8373  -23.8420  -47.5450 O.2       12 UNK        -0.5000 
     74 N          -3.4508  -23.7855  -45.7514 N.am      13 UNK        -0.5000 
     75 CA         -3.8847  -25.0373  -45.1316 C.3       13 UNK         0.1400 
     76 CB         -3.2632  -25.1706  -43.7332 C.3       13 UNK        -0.1800 
     77 C          -3.5584  -26.2665  -45.9980 C.2       13 UNK         0.5000 
     78 O          -4.4343  -27.1061  -46.2085 O.2       13 UNK        -0.5000 
     79 N          -2.3245  -26.3292  -46.5198 N.am      14 UNK        -0.5000 
     80 CA         -1.8566  -27.3868  -47.4200 C.3       14 UNK         0.1400 
     81 CB         -0.3434  -27.2374  -47.6382 C.3       14 UNK        -0.1800 
     82 C          -2.6019  -27.4037  -48.7687 C.2       14 UNK         0.5000 
     83 O          -2.9023  -28.4789  -49.2881 O.2       14 UNK        -0.5000 
     84 N          -2.9098  -26.2114  -49.2927 N.am      15 UNK        -0.5000 
     85 CA         -3.6491  -25.9944  -50.5359 C.3       15 UNK         0.1400 
     86 CB         -3.2633  -24.6161  -51.0875 C.3       15 UNK        -0.1800 
     87 C          -5.1808  -26.1024  -50.3812 C.2       15 UNK         0.5000 
     88 O          -5.8906  -25.9498  -51.3772 O.2       15 UNK        -0.5000 
     89 N          -5.6643  -26.3321  -49.1501 N.am      16 UNK        -0.5000 
     90 CA         -7.0708  -26.4457  -48.7479 C.3       16 UNK         0.1400 
     91 CB         -7.6921  -27.7365  -49.3202 C.3       16 UNK        -0.1800 
     92 C          -7.8980  -25.1828  -49.0737 C.2       16 UNK         0.5000 
     93 O          -9.0504  -25.2879  -49.4984 O.2       16 UNK        -0.5000 
     94 N          -7.2747  -24.0097  -48.8916 N.am      17 UNK        -0.5000 
     95 CA         -7.7492  -22.6398  -49.1264 C.3       17 UNK         0.1400 
     96 CB         -8.9574  -22.3095  -48.2314 C.3       17 UNK        -0.1800 
     97 C          -8.0402  -22.2834  -50.5990 C.2       17 UNK         0.5000 
     98 O          -7.7076  -21.1780  -51.0264 O.2       17 UNK        -0.5000 
     99 N          -8.6432  -23.2096  -51.3522 N.am      18 UNK        -0.5000 
    100 CA        -9.0992  -23.0378  -52.7327 C.3       18 UNK         0.1400 
    101 CB        -9.8745  -24.2949  -53.1555 C.3       18 UNK        -0.1800 
    102 C         -7.9779  -22.7352  -53.7444 C.2       18 UNK         0.5000 
    103 O         -8.2314  -22.0447  -54.7323 O.2       18 UNK        -0.5000 
    104 N         -6.7691  -23.2467  -53.4812 N.am      19 UNK        -0.5000 
    105 CA        -5.5879  -23.0875  -54.3307 C.3       19 UNK         0.1400 
    106 CB        -5.1263  -24.4806  -54.7978 C.3       19 UNK        -0.1800 
    107 C         -4.4693  -22.2978  -53.6212 C.2       19 UNK         0.5000 
    108 O         -3.3024  -22.4421  -53.9870 O.2       19 UNK        -0.5000 
    109 N         -4.8250  -21.4815  -52.6150 N.am      20 UNK        -0.5000 
    110 CA        -3.8863  -20.6934  -51.8031 C.3       20 UNK         0.1400 
    111 CB        -4.6290  -20.1150  -50.5896 C.3       20 UNK        -0.1800 
    112 C         -3.1569  -19.5687  -52.5692 C.2       20 UNK         0.5000 
    113 O         -2.1441  -19.0715  -52.0780 O.2       20 UNK        -0.5000 
    114 N         -3.6838  -19.1837  -53.7412 N.am      21 UNK        -0.5000 
    115 CA        -3.1491  -18.2463  -54.7404 C.3       21 UNK         0.1400 
    116 CB        -1.7598  -18.6910  -55.2369 C.3       21 UNK        -0.1800 
    117 C         -3.1371  -16.7613  -54.3259 C.2       21 UNK         0.5000 
    118 O         -3.3938  -15.9070  -55.1755 O.2       21 UNK        -0.5000 
    119 N         -2.8581  -16.4690  -53.0511 N.am      22 UNK        -0.5000 
    120 CA        -2.8162  -15.1060  -52.4910 C.3       22 UNK         0.1400 
    121 C         -4.2081  -14.4269  -52.3162 C.2       22 UNK         0.5000 
    122 N         -5.3210  -15.1410  -52.4349 N.am      22 UNK        -0.7600 
    123 O         -4.2786  -13.2255  -52.0725 O.2       22 UNK        -0.5000 
    124 C124       -2.0179  -15.0395  -51.1650 C.3       23 UNK        -0.0398 
    125 S125       -0.3083  -15.6634  -51.3094 S.3       23 UNK        -0.2404 
    126 C126       -0.2744  -16.8322  -49.9197 C.3       23 UNK        -0.0205 
    127 H127        6.6928   -9.5150  -51.6525 H         1 UNK         0.0600 
    128 H128        5.1690   -9.3655  -52.5348 H         1 UNK         0.0600 
    129 H129        6.0498  -10.8964  -52.5454 H         1 UNK         0.0600 
    130 H130        5.0916  -12.4124  -51.2233 H         1 UNK         0.3000 
    131 H131        4.2623  -11.7850  -48.5011 H         1 UNK         0.0600 
    132 H132        5.5311  -13.9041  -49.1875 H         1 UNK         0.0800 
    133 H133        4.0662  -14.4864  -49.9298 H         1 UNK         0.0800 
    134 H134        5.2743  -16.3317  -48.0370 H         1 UNK         0.0800 
    135 H135        4.2377  -16.6272  -46.6631 H         1 UNK         0.0800 
    136 H136        1.7027  -15.5312  -48.6198 H         1 UNK         0.1150 
    137 H137        0.8313  -19.2436  -50.5478 H         1 UNK         0.1150 
    138 H138        4.6078  -18.6943  -48.6003 H         1 UNK         0.1150 
    139 H139        2.6401  -20.8638  -50.8922 H         1 UNK         0.0800 
    140 H140        4.2388  -20.5478  -50.2711 H         1 UNK         0.0800 
    141 H141        0.6884  -21.6986  -49.5337 H         1 UNK         0.0800 
    142 H142        0.7834  -20.6844  -48.1132 H         1 UNK         0.0800 
    143 H143        0.9583  -23.7343  -47.9800 H         1 UNK         0.0600 
    144 H144        1.2662  -21.7998  -45.9476 H         1 UNK         0.3000 
    145 H145        0.1292  -23.8369  -43.1882 H         1 UNK         0.0600 
    146 H146        2.5317  -24.3083  -43.6174 H         1 UNK         0.0600 
    147 H147        2.8140  -22.6222  -44.0261 H         1 UNK         0.0600 
    148 H148        2.3450  -23.0667  -42.3875 H         1 UNK         0.0600 
    149 H149        0.9401  -21.1194  -43.2381 H         1 UNK         0.3000 
    150 H150       -2.3126  -19.6832  -43.7749 H         1 UNK         0.0600 
    151 H151       -1.6008  -18.5093  -41.7012 H         1 UNK         0.0600 
    152 H152       -0.4002  -19.7577  -41.3803 H         1 UNK         0.0600 
    153 H153       -2.1131  -20.1523  -41.3421 H         1 UNK         0.0600 
    154 H154        0.2051  -18.4323  -43.4572 H         1 UNK         0.3000 
    155 H155        1.2272  -18.4714  -46.8852 H         1 UNK         0.0600 
    156 H156       -0.2459  -16.5491  -46.6408 H         1 UNK         0.0600 
    157 H157        1.3846  -16.0242  -46.2256 H         1 UNK         0.0600 
    158 H158        0.1915  -16.3098  -44.9650 H         1 UNK         0.0600 
    159 H159        2.4401  -17.5317  -44.4620 H         1 UNK         0.3000 
    160 H160        4.2783  -20.5076  -43.7326 H         1 UNK         0.0600 
    161 H161        5.5467  -19.3532  -45.5834 H         1 UNK         0.0600 
    162 H162        6.1996  -18.9985  -43.9915 H         1 UNK         0.0600 
    163 H163        5.2142  -17.7997  -44.8252 H         1 UNK         0.0600 
    164 H164        4.2680  -17.8830  -42.5873 H         1 UNK         0.3000 
    165 H165        1.5308  -18.3089  -40.3676 H         1 UNK         0.0600 
    166 H166        3.2575  -17.7002  -38.6940 H         1 UNK         0.0600 
    167 H167        3.4474  -19.3790  -39.1735 H         1 UNK         0.0600 
    168 H168        4.5441  -18.1592  -39.8102 H         1 UNK         0.0600 
    169 H169        3.3854  -16.1755  -40.7638 H         1 UNK         0.3000 
    170 H170        2.5118  -14.1840  -41.6785 H         1 UNK         0.0600 
    171 H171        3.6466  -13.8165  -43.8705 H         1 UNK         0.0600 
    172 H172        4.2260  -15.3024  -43.1398 H         1 UNK         0.0600 
    173 H173        3.0659  -15.3679  -44.4619 H         1 UNK         0.0600 
    174 H174        1.1720  -13.7957  -44.1460 H         1 UNK         0.3000 
    175 H175       -2.0793  -13.1979  -42.9498 H         1 UNK         0.0600 
    176 H176       -0.0127  -11.0499  -43.6443 H         1 UNK         0.0600 
    177 H177       -1.7637  -10.8707  -43.7436 H         1 UNK         0.0600 
    178 H178       -0.9897  -11.1113  -42.1851 H         1 UNK         0.0600 
    179 H179       -2.1262  -13.6827  -45.0642 H         1 UNK         0.3000 
    180 H180       -0.4521  -14.4735  -47.4450 H         1 UNK         0.0600 
    181 H181       -2.6531  -13.7268  -48.4264 H         1 UNK         0.0600 
    182 H182       -2.8349  -12.5765  -47.1087 H         1 UNK         0.0600 
    183 H183       -2.8115  -14.3098  -46.7847 H         1 UNK         0.0600 
    184 H184        0.4015  -13.0887  -48.9067 H         1 UNK         0.3000 
    185 H185        0.1820  -11.0522  -50.4437 H         1 UNK         0.0600 
    186 H186        0.7818   -8.6618  -48.6249 H         1 UNK         0.0600 
    187 H187        1.0068   -8.7131  -50.3730 H         1 UNK         0.0600 
    188 H188       -0.6086   -8.8197  -49.6935 H         1 UNK         0.0600 
    189 H189        2.5744  -10.2894  -48.9922 H         1 UNK         0.3000 
    190 H190       -1.4151  -21.2817  -46.7908 H         1 UNK         0.3000 
    191 H191       -3.5066  -21.9983  -48.5353 H         1 UNK         0.0600 
    192 H192       -3.6343  -20.7362  -45.7476 H         1 UNK         0.0600 
    193 H193       -4.9483  -20.7482  -46.9199 H         1 UNK         0.0600 
    194 H194       -3.4669  -19.8722  -47.2746 H         1 UNK         0.0600 
    195 H195       -2.7397  -23.2548  -45.2554 H         1 UNK         0.3000 
    196 H196       -4.9696  -24.9922  -45.0157 H         1 UNK         0.0600 
    197 H197       -3.5736  -26.0996  -43.2535 H         1 UNK         0.0600 
    198 H198       -3.5742  -24.3508  -43.0856 H         1 UNK         0.0600 
    199 H199       -2.1735  -25.1684  -43.7734 H         1 UNK         0.0600 
    200 H200       -1.6523  -25.6052  -46.2820 H         1 UNK         0.3000 
    201 H201       -2.0365  -28.3460  -46.9303 H         1 UNK         0.0600 
    202 H202        0.1989  -27.3065  -46.6950 H         1 UNK         0.0600 
    203 H203       -0.0956  -26.2788  -48.0954 H         1 UNK         0.0600 
    204 H204        0.0378  -28.0230  -48.2918 H         1 UNK         0.0600 
    205 H205       -2.5587  -25.3752  -48.8322 H         1 UNK         0.3000 
    206 H206       -3.3418  -26.7488  -51.2628 H         1 UNK         0.0600 
    207 H207       -3.6964  -24.4682  -52.0725 H         1 UNK         0.0600 
    208 H208       -3.6141  -23.8091  -50.4429 H         1 UNK         0.0600 
    209 H209       -2.1833  -24.5173  -51.1971 H         1 UNK         0.0600 
    210 H210       -4.9944  -26.3997  -48.3948 H         1 UNK         0.3000 
    211 H211       -7.0686  -26.5335  -47.6606 H         1 UNK         0.0600 
    212 H212       -7.7730  -27.6996  -50.4071 H         1 UNK         0.0600 
    213 H213       -8.6947  -27.8982  -48.9227 H         1 UNK         0.0600 
    214 H214       -7.0955  -28.6101  -49.0576 H         1 UNK         0.0600 
    215 H215       -6.3268  -24.0571  -48.5180 H         1 UNK         0.3000 
    216 H216       -6.9283  -21.9951  -48.8096 H         1 UNK         0.0600 
    217 H217       -9.2412  -21.2613  -48.3331 H         1 UNK         0.0600 
    218 H218       -8.7272  -22.4832  -47.1802 H         1 UNK         0.0600 
    219 H219       -9.8313  -22.9091  -48.4875 H         1 UNK         0.0600 
    220 H220       -8.8830  -24.0858  -50.8945 H         1 UNK         0.3000 
    221 H221       -9.7875  -22.1904  -52.7471 H         1 UNK         0.0600 
    222 H222       -9.2437  -25.1844  -53.1215 H         1 UNK         0.0600 
    223 H223      -10.7317  -24.4674  -52.5042 H         1 UNK         0.0600 
    224 H224      -10.2544  -24.1985  -54.1735 H         1 UNK         0.0600 
    225 H225       -6.6538  -23.8104  -52.6486 H         1 UNK         0.3000 
    226 H226       -5.8329  -22.5101  -55.2241 H         1 UNK         0.0600 
    227 H227       -5.9113  -24.9789  -55.3669 H         1 UNK         0.0600 
    228 H228       -4.2529  -24.4154  -55.4476 H         1 UNK         0.0600 
    229 H229       -4.8685  -25.1262  -53.9587 H         1 UNK         0.0600 
    230 H230       -5.8051  -21.4084  -52.3715 H         1 UNK         0.3000 
    231 H231       -3.1171  -21.3745  -51.4327 H         1 UNK         0.0600 
    232 H232       -5.4222  -19.4306  -50.8930 H         1 UNK         0.0600 
    233 H233       -5.0803  -20.9052  -49.9913 H         1 UNK         0.0600 
    234 H234       -3.9495  -19.5639  -49.9380 H         1 UNK         0.0600 
    235 H235       -4.5463  -19.6353  -54.0092 H         1 UNK         0.3000 
    236 H236       -3.8300  -18.3182  -55.5899 H         1 UNK         0.0600 
    237 H237       -1.0038  -18.6162  -54.4546 H         1 UNK         0.0600 
    238 H238       -1.7784  -19.7227  -55.5886 H         1 UNK         0.0600 
    239 H239       -1.4272  -18.0690  -56.0688 H         1 UNK         0.0600 
    240 H240       -2.5979  -17.2338  -52.4362 H         1 UNK         0.3000 
    241 H241       -2.2808  -14.4855  -53.2123 H         1 UNK         0.0600 
    242 H242       -6.2151  -14.6889  -52.3245 H         1 UNK         0.3800 
    243 H243       -5.2779  -16.1257  -52.6410 H         1 UNK         0.3800 
    244 H244       -1.9502  -14.0082  -50.8138 H         1 UNK         0.0800 
    245 H245       -2.5489  -15.5899  -50.3865 H         1 UNK         0.0800 
    246 H246       -0.9390  -17.6696  -50.1361 H         1 UNK         0.0800 
    247 H247       -0.6758  -16.3469  -49.0301 H         1 UNK         0.0800 
@<TRIPOS>BOND
     1    1    2 1    
     2    1  127 1    
     3    1  128 1    
     4    1  129 1    
     5    2    3 2    
     6    2    4 am   BACKBONE|DICT|INTERRES
     7    4    5 1    
     8    4  130 1    
     9    5    6 1    
    10    5   65 1    
    11    5  131 1    
    12    6    7 1    
    13    6  132 1    
    14    6  133 1    
    15    7    8 1    
    16    8    9 1    
    17    8  134 1    
    18    8  135 1    
    19    9   10 ar   
    20    9   14 ar   
    21   10   11 ar   
    22   10  136 1    
    23   11   12 ar   
    24   11  126 1    
    25   12   13 ar   
    26   12  137 1    
    27   13   14 ar   
    28   13   15 1    
    29   14  138 1    
    30   15   16 1    
    31   15  139 1    
    32   15  140 1    
    33   16   17 1    
    34   17   18 1    
    35   17  141 1    
    36   17  142 1    
    37   18   19 1    
    38   18   67 1    
    39   18  143 1    
    40   19   20 am   BACKBONE|DICT|INTERRES
    41   19  144 1    
    42   20   21 2    
    43   20   22 1    
    44   22   23 1    
    45   22   24 1    
    46   22  145 1    
    47   23  146 1    
    48   23  147 1    
    49   23  148 1    
    50   24   25 am   BACKBONE|DICT|INTERRES
    51   24  149 1    
    52   25   26 2    
    53   25   27 1    
    54   27   28 1    
    55   27   29 1    
    56   27  150 1    
    57   28  151 1    
    58   28  152 1    
    59   28  153 1    
    60   29   30 am   BACKBONE|DICT|INTERRES
    61   29  154 1    
    62   30   31 2    
    63   30   32 1    
    64   32   33 1    
    65   32   34 1    
    66   32  155 1    
    67   33  156 1    
    68   33  157 1    
    69   33  158 1    
    70   34   35 am   BACKBONE|DICT|INTERRES
    71   34  159 1    
    72   35   36 2    
    73   35   37 1    
    74   37   38 1    
    75   37   39 1    
    76   37  160 1    
    77   38  161 1    
    78   38  162 1    
    79   38  163 1    
    80   39   40 am   BACKBONE|DICT|INTERRES
    81   39  164 1    
    82   40   41 2    
    83   40   42 1    
    84   42   43 1    
    85   42   44 1    
    86   42  165 1    
    87   43  166 1    
    88   43  167 1    
    89   43  168 1    
    90   44   45 am   BACKBONE|DICT|INTERRES
    91   44  169 1    
    92   45   46 2    
    93   45   47 1    
    94   47   48 1    
    95   47   49 1    
    96   47  170 1    
    97   48  171 1    
    98   48  172 1    
    99   48  173 1    
   100   49   50 am   BACKBONE|DICT|INTERRES
   101   49  174 1    
   102   50   51 2    
   103   50   52 1    
   104   52   53 1    
   105   52   54 1    
   106   52  175 1    
   107   53  176 1    
   108   53  177 1    
   109   53  178 1    
   110   54   55 am   BACKBONE|DICT|INTERRES
   111   54  179 1    
   112   55   56 2    
   113   55   57 1    
   114   57   58 1    
   115   57   59 1    
   116   57  180 1    
   117   58  181 1    
   118   58  182 1    
   119   58  183 1    
   120   59   60 am   BACKBONE|DICT|INTERRES
   121   59  184 1    
   122   60   61 2    
   123   60   62 1    
   124   62   63 1    
   125   62   64 1    
   126   62  185 1    
   127   63  186 1    
   128   63  187 1    
   129   63  188 1    
   130   64   65 am   BACKBONE|DICT|INTERRES
   131   64  189 1    
   132   65   66 2    
   133   67   68 2    
   134   67   69 am   BACKBONE|DICT|INTERRES
   135   69   70 1    
   136   69  190 1    
   137   70   71 1    
   138   70   72 1    
   139   70  191 1    
   140   71  192 1    
   141   71  193 1    
   142   71  194 1    
   143   72   73 2    
   144   72   74 am   BACKBONE|DICT|INTERRES
   145   74   75 1    
   146   74  195 1    
   147   75   76 1    
   148   75   77 1    
   149   75  196 1    
   150   76  197 1    
   151   76  198 1    
   152   76  199 1    
   153   77   78 2    
   154   77   79 am   BACKBONE|DICT|INTERRES
   155   79   80 1    
   156   79  200 1    
   157   80   81 1    
   158   80   82 1    
   159   80  201 1    
   160   81  202 1    
   161   81  203 1    
   162   81  204 1    
   163   82   83 2    
   164   82   84 am   BACKBONE|DICT|INTERRES
   165   84   85 1    
   166   84  205 1    
   167   85   86 1    
   168   85   87 1    
   169   85  206 1    
   170   86  207 1    
   171   86  208 1    
   172   86  209 1    
   173   87   88 2    
   174   87   89 am   BACKBONE|DICT|INTERRES
   175   89   90 1    
   176   89  210 1    
   177   90   91 1    
   178   90   92 1    
   179   90  211 1    
   180   91  212 1    
   181   91  213 1    
   182   91  214 1    
   183   92   93 2    
   184   92   94 am   BACKBONE|DICT|INTERRES
   185   94   95 1    
   186   94  215 1    
   187   95   96 1    
   188   95   97 1    
   189   95  216 1    
   190   96  217 1    
   191   96  218 1    
   192   96  219 1    
   193   97   98 2    
   194   97   99 am   BACKBONE|DICT|INTERRES
   195   99  100 1    
   196   99  220 1    
   197  100  101 1    
   198  100  102 1    
   199  100  221 1    
   200  101  222 1    
   201  101  223 1    
   202  101  224 1    
   203  102  103 2    
   204  102  104 am   BACKBONE|DICT|INTERRES
   205  104  105 1    
   206  104  225 1    
   207  105  106 1    
   208  105  107 1    
   209  105  226 1    
   210  106  227 1    
   211  106  228 1    
   212  106  229 1    
   213  107  108 2    
   214  107  109 am   BACKBONE|DICT|INTERRES
   215  109  110 1    
   216  109  230 1    
   217  110  111 1    
   218  110  112 1    
   219  110  231 1    
   220  111  232 1    
   221  111  233 1    
   222  111  234 1    
   223  112  113 2    
   224  112  114 am   BACKBONE|DICT|INTERRES
   225  114  115 1    
   226  114  235 1    
   227  115  116 1    
   228  115  117 1    
   229  115  236 1    
   230  116  237 1    
   231  116  238 1    
   232  116  239 1    
   233  117  118 2    
   234  117  119 am   BACKBONE|DICT|INTERRES
   235  119  120 1    
   236  119  240 1    
   237  120  121 1    
   238  120  124 1    
   239  120  241 1    
   240  121  122 am   BACKBONE|DICT|INTERRES
   241  121  123 2    
   242  122  242 1    
   243  122  243 1    
   244  124  125 1    
   245  124  244 1    
   246  124  245 1    
   247  125  126 1    
   248  126  246 1    
   249  126  247 1    
@<TRIPOS>SUBSTRUCTURE
     1 UNK         1 GROUP             0       ****    0 ROOT    
