@<TRIPOS>MOLECULE
3R540
247   249    1
SMALL
USER_CHARGES


@<TRIPOS>ATOM
      1 CA         -3.4814  -11.0886  -47.0232 C.3       0 UNK        -0.1800 
      2 C          -2.7070  -10.8746  -48.3163 C.2       0 UNK         0.5000 
      3 O          -2.3115   -9.7480  -48.6150 O.2       0 UNK        -0.5000 
      4 N          -2.4940  -11.9537  -49.0802 N.am      1 UNK        -0.5000 
      5 CA         -1.7436  -11.9777  -50.3418 C.3       1 UNK         0.1400 
      6 C6         -1.7978  -13.3735  -51.0072 C.3       23 UNK        -0.0398 
      7 S7         -3.4664  -13.9174  -51.5241 S.3       23 UNK        -0.2404 
      8 C8         -3.9820  -15.1293  -50.2456 C.3       23 UNK        -0.0205 
      9 C9         -3.0313  -16.2943  -49.9518 C.ar      23 UNK        -0.0193 
     10 C10        -1.9306  -16.6027  -50.7596 C.ar      23 UNK        -0.1150 
     11 C11        -1.0120  -17.5861  -50.3827 C.ar      23 UNK        -0.0193 
     12 C12        -1.2547  -18.3442  -49.2361 C.ar      23 UNK        -0.1150 
     13 C13        -2.3909  -18.1062  -48.4591 C.ar      23 UNK        -0.0193 
     14 C14        -3.2648  -17.0739  -48.8135 C.ar      23 UNK        -0.1150 
     15 C15        -2.6691  -18.9631  -47.2365 C.3       23 UNK        -0.0205 
     16 S16        -3.7231  -20.3730  -47.6818 S.3       23 UNK        -0.2404 
     17 C17        -3.6155  -21.3994  -46.1816 C.3       23 UNK        -0.0398 
     18 CA         -2.6193  -22.5627  -46.3898 C.3       11 UNK         0.1400 
     19 N          -1.2244  -22.1219  -46.3307 N.am      11 UNK        -0.5000 
     20 C          -0.1851  -22.8346  -46.7832 C.2       10 UNK         0.5000 
     21 O          -0.2914  -23.9420  -47.3061 O.2       10 UNK        -0.5000 
     22 CA          1.2094  -22.2257  -46.5653 C.3       10 UNK         0.1400 
     23 CB          1.4966  -21.1345  -47.6055 C.3       10 UNK        -0.1800 
     24 N           1.3586  -21.6666  -45.2227 N.am      10 UNK        -0.5000 
     25 C           1.3417  -22.3957  -44.0983 C.2       9 UNK         0.5000 
     26 O           1.2410  -23.6224  -44.0776 O.2       9 UNK        -0.5000 
     27 CA          1.3985  -21.6166  -42.7737 C.3       9 UNK         0.1400 
     28 CB          2.8547  -21.3575  -42.3603 C.3       9 UNK        -0.1800 
     29 N           0.6789  -20.3424  -42.8123 N.am      9 UNK        -0.5000 
     30 C          -0.6350  -20.1889  -43.0298 C.2       8 UNK         0.5000 
     31 O          -1.3815  -21.1218  -43.3281 O.2       8 UNK        -0.5000 
     32 CA         -1.2152  -18.7623  -42.9326 C.3       8 UNK         0.1400 
     33 CB         -2.4956  -18.7199  -42.0757 C.3       8 UNK        -0.1800 
     34 N          -0.2530  -17.7393  -42.5007 N.am      8 UNK        -0.5000 
     35 C           0.3449  -17.5952  -41.3077 C.2       7 UNK         0.5000 
     36 O           0.1706  -18.3470  -40.3491 O.2       7 UNK        -0.5000 
     37 CA          1.3349  -16.4224  -41.1801 C.3       7 UNK         0.1400 
     38 CB          2.7572  -16.8920  -41.5239 C.3       7 UNK        -0.1800 
     39 N           0.9773  -15.2996  -42.0485 N.am      7 UNK        -0.5000 
     40 C          -0.0241  -14.4443  -41.7981 C.2       6 UNK         0.5000 
     41 O          -0.6867  -14.4490  -40.7599 O.2       6 UNK        -0.5000 
     42 CA         -0.3655  -13.4388  -42.9127 C.3       6 UNK         0.1400 
     43 CB          0.6331  -12.2720  -42.9252 C.3       6 UNK        -0.1800 
     44 N          -0.4068  -14.0627  -44.2362 N.am      6 UNK        -0.5000 
     45 C          -1.2993  -14.9886  -44.6178 C.2       5 UNK         0.5000 
     46 O          -2.1996  -15.4176  -43.8978 O.2       5 UNK        -0.5000 
     47 CA         -1.1519  -15.5368  -46.0435 C.3       5 UNK         0.1400 
     48 CB         -1.8122  -14.5803  -47.0459 C.3       5 UNK        -0.1800 
     49 N           0.2530  -15.7163  -46.3988 N.am      5 UNK        -0.5000 
     50 C           0.9827  -16.8021  -46.1092 C.2       4 UNK         0.5000 
     51 O           0.5336  -17.8049  -45.5530 O.2       4 UNK        -0.5000 
     52 CA          2.4768  -16.7541  -46.4859 C.3       4 UNK         0.1400 
     53 CB          2.6832  -17.3395  -47.8908 C.3       4 UNK        -0.1800 
     54 N           3.0485  -15.4057  -46.4512 N.am      4 UNK        -0.5000 
     55 C           3.1452  -14.6266  -45.3639 C.2       3 UNK         0.5000 
     56 O           2.8070  -14.9815  -44.2353 O.2       3 UNK        -0.5000 
     57 CA          3.6347  -13.1810  -45.5927 C.3       3 UNK         0.1400 
     58 CB          5.1618  -13.1037  -45.4532 C.3       3 UNK        -0.1800 
     59 N           3.2363  -12.6196  -46.8899 N.am      3 UNK        -0.5000 
     60 C           1.9738  -12.5148  -47.3280 C.2       2 UNK         0.5000 
     61 O           0.9953  -12.8625  -46.6587 O.2       2 UNK        -0.5000 
     62 CA          1.7761  -12.0016  -48.7646 C.3       2 UNK         0.1400 
     63 CB          2.5854  -12.8514  -49.7706 C.3       2 UNK        -0.1800 
     64 N           0.3533  -12.0781  -49.0792 N.am      2 UNK        -0.5000 
     65 C          -0.2609  -11.5832  -50.1599 C.2       1 UNK         0.5000 
     66 O           0.2915  -10.8753  -51.0030 O.2       1 UNK        -0.5000 
     67 C          -2.8917  -23.7216  -45.4164 C.2       11 UNK         0.5000 
     68 O          -3.6417  -24.6286  -45.7740 O.2       11 UNK        -0.5000 
     69 N          -2.2583  -23.7073  -44.2364 N.am      12 UNK        -0.5000 
     70 CA         -2.3140  -24.8002  -43.2649 C.3       12 UNK         0.1400 
     71 CB         -1.6286  -24.3667  -41.9605 C.3       12 UNK        -0.1800 
     72 C          -1.6961  -26.1033  -43.8088 C.2       12 UNK         0.5000 
     73 O          -2.2698  -27.1746  -43.6106 O.2       12 UNK        -0.5000 
     74 N          -0.5597  -25.9839  -44.5093 N.am      13 UNK        -0.5000 
     75 CA          0.1348  -27.0960  -45.1565 C.3       13 UNK         0.1400 
     76 CB          1.5594  -26.6573  -45.5297 C.3       13 UNK        -0.1800 
     77 C          -0.6114  -27.6300  -46.3935 C.2       13 UNK         0.5000 
     78 O          -0.7507  -28.8447  -46.5410 O.2       13 UNK        -0.5000 
     79 N          -1.0688  -26.7189  -47.2628 N.am      14 UNK        -0.5000 
     80 CA         -1.6976  -27.0399  -48.5471 C.3       14 UNK         0.1400 
     81 CB         -1.4996  -25.8500  -49.4980 C.3       14 UNK        -0.1800 
     82 C          -3.1941  -27.3933  -48.4520 C.2       14 UNK         0.5000 
     83 O          -3.7718  -27.7863  -49.4652 O.2       14 UNK        -0.5000 
     84 N          -3.8052  -27.2121  -47.2721 N.am      15 UNK        -0.5000 
     85 CA         -5.2418  -27.3356  -46.9944 C.3       15 UNK         0.1400 
     86 CB         -5.7289  -28.7885  -47.1770 C.3       15 UNK        -0.1800 
     87 C          -6.0579  -26.3041  -47.8023 C.2       15 UNK         0.5000 
     88 O          -6.9796  -26.6604  -48.5372 O.2       15 UNK        -0.5000 
     89 N          -5.6473  -25.0360  -47.6661 N.am      16 UNK        -0.5000 
     90 CA         -6.1742  -23.8113  -48.2817 C.3       16 UNK         0.1400 
     91 CB         -7.6678  -23.6149  -47.9566 C.3       16 UNK        -0.1800 
     92 C          -5.8942  -23.6537  -49.7901 C.2       16 UNK         0.5000 
     93 O          -6.1465  -22.5755  -50.3280 O.2       16 UNK        -0.5000 
     94 N          -5.3421  -24.6819  -50.4510 N.am      17 UNK        -0.5000 
     95 CA         -5.0481  -24.6852  -51.8893 C.3       17 UNK         0.1400 
     96 CB         -4.6732  -26.1080  -52.3279 C.3       17 UNK        -0.1800 
     97 C          -3.9587  -23.6787  -52.3133 C.2       17 UNK         0.5000 
     98 O          -3.9211  -23.2837  -53.4793 O.2       17 UNK        -0.5000 
     99 N          -3.1155  -23.2547  -51.3599 N.am      18 UNK        -0.5000 
    100 CA        -2.0781  -22.2384  -51.5464 C.3       18 UNK         0.1400 
    101 CB        -1.1932  -22.1675  -50.2929 C.3       18 UNK        -0.1800 
    102 C         -2.6308  -20.8411  -51.8814 C.2       18 UNK         0.5000 
    103 O         -1.9177  -20.0597  -52.5065 O.2       18 UNK        -0.5000 
    104 N         -3.8874  -20.5573  -51.5044 N.am      19 UNK        -0.5000 
    105 CA        -4.5530  -19.2669  -51.7083 C.3       19 UNK         0.1400 
    106 CB        -5.8952  -19.2698  -50.9621 C.3       19 UNK        -0.1800 
    107 C         -4.7469  -18.8631  -53.1850 C.2       19 UNK         0.5000 
    108 O         -4.9875  -17.6884  -53.4641 O.2       19 UNK        -0.5000 
    109 N         -4.6350  -19.8318  -54.1034 N.am      20 UNK        -0.5000 
    110 CA        -4.6421  -19.6163  -55.5495 C.3       20 UNK         0.1400 
    111 CB        -5.0463  -20.9331  -56.2315 C.3       20 UNK        -0.1800 
    112 C         -3.2877  -19.1174  -56.1003 C.2       20 UNK         0.5000 
    113 O         -3.2385  -18.6865  -57.2536 O.2       20 UNK        -0.5000 
    114 N         -2.2180  -19.2064  -55.2994 N.am      21 UNK        -0.5000 
    115 CA        -0.8478  -18.8506  -55.6606 C.3       21 UNK         0.1400 
    116 CB         0.0473  -20.0733  -55.3778 C.3       21 UNK        -0.1800 
    117 C         -0.3755  -17.6067  -54.8812 C.2       21 UNK         0.5000 
    118 O         -1.1762  -16.9456  -54.2180 O.2       21 UNK        -0.5000 
    119 N          0.9255  -17.3123  -55.0056 N.am      22 UNK        -0.5000 
    120 CA         1.7472  -16.2826  -54.3341 C.3       22 UNK         0.1400 
    121 C          1.2976  -14.7896  -54.4223 C.2       22 UNK         0.5000 
    122 N          0.0522  -14.4814  -54.7502 N.am      22 UNK        -0.7600 
    123 O          2.1155  -13.8937  -54.2311 O.2       22 UNK        -0.5000 
    124 C124        2.2247  -16.7190  -52.9151 C.3       23 UNK        -0.0398 
    125 S125        1.1453  -16.2676  -51.5124 S.3       23 UNK        -0.2404 
    126 C126        0.2388  -17.8214  -51.2176 C.3       23 UNK        -0.0205 
    127 H127       -3.8685  -12.1047  -46.9443 H         1 UNK         0.0600 
    128 H128       -2.8350  -10.9031  -46.1653 H         1 UNK         0.0600 
    129 H129       -4.3253  -10.4005  -46.9717 H         1 UNK         0.0600 
    130 H130       -2.8804  -12.8394  -48.7931 H         1 UNK         0.3000 
    131 H131       -2.2005  -11.2509  -51.0166 H         1 UNK         0.0600 
    132 H132       -1.3491  -14.1079  -50.3404 H         1 UNK         0.0800 
    133 H133       -1.1820  -13.3861  -51.9093 H         1 UNK         0.0800 
    134 H134       -4.9414  -15.5484  -50.5519 H         1 UNK         0.0800 
    135 H135       -4.1708  -14.5839  -49.3205 H         1 UNK         0.0800 
    136 H136       -1.7473  -16.0511  -51.6697 H         1 UNK         0.1150 
    137 H137       -0.5667  -19.1270  -48.9546 H         1 UNK         0.1150 
    138 H138       -4.1281  -16.8732  -48.1947 H         1 UNK         0.1150 
    139 H139       -1.7290  -19.3151  -46.8100 H         1 UNK         0.0800 
    140 H140       -3.1627  -18.3744  -46.4622 H         1 UNK         0.0800 
    141 H141       -4.6214  -21.7725  -45.9812 H         1 UNK         0.0800 
    142 H142       -3.3439  -20.7915  -45.3169 H         1 UNK         0.0800 
    143 H143       -2.7895  -22.9746  -47.3874 H         1 UNK         0.0600 
    144 H144       -1.0427  -21.2572  -45.8449 H         1 UNK         0.3000 
    145 H145        1.9453  -23.0229  -46.6899 H         1 UNK         0.0600 
    146 H146        2.5210  -20.7723  -47.5191 H         1 UNK         0.0600 
    147 H147        1.3725  -21.5159  -48.6197 H         1 UNK         0.0600 
    148 H148        0.8274  -20.2823  -47.4861 H         1 UNK         0.0600 
    149 H149        1.4277  -20.6620  -45.1454 H         1 UNK         0.3000 
    150 H150        0.9305  -22.2356  -42.0062 H         1 UNK         0.0600 
    151 H151        3.3678  -20.7112  -43.0736 H         1 UNK         0.0600 
    152 H152        3.4155  -22.2913  -42.2998 H         1 UNK         0.0600 
    153 H153        2.9079  -20.8839  -41.3797 H         1 UNK         0.0600 
    154 H154        1.2107  -19.5163  -42.5857 H         1 UNK         0.3000 
    155 H155       -1.5015  -18.4894  -43.9489 H         1 UNK         0.0600 
    156 H156       -2.3128  -19.0505  -41.0531 H         1 UNK         0.0600 
    157 H157       -3.2672  -19.3677  -42.4934 H         1 UNK         0.0600 
    158 H158       -2.9074  -17.7113  -42.0358 H         1 UNK         0.0600 
    159 H159       -0.0039  -17.0746  -43.2193 H         1 UNK         0.3000 
    160 H160        1.3265  -16.0837  -40.1419 H         1 UNK         0.0600 
    161 H161        2.8274  -17.2478  -42.5528 H         1 UNK         0.0600 
    162 H162        3.0690  -17.7083  -40.8710 H         1 UNK         0.0600 
    163 H163        3.4785  -16.0837  -41.4016 H         1 UNK         0.0600 
    164 H164        1.5194  -15.1928  -42.9036 H         1 UNK         0.3000 
    165 H165       -1.3582  -13.0331  -42.7068 H         1 UNK         0.0600 
    166 H166        0.4062  -11.5632  -43.7220 H         1 UNK         0.0600 
    167 H167        0.6011  -11.7250  -41.9822 H         1 UNK         0.0600 
    168 H168        1.6562  -12.6199  -43.0643 H         1 UNK         0.0600 
    169 H169        0.2694  -13.7369  -44.9170 H         1 UNK         0.3000 
    170 H170       -1.6598  -16.5001  -46.0985 H         1 UNK         0.0600 
    171 H171       -1.5041  -13.5477  -46.8861 H         1 UNK         0.0600 
    172 H172       -2.8979  -14.6144  -46.9512 H         1 UNK         0.0600 
    173 H173       -1.5579  -14.8501  -48.0693 H         1 UNK         0.0600 
    174 H174        0.7162  -14.9125  -46.8024 H         1 UNK         0.3000 
    175 H175        3.0189  -17.3711  -45.7665 H         1 UNK         0.0600 
    176 H176        2.1973  -16.7301  -48.6538 H         1 UNK         0.0600 
    177 H177        3.7421  -17.4091  -48.1397 H         1 UNK         0.0600 
    178 H178        2.2661  -18.3431  -47.9650 H         1 UNK         0.0600 
    179 H179        3.3539  -15.0250  -47.3343 H         1 UNK         0.3000 
    180 H180        3.1912  -12.5558  -44.8167 H         1 UNK         0.0600 
    181 H181        5.5127  -12.0737  -45.5193 H         1 UNK         0.0600 
    182 H182        5.6673  -13.6821  -46.2275 H         1 UNK         0.0600 
    183 H183        5.4857  -13.4940  -44.4873 H         1 UNK         0.0600 
    184 H184        3.9873  -12.3141  -47.4919 H         1 UNK         0.3000 
    185 H185        2.0971  -10.9594  -48.8072 H         1 UNK         0.0600 
    186 H186        2.4312  -12.5195  -50.7972 H         1 UNK         0.0600 
    187 H187        3.6571  -12.7865  -49.5821 H         1 UNK         0.0600 
    188 H188        2.3044  -13.9043  -49.7207 H         1 UNK         0.0600 
    189 H189       -0.1856  -12.5739  -48.3812 H         1 UNK         0.3000 
    190 H190       -1.7158  -22.8873  -43.9794 H         1 UNK         0.3000 
    191 H191       -3.3657  -24.9962  -43.0454 H         1 UNK         0.0600 
    192 H192       -1.7220  -25.1397  -41.1969 H         1 UNK         0.0600 
    193 H193       -2.0779  -23.4571  -41.5613 H         1 UNK         0.0600 
    194 H194       -0.5654  -24.1787  -42.1066 H         1 UNK         0.0600 
    195 H195       -0.1228  -25.0709  -44.5818 H         1 UNK         0.3000 
    196 H196        0.2135  -27.9134  -44.4365 H         1 UNK         0.0600 
    197 H197        1.5543  -25.8118  -46.2187 H         1 UNK         0.0600 
    198 H198        2.1236  -26.3613  -44.6451 H         1 UNK         0.0600 
    199 H199        2.1071  -27.4699  -46.0086 H         1 UNK         0.0600 
    200 H200       -0.8717  -25.7351  -47.0954 H         1 UNK         0.3000 
    201 H201       -1.1883  -27.9033  -48.9803 H         1 UNK         0.0600 
    202 H202       -2.0336  -24.9681  -49.1438 H         1 UNK         0.0600 
    203 H203       -1.8619  -26.0777  -50.5002 H         1 UNK         0.0600 
    204 H204       -0.4449  -25.5908  -49.5909 H         1 UNK         0.0600 
    205 H205       -3.2500  -26.8289  -46.5181 H         1 UNK         0.3000 
    206 H206       -5.3733  -27.0774  -45.9425 H         1 UNK         0.0600 
    207 H207       -5.1326  -29.4804  -46.5825 H         1 UNK         0.0600 
    208 H208       -6.7654  -28.8922  -46.8542 H         1 UNK         0.0600 
    209 H209       -5.6799  -29.1117  -48.2170 H         1 UNK         0.0600 
    210 H210       -4.8720  -24.8880  -47.0206 H         1 UNK         0.3000 
    211 H211       -5.6338  -22.9949  -47.8031 H         1 UNK         0.0600 
    212 H212       -8.0114  -22.6328  -48.2838 H         1 UNK         0.0600 
    213 H213       -7.8502  -23.6802  -46.8840 H         1 UNK         0.0600 
    214 H214       -8.2942  -24.3573  -48.4514 H         1 UNK         0.0600 
    215 H215       -5.1849  -25.5469  -49.9523 H         1 UNK         0.3000 
    216 H216       -5.9644  -24.4035  -52.4122 H         1 UNK         0.0600 
    217 H217       -3.7519  -26.4469  -51.8557 H         1 UNK         0.0600 
    218 H218       -4.5242  -26.1571  -53.4073 H         1 UNK         0.0600 
    219 H219       -5.4596  -26.8199  -52.0759 H         1 UNK         0.0600 
    220 H220       -3.2299  -23.6241  -50.4293 H         1 UNK         0.3000 
    221 H221       -1.4536  -22.5489  -52.3867 H         1 UNK         0.0600 
    222 H222       -0.6807  -23.1115  -50.1125 H         1 UNK         0.0600 
    223 H223       -1.7729  -21.9199  -49.4043 H         1 UNK         0.0600 
    224 H224       -0.4241  -21.4018  -50.4026 H         1 UNK         0.0600 
    225 H225       -4.4259  -21.2655  -51.0214 H         1 UNK         0.3000 
    226 H226       -3.9174  -18.5079  -51.2573 H         1 UNK         0.0600 
    227 H227       -6.5763  -20.0196  -51.3660 H         1 UNK         0.0600 
    228 H228       -5.7563  -19.4780  -49.9011 H         1 UNK         0.0600 
    229 H229       -6.3878  -18.2998  -51.0396 H         1 UNK         0.0600 
    230 H230       -4.4359  -20.7713  -53.7869 H         1 UNK         0.3000 
    231 H231       -5.3935  -18.8621  -55.7924 H         1 UNK         0.0600 
    232 H232       -4.3314  -21.7298  -56.0208 H         1 UNK         0.0600 
    233 H233       -5.0978  -20.8151  -57.3147 H         1 UNK         0.0600 
    234 H234       -6.0282  -21.2666  -55.8951 H         1 UNK         0.0600 
    235 H235       -2.3438  -19.4880  -54.3313 H         1 UNK         0.3000 
    236 H236       -0.7817  -18.6136  -56.7241 H         1 UNK         0.0600 
    237 H237       -0.3462  -20.9680  -55.8608 H         1 UNK         0.0600 
    238 H238        1.0591  -19.9286  -55.7570 H         1 UNK         0.0600 
    239 H239        0.1217  -20.2792  -54.3092 H         1 UNK         0.0600 
    240 H240        1.4578  -17.9040  -55.6267 H         1 UNK         0.3000 
    241 H241        2.6493  -16.2933  -54.9475 H         1 UNK         0.0600 
    242 H242       -0.2311  -13.5183  -54.8269 H         1 UNK         0.3800 
    243 H243       -0.6352  -15.2288  -54.7741 H         1 UNK         0.3800 
    244 H244        3.1904  -16.2525  -52.7152 H         1 UNK         0.0800 
    245 H245        2.4193  -17.7920  -52.8918 H         1 UNK         0.0800 
    246 H246       -0.0533  -18.2696  -52.1644 H         1 UNK         0.0800 
    247 H247        0.9062  -18.5325  -50.7292 H         1 UNK         0.0800 
@<TRIPOS>BOND
     1    1    2 1    
     2    1  127 1    
     3    1  128 1    
     4    1  129 1    
     5    2    3 2    
     6    2    4 am   BACKBONE|DICT|INTERRES
     7    4    5 1    
     8    4  130 1    
     9    5    6 1    
    10    5   65 1    
    11    5  131 1    
    12    6    7 1    
    13    6  132 1    
    14    6  133 1    
    15    7    8 1    
    16    8    9 1    
    17    8  134 1    
    18    8  135 1    
    19    9   10 ar   
    20    9   14 ar   
    21   10   11 ar   
    22   10  136 1    
    23   11   12 ar   
    24   11  126 1    
    25   12   13 ar   
    26   12  137 1    
    27   13   14 ar   
    28   13   15 1    
    29   14  138 1    
    30   15   16 1    
    31   15  139 1    
    32   15  140 1    
    33   16   17 1    
    34   17   18 1    
    35   17  141 1    
    36   17  142 1    
    37   18   19 1    
    38   18   67 1    
    39   18  143 1    
    40   19   20 am   BACKBONE|DICT|INTERRES
    41   19  144 1    
    42   20   21 2    
    43   20   22 1    
    44   22   23 1    
    45   22   24 1    
    46   22  145 1    
    47   23  146 1    
    48   23  147 1    
    49   23  148 1    
    50   24   25 am   BACKBONE|DICT|INTERRES
    51   24  149 1    
    52   25   26 2    
    53   25   27 1    
    54   27   28 1    
    55   27   29 1    
    56   27  150 1    
    57   28  151 1    
    58   28  152 1    
    59   28  153 1    
    60   29   30 am   BACKBONE|DICT|INTERRES
    61   29  154 1    
    62   30   31 2    
    63   30   32 1    
    64   32   33 1    
    65   32   34 1    
    66   32  155 1    
    67   33  156 1    
    68   33  157 1    
    69   33  158 1    
    70   34   35 am   BACKBONE|DICT|INTERRES
    71   34  159 1    
    72   35   36 2    
    73   35   37 1    
    74   37   38 1    
    75   37   39 1    
    76   37  160 1    
    77   38  161 1    
    78   38  162 1    
    79   38  163 1    
    80   39   40 am   BACKBONE|DICT|INTERRES
    81   39  164 1    
    82   40   41 2    
    83   40   42 1    
    84   42   43 1    
    85   42   44 1    
    86   42  165 1    
    87   43  166 1    
    88   43  167 1    
    89   43  168 1    
    90   44   45 am   BACKBONE|DICT|INTERRES
    91   44  169 1    
    92   45   46 2    
    93   45   47 1    
    94   47   48 1    
    95   47   49 1    
    96   47  170 1    
    97   48  171 1    
    98   48  172 1    
    99   48  173 1    
   100   49   50 am   BACKBONE|DICT|INTERRES
   101   49  174 1    
   102   50   51 2    
   103   50   52 1    
   104   52   53 1    
   105   52   54 1    
   106   52  175 1    
   107   53  176 1    
   108   53  177 1    
   109   53  178 1    
   110   54   55 am   BACKBONE|DICT|INTERRES
   111   54  179 1    
   112   55   56 2    
   113   55   57 1    
   114   57   58 1    
   115   57   59 1    
   116   57  180 1    
   117   58  181 1    
   118   58  182 1    
   119   58  183 1    
   120   59   60 am   BACKBONE|DICT|INTERRES
   121   59  184 1    
   122   60   61 2    
   123   60   62 1    
   124   62   63 1    
   125   62   64 1    
   126   62  185 1    
   127   63  186 1    
   128   63  187 1    
   129   63  188 1    
   130   64   65 am   BACKBONE|DICT|INTERRES
   131   64  189 1    
   132   65   66 2    
   133   67   68 2    
   134   67   69 am   BACKBONE|DICT|INTERRES
   135   69   70 1    
   136   69  190 1    
   137   70   71 1    
   138   70   72 1    
   139   70  191 1    
   140   71  192 1    
   141   71  193 1    
   142   71  194 1    
   143   72   73 2    
   144   72   74 am   BACKBONE|DICT|INTERRES
   145   74   75 1    
   146   74  195 1    
   147   75   76 1    
   148   75   77 1    
   149   75  196 1    
   150   76  197 1    
   151   76  198 1    
   152   76  199 1    
   153   77   78 2    
   154   77   79 am   BACKBONE|DICT|INTERRES
   155   79   80 1    
   156   79  200 1    
   157   80   81 1    
   158   80   82 1    
   159   80  201 1    
   160   81  202 1    
   161   81  203 1    
   162   81  204 1    
   163   82   83 2    
   164   82   84 am   BACKBONE|DICT|INTERRES
   165   84   85 1    
   166   84  205 1    
   167   85   86 1    
   168   85   87 1    
   169   85  206 1    
   170   86  207 1    
   171   86  208 1    
   172   86  209 1    
   173   87   88 2    
   174   87   89 am   BACKBONE|DICT|INTERRES
   175   89   90 1    
   176   89  210 1    
   177   90   91 1    
   178   90   92 1    
   179   90  211 1    
   180   91  212 1    
   181   91  213 1    
   182   91  214 1    
   183   92   93 2    
   184   92   94 am   BACKBONE|DICT|INTERRES
   185   94   95 1    
   186   94  215 1    
   187   95   96 1    
   188   95   97 1    
   189   95  216 1    
   190   96  217 1    
   191   96  218 1    
   192   96  219 1    
   193   97   98 2    
   194   97   99 am   BACKBONE|DICT|INTERRES
   195   99  100 1    
   196   99  220 1    
   197  100  101 1    
   198  100  102 1    
   199  100  221 1    
   200  101  222 1    
   201  101  223 1    
   202  101  224 1    
   203  102  103 2    
   204  102  104 am   BACKBONE|DICT|INTERRES
   205  104  105 1    
   206  104  225 1    
   207  105  106 1    
   208  105  107 1    
   209  105  226 1    
   210  106  227 1    
   211  106  228 1    
   212  106  229 1    
   213  107  108 2    
   214  107  109 am   BACKBONE|DICT|INTERRES
   215  109  110 1    
   216  109  230 1    
   217  110  111 1    
   218  110  112 1    
   219  110  231 1    
   220  111  232 1    
   221  111  233 1    
   222  111  234 1    
   223  112  113 2    
   224  112  114 am   BACKBONE|DICT|INTERRES
   225  114  115 1    
   226  114  235 1    
   227  115  116 1    
   228  115  117 1    
   229  115  236 1    
   230  116  237 1    
   231  116  238 1    
   232  116  239 1    
   233  117  118 2    
   234  117  119 am   BACKBONE|DICT|INTERRES
   235  119  120 1    
   236  119  240 1    
   237  120  121 1    
   238  120  124 1    
   239  120  241 1    
   240  121  122 am   BACKBONE|DICT|INTERRES
   241  121  123 2    
   242  122  242 1    
   243  122  243 1    
   244  124  125 1    
   245  124  244 1    
   246  124  245 1    
   247  125  126 1    
   248  126  246 1    
   249  126  247 1    
@<TRIPOS>SUBSTRUCTURE
     1 UNK         1 GROUP             0       ****    0 ROOT    
