@<TRIPOS>MOLECULE
3R540
247   249    1
SMALL
USER_CHARGES


@<TRIPOS>ATOM
      1 CA         -0.8619   -5.9760  -45.6418 C.3       0 UNK        -0.1800 
      2 C          -0.5000   -6.9388  -46.7645 C.2       0 UNK         0.5000 
      3 O           0.0422   -6.5123  -47.7850 O.2       0 UNK        -0.5000 
      4 N          -0.8054   -8.2296  -46.5827 N.am      1 UNK        -0.5000 
      5 CA         -0.4708   -9.3116  -47.5152 C.3       1 UNK         0.1400 
      6 C6         -1.4711  -10.4937  -47.3865 C.3       23 UNK        -0.0398 
      7 S7         -1.6618  -11.3994  -48.9655 S.3       23 UNK        -0.2404 
      8 C8         -3.4330  -11.8267  -49.0008 C.3       23 UNK        -0.0205 
      9 C9         -3.6549  -13.3172  -48.7883 C.ar      23 UNK        -0.0193 
     10 C10        -3.3668  -14.2155  -49.8207 C.ar      23 UNK        -0.1150 
     11 C11        -3.5910  -15.5846  -49.6556 C.ar      23 UNK        -0.0193 
     12 C12        -4.1085  -16.0533  -48.4475 C.ar      23 UNK        -0.1150 
     13 C13        -4.4000  -15.1696  -47.4041 C.ar      23 UNK        -0.0193 
     14 C14        -4.1705  -13.8004  -47.5809 C.ar      23 UNK        -0.1150 
     15 C15        -4.9846  -15.6928  -46.0997 C.3       23 UNK        -0.0205 
     16 S16        -3.6998  -16.4326  -45.0424 S.3       23 UNK        -0.2404 
     17 C17        -4.3197  -18.1384  -44.8264 C.3       23 UNK        -0.0398 
     18 CA         -4.0311  -19.0446  -46.0471 C.3       11 UNK         0.1400 
     19 N          -2.6226  -19.0314  -46.4480 N.am      11 UNK        -0.5000 
     20 C          -2.1693  -19.3480  -47.6681 C.2       10 UNK         0.5000 
     21 O          -2.8971  -19.6489  -48.6127 O.2       10 UNK        -0.5000 
     22 CA         -0.6434  -19.3129  -47.8710 C.3       10 UNK         0.1400 
     23 CB         -0.2164  -17.9675  -48.4763 C.3       10 UNK        -0.1800 
     24 N           0.0963  -19.5472  -46.6281 N.am      10 UNK        -0.5000 
     25 C           0.1871  -20.7395  -46.0216 C.2       9 UNK         0.5000 
     26 O          -0.2940  -21.7768  -46.4723 O.2       9 UNK        -0.5000 
     27 CA          0.8957  -20.7641  -44.6573 C.3       9 UNK         0.1400 
     28 CB          2.4216  -20.7988  -44.8343 C.3       9 UNK        -0.1800 
     29 N           0.5326  -19.6194  -43.8234 N.am      9 UNK        -0.5000 
     30 C          -0.6791  -19.3960  -43.3003 C.2       8 UNK         0.5000 
     31 O          -1.6371  -20.1459  -43.4863 O.2       8 UNK        -0.5000 
     32 CA         -0.8855  -18.1019  -42.4863 C.3       8 UNK         0.1400 
     33 CB         -1.6633  -18.3547  -41.1795 C.3       8 UNK        -0.1800 
     34 N           0.3378  -17.3274  -42.2418 N.am      8 UNK        -0.5000 
     35 C           1.3914  -17.6403  -41.4717 C.2       7 UNK         0.5000 
     36 O           1.4719  -18.6767  -40.8124 O.2       7 UNK        -0.5000 
     37 CA          2.5779  -16.6509  -41.4585 C.3       7 UNK         0.1400 
     38 CB          3.8069  -17.2920  -42.1236 C.3       7 UNK        -0.1800 
     39 N           2.2939  -15.3837  -42.1367 N.am      7 UNK        -0.5000 
     40 C           1.5532  -14.3831  -41.6399 C.2       6 UNK         0.5000 
     41 O           1.0952  -14.3726  -40.4972 O.2       6 UNK        -0.5000 
     42 CA          1.2196  -13.2299  -42.6098 C.3       6 UNK         0.1400 
     43 CB          2.3378  -12.1777  -42.6199 C.3       6 UNK        -0.1800 
     44 N           0.9757  -13.7008  -43.9770 N.am      6 UNK        -0.5000 
     45 C          -0.0271  -14.5176  -44.3300 C.2       5 UNK         0.5000 
     46 O          -0.8939  -14.8982  -43.5463 O.2       5 UNK        -0.5000 
     47 CA         -0.0227  -15.0633  -45.7663 C.3       5 UNK         0.1400 
     48 CB         -0.7359  -14.1118  -46.7316 C.3       5 UNK        -0.1800 
     49 N           1.3374  -15.3109  -46.2402 N.am      5 UNK        -0.5000 
     50 C           2.0366  -16.4201  -45.9724 C.2       4 UNK         0.5000 
     51 O           1.5698  -17.3838  -45.3672 O.2       4 UNK        -0.5000 
     52 CA          3.5005  -16.4658  -46.4488 C.3       4 UNK         0.1400 
     53 CB          3.5928  -17.1211  -47.8339 C.3       4 UNK        -0.1800 
     54 N           4.1337  -15.1460  -46.4927 N.am      4 UNK        -0.5000 
     55 C           4.4324  -14.4198  -45.4066 C.2       3 UNK         0.5000 
     56 O           4.2248  -14.8022  -44.2560 O.2       3 UNK        -0.5000 
     57 CA          5.0073  -13.0096  -45.6447 C.3       3 UNK         0.1400 
     58 CB          6.5351  -13.0710  -45.7886 C.3       3 UNK        -0.1800 
     59 N           4.4384  -12.3113  -46.8034 N.am      3 UNK        -0.5000 
     60 C           3.1355  -12.0629  -46.9945 C.2       2 UNK         0.5000 
     61 O           2.2490  -12.4716  -46.2420 O.2       2 UNK        -0.5000 
     62 CA          2.7705  -11.2800  -48.2712 C.3       2 UNK         0.1400 
     63 CB          2.8389  -12.2092  -49.4941 C.3       2 UNK        -0.1800 
     64 N           1.4339  -10.6830  -48.2269 N.am      2 UNK        -0.5000 
     65 C           1.0072   -9.7543  -47.3613 C.2       1 UNK         0.5000 
     66 O           1.7266   -9.2539  -46.4913 O.2       1 UNK        -0.5000 
     67 C          -4.5157  -20.4870  -45.8172 C.2       11 UNK         0.5000 
     68 O          -5.5896  -20.8549  -46.2951 O.2       11 UNK        -0.5000 
     69 N          -3.6853  -21.3047  -45.1570 N.am      12 UNK        -0.5000 
     70 CA         -3.8595  -22.7474  -44.9898 C.3       12 UNK         0.1400 
     71 CB         -3.0722  -23.1932  -43.7444 C.3       12 UNK        -0.1800 
     72 C          -3.4421  -23.5144  -46.2646 C.2       12 UNK         0.5000 
     73 O          -2.5949  -24.4053  -46.2025 O.2       12 UNK        -0.5000 
     74 N          -4.0385  -23.1376  -47.4042 N.am      13 UNK        -0.5000 
     75 CA         -3.7266  -23.6451  -48.7412 C.3       13 UNK         0.1400 
     76 CB         -4.4648  -22.7909  -49.7826 C.3       13 UNK        -0.1800 
     77 C          -4.0653  -25.1314  -48.9435 C.2       13 UNK         0.5000 
     78 O          -3.3942  -25.7958  -49.7346 O.2       13 UNK        -0.5000 
     79 N          -5.0985  -25.6153  -48.2354 N.am      14 UNK        -0.5000 
     80 CA         -5.6166  -26.9892  -48.2437 C.3       14 UNK         0.1400 
     81 CB         -4.6054  -27.9493  -47.5845 C.3       14 UNK        -0.1800 
     82 C          -6.0351  -27.4443  -49.6563 C.2       14 UNK         0.5000 
     83 O          -5.5643  -28.4722  -50.1428 O.2       14 UNK        -0.5000 
     84 N          -6.8703  -26.6254  -50.3140 N.am      15 UNK        -0.5000 
     85 CA         -7.3270  -26.7808  -51.7033 C.3       15 UNK         0.1400 
     86 CB         -8.2466  -28.0121  -51.8470 C.3       15 UNK        -0.1800 
     87 C          -6.1570  -26.7752  -52.7133 C.2       15 UNK         0.5000 
     88 O          -6.1556  -27.5479  -53.6724 O.2       15 UNK        -0.5000 
     89 N          -5.1750  -25.9022  -52.4439 N.am      16 UNK        -0.5000 
     90 CA         -3.9183  -25.6818  -53.1679 C.3       16 UNK         0.1400 
     91 CB         -4.1726  -25.3631  -54.6578 C.3       16 UNK        -0.1800 
     92 C          -2.8618  -26.7938  -52.9852 C.2       16 UNK         0.5000 
     93 O          -1.8047  -26.7139  -53.6130 O.2       16 UNK        -0.5000 
     94 N          -3.1346  -27.8037  -52.1457 N.am      17 UNK        -0.5000 
     95 CA         -2.2420  -28.9420  -51.9247 C.3       17 UNK         0.1400 
     96 CB         -3.0504  -30.1369  -51.3977 C.3       17 UNK        -0.1800 
     97 C          -1.0763  -28.6266  -50.9708 C.2       17 UNK         0.5000 
     98 O           0.0151  -29.1636  -51.1669 O.2       17 UNK        -0.5000 
     99 N          -1.3176  -27.7877  -49.9539 N.am      18 UNK        -0.5000 
    100 CA        -0.3179  -27.4192  -48.9480 C.3       18 UNK         0.1400 
    101 CB        -0.9940  -27.2388  -47.5820 C.3       18 UNK        -0.1800 
    102 C          0.4557  -26.1537  -49.3485 C.2       18 UNK         0.5000 
    103 O          1.6554  -26.0706  -49.0816 O.2       18 UNK        -0.5000 
    104 N         -0.2260  -25.2092  -50.0051 N.am      19 UNK        -0.5000 
    105 CA         0.3609  -24.0056  -50.5801 C.3       19 UNK         0.1400 
    106 CB         0.4575  -22.8870  -49.5289 C.3       19 UNK        -0.1800 
    107 C         -0.5161  -23.5891  -51.7605 C.2       19 UNK         0.5000 
    108 O         -1.7211  -23.4143  -51.5828 O.2       19 UNK        -0.5000 
    109 N          0.0921  -23.4483  -52.9430 N.am      20 UNK        -0.5000 
    110 CA        -0.6107  -23.1702  -54.1973 C.3       20 UNK         0.1400 
    111 CB         0.3298  -23.4746  -55.3730 C.3       20 UNK        -0.1800 
    112 C         -1.1648  -21.7370  -54.3083 C.2       20 UNK         0.5000 
    113 O         -2.0829  -21.5169  -55.0988 O.2       20 UNK        -0.5000 
    114 N         -0.6042  -20.8054  -53.5203 N.am      21 UNK        -0.5000 
    115 CA        -0.8440  -19.3563  -53.5378 C.3       21 UNK         0.1400 
    116 CB        -0.1177  -18.7223  -52.3404 C.3       21 UNK        -0.1800 
    117 C         -2.3240  -18.9270  -53.5497 C.2       21 UNK         0.5000 
    118 O         -2.6772  -18.0019  -54.2819 O.2       21 UNK        -0.5000 
    119 N         -3.1499  -19.6282  -52.7674 N.am      22 UNK        -0.5000 
    120 CA        -4.6141  -19.4951  -52.7281 C.3       22 UNK         0.1400 
    121 C         -5.3056  -20.8859  -52.8312 C.2       22 UNK         0.5000 
    122 N         -4.7040  -21.8617  -53.5024 N.am      22 UNK        -0.7600 
    123 O         -6.4034  -21.0906  -52.3213 O.2       22 UNK        -0.5000 
    124 C124       -5.0945  -18.6365  -51.5238 C.3       23 UNK        -0.0398 
    125 S125       -4.7833  -16.8551  -51.7865 S.3       23 UNK        -0.2404 
    126 C126       -3.2938  -16.5553  -50.7865 C.3       23 UNK        -0.0205 
    127 H127       -1.5415   -5.2075  -46.0104 H         1 UNK         0.0600 
    128 H128       -1.3461   -6.4869  -44.8091 H         1 UNK         0.0600 
    129 H129        0.0358   -5.4864  -45.2642 H         1 UNK         0.0600 
    130 H130       -1.2130   -8.5178  -45.7048 H         1 UNK         0.3000 
    131 H131       -0.5678   -8.9019  -48.5234 H         1 UNK         0.0600 
    132 H132       -1.1851  -11.1793  -46.5880 H         1 UNK         0.0800 
    133 H133       -2.4506  -10.1079  -47.1026 H         1 UNK         0.0800 
    134 H134       -3.8364  -11.5455  -49.9747 H         1 UNK         0.0800 
    135 H135       -3.9942  -11.2453  -48.2688 H         1 UNK         0.0800 
    136 H136       -2.9742  -13.8448  -50.7572 H         1 UNK         0.1150 
    137 H137       -4.2923  -17.1093  -48.3337 H         1 UNK         0.1150 
    138 H138       -4.3970  -13.1105  -46.7802 H         1 UNK         0.1150 
    139 H139       -5.4685  -14.8852  -45.5486 H         1 UNK         0.0800 
    140 H140       -5.7687  -16.4179  -46.3212 H         1 UNK         0.0800 
    141 H141       -5.3904  -18.1029  -44.6177 H         1 UNK         0.0800 
    142 H142       -3.8536  -18.5468  -43.9284 H         1 UNK         0.0800 
    143 H143       -4.6240  -18.6622  -46.8775 H         1 UNK         0.0600 
    144 H144       -1.9517  -18.8038  -45.7313 H         1 UNK         0.3000 
    145 H145       -0.3867  -20.1011  -48.5813 H         1 UNK         0.0600 
    146 H146        0.8530  -17.9466  -48.6804 H         1 UNK         0.0600 
    147 H147       -0.7275  -17.7819  -49.4203 H         1 UNK         0.0600 
    148 H148       -0.4535  -17.1354  -47.8154 H         1 UNK         0.0600 
    149 H149        0.5403  -18.7466  -46.1857 H         1 UNK         0.3000 
    150 H150        0.5889  -21.6735  -44.1362 H         1 UNK         0.0600 
    151 H151        2.7919  -19.9028  -45.3342 H         1 UNK         0.0600 
    152 H152        2.7248  -21.6583  -45.4335 H         1 UNK         0.0600 
    153 H153        2.9277  -20.8781  -43.8719 H         1 UNK         0.0600 
    154 H154        1.2327  -18.8980  -43.7177 H         1 UNK         0.3000 
    155 H155       -1.5114  -17.4661  -43.1122 H         1 UNK         0.0600 
    156 H156       -1.1418  -19.0512  -40.5228 H         1 UNK         0.0600 
    157 H157       -2.6465  -18.7790  -41.3861 H         1 UNK         0.0600 
    158 H158       -1.8217  -17.4266  -40.6302 H         1 UNK         0.0600 
    159 H159        0.3654  -16.4372  -42.7225 H         1 UNK         0.3000 
    160 H160        2.8205  -16.4424  -40.4146 H         1 UNK         0.0600 
    161 H161        3.6196  -17.5244  -43.1727 H         1 UNK         0.0600 
    162 H162        4.0858  -18.2214  -41.6255 H         1 UNK         0.0600 
    163 H163        4.6709  -16.6287  -42.0775 H         1 UNK         0.0600 
    164 H164        2.7114  -15.2629  -43.0545 H         1 UNK         0.3000 
    165 H165        0.3044  -12.7502  -42.2567 H         1 UNK         0.0600 
    166 H166        2.1135  -11.3668  -43.3136 H         1 UNK         0.0600 
    167 H167        2.4640  -11.7366  -41.6305 H         1 UNK         0.0600 
    168 H168        3.2951  -12.6109  -42.9074 H         1 UNK         0.0600 
    169 H169        1.6115  -13.3748  -44.6998 H         1 UNK         0.3000 
    170 H170       -0.5822  -16.0011  -45.7533 H         1 UNK         0.0600 
    171 H171       -0.9284  -14.5939  -47.6901 H         1 UNK         0.0600 
    172 H172       -0.1476  -13.2166  -46.9235 H         1 UNK         0.0600 
    173 H173       -1.6973  -13.7959  -46.3270 H         1 UNK         0.0600 
    174 H174        1.8065  -14.5292  -46.6787 H         1 UNK         0.3000 
    175 H175        4.0554  -17.0864  -45.7420 H         1 UNK         0.0600 
    176 H176        3.1693  -18.1263  -47.8178 H         1 UNK         0.0600 
    177 H177        4.6295  -17.2137  -48.1580 H         1 UNK         0.0600 
    178 H178        3.0542  -16.5469  -48.5890 H         1 UNK         0.0600 
    179 H179        4.3308  -14.7590  -47.4037 H         1 UNK         0.3000 
    180 H180        4.7762  -12.4105  -44.7624 H         1 UNK         0.0600 
    181 H181        6.9667  -12.0718  -45.8489 H         1 UNK         0.0600 
    182 H182        6.8341  -13.6214  -46.6815 H         1 UNK         0.0600 
    183 H183        6.9888  -13.5673  -44.9295 H         1 UNK         0.0600 
    184 H184        5.1024  -11.9606  -47.4788 H         1 UNK         0.3000 
    185 H185        3.4942  -10.4722  -48.3957 H         1 UNK         0.0600 
    186 H186        2.6259  -11.6657  -50.4149 H         1 UNK         0.0600 
    187 H187        3.8306  -12.6496  -49.6042 H         1 UNK         0.0600 
    188 H188        2.1225  -13.0285  -49.4158 H         1 UNK         0.0600 
    189 H189        0.7592  -11.0637  -48.8762 H         1 UNK         0.3000 
    190 H190       -2.8277  -20.9204  -44.7701 H         1 UNK         0.3000 
    191 H191       -4.9152  -22.9610  -44.8112 H         1 UNK         0.0600 
    192 H192       -3.2115  -24.2574  -43.5509 H         1 UNK         0.0600 
    193 H193       -3.4025  -22.6549  -42.8558 H         1 UNK         0.0600 
    194 H194       -2.0023  -23.0151  -43.8629 H         1 UNK         0.0600 
    195 H195       -4.7136  -22.3829  -47.3489 H         1 UNK         0.3000 
    196 H196       -2.6535  -23.5321  -48.8999 H         1 UNK         0.0600 
    197 H197       -5.5445  -22.8064  -49.6302 H         1 UNK         0.0600 
    198 H198       -4.1363  -21.7526  -49.7454 H         1 UNK         0.0600 
    199 H199       -4.2722  -23.1498  -50.7940 H         1 UNK         0.0600 
    200 H200       -5.5770  -24.9716  -47.6216 H         1 UNK         0.3000 
    201 H201       -6.5206  -26.9889  -47.6331 H         1 UNK         0.0600 
    202 H202       -3.7120  -28.0749  -48.1953 H         1 UNK         0.0600 
    203 H203       -5.0430  -28.9383  -47.4443 H         1 UNK         0.0600 
    204 H204       -4.2944  -27.5870  -46.6046 H         1 UNK         0.0600 
    205 H205       -7.1927  -25.7951  -49.8367 H         1 UNK         0.3000 
    206 H206       -7.9258  -25.8977  -51.9310 H         1 UNK         0.0600 
    207 H207       -9.0639  -27.9797  -51.1266 H         1 UNK         0.0600 
    208 H208       -8.6933  -28.0514  -52.8411 H         1 UNK         0.0600 
    209 H209       -7.7038  -28.9458  -51.6969 H         1 UNK         0.0600 
    210 H210       -5.2651  -25.3677  -51.5922 H         1 UNK         0.3000 
    211 H211       -3.4894  -24.7879  -52.7199 H         1 UNK         0.0600 
    212 H212       -3.2662  -25.0064  -55.1461 H         1 UNK         0.0600 
    213 H213       -4.9295  -24.5888  -54.7776 H         1 UNK         0.0600 
    214 H214       -4.5034  -26.2424  -55.2105 H         1 UNK         0.0600 
    215 H215       -4.0080  -27.8012  -51.6333 H         1 UNK         0.3000 
    216 H216       -1.8145  -29.2343  -52.8864 H         1 UNK         0.0600 
    217 H217       -3.4272  -29.9564  -50.3906 H         1 UNK         0.0600 
    218 H218       -2.4323  -31.0344  -51.3557 H         1 UNK         0.0600 
    219 H219       -3.9020  -30.3567  -52.0420 H         1 UNK         0.0600 
    220 H220       -2.2195  -27.3230  -49.8952 H         1 UNK         0.3000 
    221 H221        0.4101  -28.2264  -48.8416 H         1 UNK         0.0600 
    222 H222       -1.4502  -28.1686  -47.2427 H         1 UNK         0.0600 
    223 H223       -1.7694  -26.4754  -47.6143 H         1 UNK         0.0600 
    224 H224       -0.2710  -26.9368  -46.8233 H         1 UNK         0.0600 
    225 H225       -1.2119  -25.3471  -50.1977 H         1 UNK         0.3000 
    226 H226        1.3640  -24.2330  -50.9477 H         1 UNK         0.0600 
    227 H227        0.9031  -21.9878  -49.9553 H         1 UNK         0.0600 
    228 H228       -0.5226  -22.6129  -49.1385 H         1 UNK         0.0600 
    229 H229        1.0775  -23.1878  -48.6843 H         1 UNK         0.0600 
    230 H230        1.0865  -23.6109  -53.0116 H         1 UNK         0.3000 
    231 H231       -1.4610  -23.8502  -54.2619 H         1 UNK         0.0600 
    232 H232        1.2181  -22.8420  -55.3529 H         1 UNK         0.0600 
    233 H233       -0.1707  -23.3084  -56.3279 H         1 UNK         0.0600 
    234 H234        0.6555  -24.5150  -55.3570 H         1 UNK         0.0600 
    235 H235        0.1283  -21.1188  -52.9015 H         1 UNK         0.3000 
    236 H236       -0.3909  -18.9712  -54.4533 H         1 UNK         0.0600 
    237 H237        0.9588  -18.8828  -52.3996 H         1 UNK         0.0600 
    238 H238       -0.2825  -17.6444  -52.3040 H         1 UNK         0.0600 
    239 H239       -0.4679  -19.1413  -51.3965 H         1 UNK         0.0600 
    240 H240       -2.7702  -20.3931  -52.2270 H         1 UNK         0.3000 
    241 H241       -4.9467  -18.9909  -53.6373 H         1 UNK         0.0600 
    242 H242       -5.1671  -22.7505  -53.5835 H         1 UNK         0.3800 
    243 H243       -3.8384  -21.6914  -54.0006 H         1 UNK         0.3800 
    244 H244       -4.6441  -18.9809  -50.5922 H         1 UNK         0.0800 
    245 H245       -6.1722  -18.7321  -51.3842 H         1 UNK         0.0800 
    246 H246       -2.9024  -17.4911  -50.3872 H         1 UNK         0.0800 
    247 H247       -2.5118  -16.1536  -51.4323 H         1 UNK         0.0800 
@<TRIPOS>BOND
     1    1    2 1    
     2    1  127 1    
     3    1  128 1    
     4    1  129 1    
     5    2    3 2    
     6    2    4 am   BACKBONE|DICT|INTERRES
     7    4    5 1    
     8    4  130 1    
     9    5    6 1    
    10    5   65 1    
    11    5  131 1    
    12    6    7 1    
    13    6  132 1    
    14    6  133 1    
    15    7    8 1    
    16    8    9 1    
    17    8  134 1    
    18    8  135 1    
    19    9   10 ar   
    20    9   14 ar   
    21   10   11 ar   
    22   10  136 1    
    23   11   12 ar   
    24   11  126 1    
    25   12   13 ar   
    26   12  137 1    
    27   13   14 ar   
    28   13   15 1    
    29   14  138 1    
    30   15   16 1    
    31   15  139 1    
    32   15  140 1    
    33   16   17 1    
    34   17   18 1    
    35   17  141 1    
    36   17  142 1    
    37   18   19 1    
    38   18   67 1    
    39   18  143 1    
    40   19   20 am   BACKBONE|DICT|INTERRES
    41   19  144 1    
    42   20   21 2    
    43   20   22 1    
    44   22   23 1    
    45   22   24 1    
    46   22  145 1    
    47   23  146 1    
    48   23  147 1    
    49   23  148 1    
    50   24   25 am   BACKBONE|DICT|INTERRES
    51   24  149 1    
    52   25   26 2    
    53   25   27 1    
    54   27   28 1    
    55   27   29 1    
    56   27  150 1    
    57   28  151 1    
    58   28  152 1    
    59   28  153 1    
    60   29   30 am   BACKBONE|DICT|INTERRES
    61   29  154 1    
    62   30   31 2    
    63   30   32 1    
    64   32   33 1    
    65   32   34 1    
    66   32  155 1    
    67   33  156 1    
    68   33  157 1    
    69   33  158 1    
    70   34   35 am   BACKBONE|DICT|INTERRES
    71   34  159 1    
    72   35   36 2    
    73   35   37 1    
    74   37   38 1    
    75   37   39 1    
    76   37  160 1    
    77   38  161 1    
    78   38  162 1    
    79   38  163 1    
    80   39   40 am   BACKBONE|DICT|INTERRES
    81   39  164 1    
    82   40   41 2    
    83   40   42 1    
    84   42   43 1    
    85   42   44 1    
    86   42  165 1    
    87   43  166 1    
    88   43  167 1    
    89   43  168 1    
    90   44   45 am   BACKBONE|DICT|INTERRES
    91   44  169 1    
    92   45   46 2    
    93   45   47 1    
    94   47   48 1    
    95   47   49 1    
    96   47  170 1    
    97   48  171 1    
    98   48  172 1    
    99   48  173 1    
   100   49   50 am   BACKBONE|DICT|INTERRES
   101   49  174 1    
   102   50   51 2    
   103   50   52 1    
   104   52   53 1    
   105   52   54 1    
   106   52  175 1    
   107   53  176 1    
   108   53  177 1    
   109   53  178 1    
   110   54   55 am   BACKBONE|DICT|INTERRES
   111   54  179 1    
   112   55   56 2    
   113   55   57 1    
   114   57   58 1    
   115   57   59 1    
   116   57  180 1    
   117   58  181 1    
   118   58  182 1    
   119   58  183 1    
   120   59   60 am   BACKBONE|DICT|INTERRES
   121   59  184 1    
   122   60   61 2    
   123   60   62 1    
   124   62   63 1    
   125   62   64 1    
   126   62  185 1    
   127   63  186 1    
   128   63  187 1    
   129   63  188 1    
   130   64   65 am   BACKBONE|DICT|INTERRES
   131   64  189 1    
   132   65   66 2    
   133   67   68 2    
   134   67   69 am   BACKBONE|DICT|INTERRES
   135   69   70 1    
   136   69  190 1    
   137   70   71 1    
   138   70   72 1    
   139   70  191 1    
   140   71  192 1    
   141   71  193 1    
   142   71  194 1    
   143   72   73 2    
   144   72   74 am   BACKBONE|DICT|INTERRES
   145   74   75 1    
   146   74  195 1    
   147   75   76 1    
   148   75   77 1    
   149   75  196 1    
   150   76  197 1    
   151   76  198 1    
   152   76  199 1    
   153   77   78 2    
   154   77   79 am   BACKBONE|DICT|INTERRES
   155   79   80 1    
   156   79  200 1    
   157   80   81 1    
   158   80   82 1    
   159   80  201 1    
   160   81  202 1    
   161   81  203 1    
   162   81  204 1    
   163   82   83 2    
   164   82   84 am   BACKBONE|DICT|INTERRES
   165   84   85 1    
   166   84  205 1    
   167   85   86 1    
   168   85   87 1    
   169   85  206 1    
   170   86  207 1    
   171   86  208 1    
   172   86  209 1    
   173   87   88 2    
   174   87   89 am   BACKBONE|DICT|INTERRES
   175   89   90 1    
   176   89  210 1    
   177   90   91 1    
   178   90   92 1    
   179   90  211 1    
   180   91  212 1    
   181   91  213 1    
   182   91  214 1    
   183   92   93 2    
   184   92   94 am   BACKBONE|DICT|INTERRES
   185   94   95 1    
   186   94  215 1    
   187   95   96 1    
   188   95   97 1    
   189   95  216 1    
   190   96  217 1    
   191   96  218 1    
   192   96  219 1    
   193   97   98 2    
   194   97   99 am   BACKBONE|DICT|INTERRES
   195   99  100 1    
   196   99  220 1    
   197  100  101 1    
   198  100  102 1    
   199  100  221 1    
   200  101  222 1    
   201  101  223 1    
   202  101  224 1    
   203  102  103 2    
   204  102  104 am   BACKBONE|DICT|INTERRES
   205  104  105 1    
   206  104  225 1    
   207  105  106 1    
   208  105  107 1    
   209  105  226 1    
   210  106  227 1    
   211  106  228 1    
   212  106  229 1    
   213  107  108 2    
   214  107  109 am   BACKBONE|DICT|INTERRES
   215  109  110 1    
   216  109  230 1    
   217  110  111 1    
   218  110  112 1    
   219  110  231 1    
   220  111  232 1    
   221  111  233 1    
   222  111  234 1    
   223  112  113 2    
   224  112  114 am   BACKBONE|DICT|INTERRES
   225  114  115 1    
   226  114  235 1    
   227  115  116 1    
   228  115  117 1    
   229  115  236 1    
   230  116  237 1    
   231  116  238 1    
   232  116  239 1    
   233  117  118 2    
   234  117  119 am   BACKBONE|DICT|INTERRES
   235  119  120 1    
   236  119  240 1    
   237  120  121 1    
   238  120  124 1    
   239  120  241 1    
   240  121  122 am   BACKBONE|DICT|INTERRES
   241  121  123 2    
   242  122  242 1    
   243  122  243 1    
   244  124  125 1    
   245  124  244 1    
   246  124  245 1    
   247  125  126 1    
   248  126  246 1    
   249  126  247 1    
@<TRIPOS>SUBSTRUCTURE
     1 UNK         1 GROUP             0       ****    0 ROOT    
