@<TRIPOS>MOLECULE
3R540
247   249    1
SMALL
USER_CHARGES


@<TRIPOS>ATOM
      1 CA         -2.9600  -12.7493  -48.8473 C.3       0 UNK        -0.1800 
      2 C          -1.5448  -12.6822  -48.2949 C.2       0 UNK         0.5000 
      3 O          -1.3662  -12.3868  -47.1141 O.2       0 UNK        -0.5000 
      4 N          -0.5429  -12.9251  -49.1507 N.am      1 UNK        -0.5000 
      5 CA          0.8966  -12.9715  -48.8363 C.3       1 UNK         0.1400 
      6 C6          1.3074  -14.2210  -48.0085 C.3       23 UNK        -0.0398 
      7 S7          0.8029  -15.7831  -48.8097 S.3       23 UNK        -0.2404 
      8 C8          2.3426  -16.2980  -49.6315 C.3       23 UNK        -0.0205 
      9 C9          2.0522  -17.3179  -50.7220 C.ar      23 UNK        -0.0193 
     10 C10         1.8492  -16.8953  -52.0376 C.ar      23 UNK        -0.1150 
     11 C11         1.5146  -17.8089  -53.0378 C.ar      23 UNK        -0.0193 
     12 C12         1.4458  -19.1689  -52.7211 C.ar      23 UNK        -0.1150 
     13 C13         1.6832  -19.6190  -51.4185 C.ar      23 UNK        -0.0193 
     14 C14         1.9785  -18.6805  -50.4208 C.ar      23 UNK        -0.1150 
     15 C15         1.6558  -21.1244  -51.1511 C.3       23 UNK        -0.0205 
     16 S16         1.2799  -21.6192  -49.4359 S.3       23 UNK        -0.2404 
     17 C17        -0.4767  -21.1509  -49.2796 C.3       23 UNK        -0.0398 
     18 CA         -1.3449  -22.2972  -48.7055 C.3       11 UNK         0.1400 
     19 N          -0.8480  -22.7797  -47.4142 N.am      11 UNK        -0.5000 
     20 C          -1.1647  -23.9589  -46.8631 C.2       10 UNK         0.5000 
     21 O          -1.9042  -24.7863  -47.3977 O.2       10 UNK        -0.5000 
     22 CA         -0.5713  -24.2685  -45.4746 C.3       10 UNK         0.1400 
     23 CB          0.7623  -25.0152  -45.6239 C.3       10 UNK        -0.1800 
     24 N          -0.3621  -23.0837  -44.6418 N.am      10 UNK        -0.5000 
     25 C          -1.3169  -22.2190  -44.2731 C.2       9 UNK         0.5000 
     26 O          -2.5052  -22.3534  -44.5608 O.2       9 UNK        -0.5000 
     27 CA         -0.8646  -20.9596  -43.5141 C.3       9 UNK         0.1400 
     28 CB         -0.9544  -21.1941  -41.9993 C.3       9 UNK        -0.1800 
     29 N           0.4810  -20.4821  -43.8541 N.am      9 UNK        -0.5000 
     30 C           0.9247  -20.1878  -45.0875 C.2       8 UNK         0.5000 
     31 O           0.2883  -20.4181  -46.1167 O.2       8 UNK        -0.5000 
     32 CA          2.2959  -19.4979  -45.1618 C.3       8 UNK         0.1400 
     33 CB          2.6207  -18.9462  -46.5610 C.3       8 UNK        -0.1800 
     34 N           2.3227  -18.4085  -44.1918 N.am      8 UNK        -0.5000 
     35 C           3.3366  -18.1180  -43.3677 C.2       7 UNK         0.5000 
     36 O           4.4081  -18.7251  -43.3645 O.2       7 UNK        -0.5000 
     37 CA          3.1229  -16.9626  -42.3678 C.3       7 UNK         0.1400 
     38 CB          3.9094  -15.7184  -42.8090 C.3       7 UNK        -0.1800 
     39 N           1.7111  -16.6076  -42.1924 N.am      7 UNK        -0.5000 
     40 C           0.8251  -17.3528  -41.5127 C.2       6 UNK         0.5000 
     41 O           1.1317  -18.3847  -40.9152 O.2       6 UNK        -0.5000 
     42 CA         -0.6515  -16.9013  -41.5149 C.3       6 UNK         0.1400 
     43 CB         -0.9919  -16.1760  -40.2046 C.3       6 UNK        -0.1800 
     44 N          -1.0131  -16.0383  -42.6409 N.am      6 UNK        -0.5000 
     45 C          -0.9794  -16.3937  -43.9330 C.2       5 UNK         0.5000 
     46 O          -0.6850  -17.5223  -44.3184 O.2       5 UNK        -0.5000 
     47 CA         -1.2634  -15.2919  -44.9715 C.3       5 UNK         0.1400 
     48 CB         -2.7323  -15.3427  -45.4171 C.3       5 UNK        -0.1800 
     49 N          -0.9388  -13.9327  -44.5183 N.am      5 UNK        -0.5000 
     50 C           0.2633  -13.5162  -44.0916 C.2       4 UNK         0.5000 
     51 O           1.2350  -14.2638  -43.9807 O.2       4 UNK        -0.5000 
     52 CA          0.3868  -12.0302  -43.7174 C.3       4 UNK         0.1400 
     53 CB          1.8487  -11.5561  -43.5943 C.3       4 UNK        -0.1800 
     54 N          -0.3348  -11.2046  -44.6816 N.am      4 UNK        -0.5000 
     55 C          -0.8609  -10.0011  -44.4311 C.2       3 UNK         0.5000 
     56 O          -0.8313   -9.4577  -43.3249 O.2       3 UNK        -0.5000 
     57 CA         -1.5204   -9.2959  -45.6344 C.3       3 UNK         0.1400 
     58 CB         -1.9559   -7.8460  -45.3342 C.3       3 UNK        -0.1800 
     59 N          -0.6843   -9.3584  -46.8388 N.am      3 UNK        -0.5000 
     60 C           0.5402   -8.8374  -47.0165 C.2       2 UNK         0.5000 
     61 O           1.1311   -8.1556  -46.1772 O.2       2 UNK        -0.5000 
     62 CA          1.2016   -9.1407  -48.3793 C.3       2 UNK         0.1400 
     63 CB          2.7017   -8.7784  -48.4264 C.3       2 UNK        -0.1800 
     64 N           0.9733  -10.5238  -48.8196 N.am      2 UNK        -0.5000 
     65 C           1.3994  -11.6465  -48.2177 C.2       1 UNK         0.5000 
     66 O           2.1177  -11.6622  -47.2182 O.2       1 UNK        -0.5000 
     67 C          -2.8173  -21.8557  -48.6124 C.2       11 UNK         0.5000 
     68 O          -3.5335  -21.9457  -49.6064 O.2       11 UNK        -0.5000 
     69 N          -3.2494  -21.3958  -47.4301 N.am      12 UNK        -0.5000 
     70 CA         -4.6350  -21.0247  -47.1467 C.3       12 UNK         0.1400 
     71 CB         -4.6573  -19.9426  -46.0556 C.3       12 UNK        -0.1800 
     72 C          -5.4668  -22.2486  -46.7230 C.2       12 UNK         0.5000 
     73 O          -6.6197  -22.3730  -47.1346 O.2       12 UNK        -0.5000 
     74 N          -4.8596  -23.1371  -45.9239 N.am      13 UNK        -0.5000 
     75 CA         -5.4691  -24.3495  -45.3705 C.3       13 UNK         0.1400 
     76 CB         -4.6214  -24.8203  -44.1774 C.3       13 UNK        -0.1800 
     77 C          -5.6462  -25.4983  -46.3844 C.2       13 UNK         0.5000 
     78 O          -6.2738  -26.5006  -46.0406 O.2       13 UNK        -0.5000 
     79 N          -5.0859  -25.3464  -47.5928 N.am      14 UNK        -0.5000 
     80 CA         -5.0854  -26.3125  -48.6965 C.3       14 UNK         0.1400 
     81 CB         -6.5165  -26.6652  -49.1565 C.3       14 UNK        -0.1800 
     82 C          -4.1979  -27.5461  -48.4323 C.2       14 UNK         0.5000 
     83 O          -4.4727  -28.6264  -48.9573 O.2       14 UNK        -0.5000 
     84 N          -3.1377  -27.3573  -47.6369 N.am      15 UNK        -0.5000 
     85 CA         -2.1195  -28.3663  -47.3461 C.3       15 UNK         0.1400 
     86 CB         -1.6710  -28.2188  -45.8845 C.3       15 UNK        -0.1800 
     87 C          -0.9190  -28.2544  -48.3049 C.2       15 UNK         0.5000 
     88 O          -0.3050  -29.2749  -48.6191 O.2       15 UNK        -0.5000 
     89 N          -0.6166  -27.0306  -48.7599 N.am      16 UNK        -0.5000 
     90 CA          0.3743  -26.7321  -49.7914 C.3       16 UNK         0.1400 
     91 CB          1.2539  -25.5529  -49.3294 C.3       16 UNK        -0.1800 
     92 C          -0.3870  -26.4731  -51.1027 C.2       16 UNK         0.5000 
     93 O          -0.9228  -27.4213  -51.6796 O.2       16 UNK        -0.5000 
     94 N          -0.4612  -25.2075  -51.5393 N.am      17 UNK        -0.5000 
     95 CA         -1.3548  -24.7623  -52.6108 C.3       17 UNK         0.1400 
     96 CB         -1.0210  -23.3122  -52.9843 C.3       17 UNK        -0.1800 
     97 C          -2.8225  -24.8802  -52.1640 C.2       17 UNK         0.5000 
     98 O          -3.1173  -24.6258  -50.9958 O.2       17 UNK        -0.5000 
     99 N          -3.7065  -25.2792  -53.0843 N.am      18 UNK        -0.5000 
    100 CA        -5.1093  -25.6037  -52.8223 C.3       18 UNK         0.1400 
    101 CB        -5.6352  -26.4690  -53.9816 C.3       18 UNK        -0.1800 
    102 C         -5.9825  -24.3554  -52.5751 C.2       18 UNK         0.5000 
    103 O         -6.7608  -23.9717  -53.4500 O.2       18 UNK        -0.5000 
    104 N         -5.8290  -23.7533  -51.3865 N.am      19 UNK        -0.5000 
    105 CA        -6.5240  -22.5567  -50.8958 C.3       19 UNK         0.1400 
    106 CB        -8.0362  -22.8154  -50.7315 C.3       19 UNK        -0.1800 
    107 C         -6.2004  -21.3317  -51.7722 C.2       19 UNK         0.5000 
    108 O         -7.0943  -20.7100  -52.3502 O.2       19 UNK        -0.5000 
    109 N         -4.9012  -21.0441  -51.8787 N.am      20 UNK        -0.5000 
    110 CA        -4.3219  -20.0284  -52.7427 C.3       20 UNK         0.1400 
    111 CB        -4.0602  -20.6228  -54.1393 C.3       20 UNK        -0.1800 
    112 C         -3.0595  -19.4683  -52.0750 C.2       20 UNK         0.5000 
    113 O         -1.9459  -19.7132  -52.5378 O.2       20 UNK        -0.5000 
    114 N         -3.2578  -18.7106  -50.9897 N.am      21 UNK        -0.5000 
    115 CA        -2.2365  -17.8700  -50.3622 C.3       21 UNK         0.1400 
    116 CB        -2.5998  -17.6696  -48.8792 C.3       21 UNK        -0.1800 
    117 C         -2.1348  -16.5447  -51.1448 C.2       21 UNK         0.5000 
    118 O         -2.5846  -15.5018  -50.6709 O.2       21 UNK        -0.5000 
    119 N         -1.6139  -16.6377  -52.3726 N.am      22 UNK        -0.5000 
    120 CA        -1.5637  -15.5826  -53.3990 C.3       22 UNK         0.1400 
    121 C         -0.6525  -14.3507  -53.1129 C.2       22 UNK         0.5000 
    122 N          0.0142  -14.2508  -51.9730 N.am      22 UNK        -0.7600 
    123 O         -0.5581  -13.4481  -53.9398 O.2       22 UNK        -0.5000 
    124 C124       -1.3649  -16.1624  -54.8355 C.3       23 UNK        -0.0398 
    125 S125       -0.4446  -17.7376  -55.0063 S.3       23 UNK        -0.2404 
    126 C126        1.2476  -17.3344  -54.4614 C.3       23 UNK        -0.0205 
    127 H127       -3.4671  -13.6362  -48.4681 H         1 UNK         0.0600 
    128 H128       -2.9651  -12.7949  -49.9367 H         1 UNK         0.0600 
    129 H129       -3.5273  -11.8706  -48.5410 H         1 UNK         0.0600 
    130 H130       -0.7853  -13.1713  -50.1009 H         1 UNK         0.3000 
    131 H131        1.4132  -13.0449  -49.7936 H         1 UNK         0.0600 
    132 H132        0.8556  -14.1801  -47.0180 H         1 UNK         0.0800 
    133 H133        2.3861  -14.2418  -47.8443 H         1 UNK         0.0800 
    134 H134        3.0277  -16.7161  -48.8924 H         1 UNK         0.0800 
    135 H135        2.8410  -15.4276  -50.0612 H         1 UNK         0.0800 
    136 H136        1.9486  -15.8499  -52.2843 H         1 UNK         0.1150 
    137 H137        1.2058  -19.8808  -53.4985 H         1 UNK         0.1150 
    138 H138        2.1589  -19.0025  -49.4074 H         1 UNK         0.1150 
    139 H139        0.9357  -21.6011  -51.8137 H         1 UNK         0.0800 
    140 H140        2.6322  -21.5314  -51.4158 H         1 UNK         0.0800 
    141 H141       -0.5333  -20.2631  -48.6476 H         1 UNK         0.0800 
    142 H142       -0.8531  -20.8508  -50.2587 H         1 UNK         0.0800 
    143 H143       -1.3101  -23.1289  -49.4121 H         1 UNK         0.0600 
    144 H144       -0.2586  -22.1291  -46.9022 H         1 UNK         0.3000 
    145 H145       -1.2751  -24.9179  -44.9524 H         1 UNK         0.0600 
    146 H146        1.1497  -25.3292  -44.6545 H         1 UNK         0.0600 
    147 H147        0.6473  -25.9133  -46.2313 H         1 UNK         0.0600 
    148 H148        1.5191  -24.3928  -46.1034 H         1 UNK         0.0600 
    149 H149        0.5891  -22.8797  -44.3734 H         1 UNK         0.3000 
    150 H150       -1.5622  -20.1618  -43.7771 H         1 UNK         0.0600 
    151 H151       -1.9477  -21.5447  -41.7153 H         1 UNK         0.0600 
    152 H152       -0.7679  -20.2758  -41.4440 H         1 UNK         0.0600 
    153 H153       -0.2337  -21.9412  -41.6648 H         1 UNK         0.0600 
    154 H154        1.0744  -20.2439  -43.0722 H         1 UNK         0.3000 
    155 H155        3.0410  -20.2534  -44.9052 H         1 UNK         0.0600 
    156 H156        3.5849  -18.4382  -46.5737 H         1 UNK         0.0600 
    157 H157        1.8628  -18.2385  -46.9001 H         1 UNK         0.0600 
    158 H158        2.6709  -19.7562  -47.2888 H         1 UNK         0.0600 
    159 H159        1.4566  -17.8875  -44.1078 H         1 UNK         0.3000 
    160 H160        3.5175  -17.2856  -41.4021 H         1 UNK         0.0600 
    161 H161        3.6195  -15.3924  -43.8084 H         1 UNK         0.0600 
    162 H162        4.9803  -15.9236  -42.8323 H         1 UNK         0.0600 
    163 H163        3.7522  -14.8849  -42.1242 H         1 UNK         0.0600 
    164 H164        1.3937  -15.7814  -42.6908 H         1 UNK         0.3000 
    165 H165       -1.2661  -17.8014  -41.5781 H         1 UNK         0.0600 
    166 H166       -0.4235  -15.2511  -40.0980 H         1 UNK         0.0600 
    167 H167       -2.0522  -15.9278  -40.1540 H         1 UNK         0.0600 
    168 H168       -0.7651  -16.8021  -39.3405 H         1 UNK         0.0600 
    169 H169       -1.2585  -15.0849  -42.4193 H         1 UNK         0.3000 
    170 H170       -0.6411  -15.5075  -45.8412 H         1 UNK         0.0600 
    171 H171       -2.9934  -16.3342  -45.7902 H         1 UNK         0.0600 
    172 H172       -3.4104  -15.1101  -44.5953 H         1 UNK         0.0600 
    173 H173       -2.9249  -14.6350  -46.2227 H         1 UNK         0.0600 
    174 H174       -1.6741  -13.2466  -44.6110 H         1 UNK         0.3000 
    175 H175       -0.0876  -11.9266  -42.7396 H         1 UNK         0.0600 
    176 H176        1.9041  -10.5093  -43.2958 H         1 UNK         0.0600 
    177 H177        2.3881  -12.1347  -42.8434 H         1 UNK         0.0600 
    178 H178        2.3832  -11.6626  -44.5384 H         1 UNK         0.0600 
    179 H179       -0.4495  -11.6015  -45.6122 H         1 UNK         0.3000 
    180 H180       -2.4224   -9.8666  -45.8607 H         1 UNK         0.0600 
    181 H181       -2.6784   -7.8181  -44.5178 H         1 UNK         0.0600 
    182 H182       -1.1130   -7.2182  -45.0441 H         1 UNK         0.0600 
    183 H183       -2.4310   -7.3896  -46.2025 H         1 UNK         0.0600 
    184 H184       -1.0465   -9.9459  -47.5759 H         1 UNK         0.3000 
    185 H185        0.6938   -8.5041  -49.1052 H         1 UNK         0.0600 
    186 H186        3.2762   -9.3181  -47.6732 H         1 UNK         0.0600 
    187 H187        3.1315   -9.0038  -49.4022 H         1 UNK         0.0600 
    188 H188        2.8503   -7.7132  -48.2458 H         1 UNK         0.0600 
    189 H189        0.3758  -10.6277  -49.6280 H         1 UNK         0.3000 
    190 H190       -2.6075  -21.3864  -46.6489 H         1 UNK         0.3000 
    191 H191       -5.0885  -20.6023  -48.0462 H         1 UNK         0.0600 
    192 H192       -5.6793  -19.6286  -45.8401 H         1 UNK         0.0600 
    193 H193       -4.1045  -19.0561  -46.3666 H         1 UNK         0.0600 
    194 H194       -4.2198  -20.2971  -45.1218 H         1 UNK         0.0600 
    195 H195       -3.9292  -22.9143  -45.5775 H         1 UNK         0.3000 
    196 H196       -6.4632  -24.0909  -45.0006 H         1 UNK         0.0600 
    197 H197       -5.0735  -25.6841  -43.6884 H         1 UNK         0.0600 
    198 H198       -4.5267  -24.0365  -43.4256 H         1 UNK         0.0600 
    199 H199       -3.6179  -25.1087  -44.4900 H         1 UNK         0.0600 
    200 H200       -4.5521  -24.5027  -47.7489 H         1 UNK         0.3000 
    201 H201       -4.6157  -25.7980  -49.5261 H         1 UNK         0.0600 
    202 H202       -7.1031  -25.7660  -49.3425 H         1 UNK         0.0600 
    203 H203       -7.0469  -27.2668  -48.4185 H         1 UNK         0.0600 
    204 H204       -6.4994  -27.2375  -50.0844 H         1 UNK         0.0600 
    205 H205       -2.9501  -26.4157  -47.3076 H         1 UNK         0.3000 
    206 H206       -2.5440  -29.3656  -47.4635 H         1 UNK         0.0600 
    207 H207       -2.5048  -28.3802  -45.2011 H         1 UNK         0.0600 
    208 H208       -0.8996  -28.9487  -45.6357 H         1 UNK         0.0600 
    209 H209       -1.2649  -27.2289  -45.6845 H         1 UNK         0.0600 
    210 H210       -1.1924  -26.2515  -48.4573 H         1 UNK         0.3000 
    211 H211        1.0282  -27.5896  -49.9616 H         1 UNK         0.0600 
    212 H212        0.6673  -24.6678  -49.0881 H         1 UNK         0.0600 
    213 H213        1.9773  -25.2755  -50.0972 H         1 UNK         0.0600 
    214 H214        1.8233  -25.8213  -48.4398 H         1 UNK         0.0600 
    215 H215       -0.0093  -24.4850  -51.0005 H         1 UNK         0.3000 
    216 H216       -1.1904  -25.3974  -53.4839 H         1 UNK         0.0600 
    217 H217       -1.6192  -22.9843  -53.8342 H         1 UNK         0.0600 
    218 H218        0.0249  -23.2111  -53.2734 H         1 UNK         0.0600 
    219 H219       -1.2195  -22.6254  -52.1602 H         1 UNK         0.0600 
    220 H220       -3.3887  -25.4321  -54.0303 H         1 UNK         0.3000 
    221 H221       -5.1549  -26.2160  -51.9200 H         1 UNK         0.0600 
    222 H222       -5.5783  -25.9448  -54.9364 H         1 UNK         0.0600 
    223 H223       -5.0655  -27.3941  -54.0727 H         1 UNK         0.0600 
    224 H224       -6.6776  -26.7469  -53.8202 H         1 UNK         0.0600 
    225 H225       -5.0463  -24.0645  -50.8202 H         1 UNK         0.3000 
    226 H226       -6.1254  -22.3483  -49.9029 H         1 UNK         0.0600 
    227 H227       -8.2203  -23.6675  -50.0778 H         1 UNK         0.0600 
    228 H228       -8.5285  -21.9522  -50.2823 H         1 UNK         0.0600 
    229 H229       -8.5269  -23.0104  -51.6852 H         1 UNK         0.0600 
    230 H230       -4.2491  -21.5411  -51.2733 H         1 UNK         0.3000 
    231 H231       -5.0191  -19.1951  -52.8529 H         1 UNK         0.0600 
    232 H232       -3.5800  -19.8928  -54.7923 H         1 UNK         0.0600 
    233 H233       -4.9908  -20.9272  -54.6185 H         1 UNK         0.0600 
    234 H234       -3.4123  -21.4971  -54.0872 H         1 UNK         0.0600 
    235 H235       -4.2057  -18.5652  -50.6741 H         1 UNK         0.3000 
    236 H236       -1.2620  -18.3614  -50.4080 H         1 UNK         0.0600 
    237 H237       -3.5825  -17.2124  -48.7591 H         1 UNK         0.0600 
    238 H238       -2.6044  -18.6197  -48.3459 H         1 UNK         0.0600 
    239 H239       -1.8765  -17.0242  -48.3807 H         1 UNK         0.0600 
    240 H240       -1.2748  -17.5435  -52.6777 H         1 UNK         0.3000 
    241 H241       -2.5617  -15.1403  -53.3941 H         1 UNK         0.0600 
    242 H242       -0.0410  -14.9870  -51.2854 H         1 UNK         0.3800 
    243 H243        0.6333  -13.4665  -51.8552 H         1 UNK         0.3800 
    244 H244       -2.3524  -16.3602  -55.2542 H         1 UNK         0.0800 
    245 H245       -0.9240  -15.4358  -55.5199 H         1 UNK         0.0800 
    246 H246        1.9554  -17.8270  -55.1292 H         1 UNK         0.0800 
    247 H247        1.4256  -16.2629  -54.5637 H         1 UNK         0.0800 
@<TRIPOS>BOND
     1    1    2 1    
     2    1  127 1    
     3    1  128 1    
     4    1  129 1    
     5    2    3 2    
     6    2    4 am   BACKBONE|DICT|INTERRES
     7    4    5 1    
     8    4  130 1    
     9    5    6 1    
    10    5   65 1    
    11    5  131 1    
    12    6    7 1    
    13    6  132 1    
    14    6  133 1    
    15    7    8 1    
    16    8    9 1    
    17    8  134 1    
    18    8  135 1    
    19    9   10 ar   
    20    9   14 ar   
    21   10   11 ar   
    22   10  136 1    
    23   11   12 ar   
    24   11  126 1    
    25   12   13 ar   
    26   12  137 1    
    27   13   14 ar   
    28   13   15 1    
    29   14  138 1    
    30   15   16 1    
    31   15  139 1    
    32   15  140 1    
    33   16   17 1    
    34   17   18 1    
    35   17  141 1    
    36   17  142 1    
    37   18   19 1    
    38   18   67 1    
    39   18  143 1    
    40   19   20 am   BACKBONE|DICT|INTERRES
    41   19  144 1    
    42   20   21 2    
    43   20   22 1    
    44   22   23 1    
    45   22   24 1    
    46   22  145 1    
    47   23  146 1    
    48   23  147 1    
    49   23  148 1    
    50   24   25 am   BACKBONE|DICT|INTERRES
    51   24  149 1    
    52   25   26 2    
    53   25   27 1    
    54   27   28 1    
    55   27   29 1    
    56   27  150 1    
    57   28  151 1    
    58   28  152 1    
    59   28  153 1    
    60   29   30 am   BACKBONE|DICT|INTERRES
    61   29  154 1    
    62   30   31 2    
    63   30   32 1    
    64   32   33 1    
    65   32   34 1    
    66   32  155 1    
    67   33  156 1    
    68   33  157 1    
    69   33  158 1    
    70   34   35 am   BACKBONE|DICT|INTERRES
    71   34  159 1    
    72   35   36 2    
    73   35   37 1    
    74   37   38 1    
    75   37   39 1    
    76   37  160 1    
    77   38  161 1    
    78   38  162 1    
    79   38  163 1    
    80   39   40 am   BACKBONE|DICT|INTERRES
    81   39  164 1    
    82   40   41 2    
    83   40   42 1    
    84   42   43 1    
    85   42   44 1    
    86   42  165 1    
    87   43  166 1    
    88   43  167 1    
    89   43  168 1    
    90   44   45 am   BACKBONE|DICT|INTERRES
    91   44  169 1    
    92   45   46 2    
    93   45   47 1    
    94   47   48 1    
    95   47   49 1    
    96   47  170 1    
    97   48  171 1    
    98   48  172 1    
    99   48  173 1    
   100   49   50 am   BACKBONE|DICT|INTERRES
   101   49  174 1    
   102   50   51 2    
   103   50   52 1    
   104   52   53 1    
   105   52   54 1    
   106   52  175 1    
   107   53  176 1    
   108   53  177 1    
   109   53  178 1    
   110   54   55 am   BACKBONE|DICT|INTERRES
   111   54  179 1    
   112   55   56 2    
   113   55   57 1    
   114   57   58 1    
   115   57   59 1    
   116   57  180 1    
   117   58  181 1    
   118   58  182 1    
   119   58  183 1    
   120   59   60 am   BACKBONE|DICT|INTERRES
   121   59  184 1    
   122   60   61 2    
   123   60   62 1    
   124   62   63 1    
   125   62   64 1    
   126   62  185 1    
   127   63  186 1    
   128   63  187 1    
   129   63  188 1    
   130   64   65 am   BACKBONE|DICT|INTERRES
   131   64  189 1    
   132   65   66 2    
   133   67   68 2    
   134   67   69 am   BACKBONE|DICT|INTERRES
   135   69   70 1    
   136   69  190 1    
   137   70   71 1    
   138   70   72 1    
   139   70  191 1    
   140   71  192 1    
   141   71  193 1    
   142   71  194 1    
   143   72   73 2    
   144   72   74 am   BACKBONE|DICT|INTERRES
   145   74   75 1    
   146   74  195 1    
   147   75   76 1    
   148   75   77 1    
   149   75  196 1    
   150   76  197 1    
   151   76  198 1    
   152   76  199 1    
   153   77   78 2    
   154   77   79 am   BACKBONE|DICT|INTERRES
   155   79   80 1    
   156   79  200 1    
   157   80   81 1    
   158   80   82 1    
   159   80  201 1    
   160   81  202 1    
   161   81  203 1    
   162   81  204 1    
   163   82   83 2    
   164   82   84 am   BACKBONE|DICT|INTERRES
   165   84   85 1    
   166   84  205 1    
   167   85   86 1    
   168   85   87 1    
   169   85  206 1    
   170   86  207 1    
   171   86  208 1    
   172   86  209 1    
   173   87   88 2    
   174   87   89 am   BACKBONE|DICT|INTERRES
   175   89   90 1    
   176   89  210 1    
   177   90   91 1    
   178   90   92 1    
   179   90  211 1    
   180   91  212 1    
   181   91  213 1    
   182   91  214 1    
   183   92   93 2    
   184   92   94 am   BACKBONE|DICT|INTERRES
   185   94   95 1    
   186   94  215 1    
   187   95   96 1    
   188   95   97 1    
   189   95  216 1    
   190   96  217 1    
   191   96  218 1    
   192   96  219 1    
   193   97   98 2    
   194   97   99 am   BACKBONE|DICT|INTERRES
   195   99  100 1    
   196   99  220 1    
   197  100  101 1    
   198  100  102 1    
   199  100  221 1    
   200  101  222 1    
   201  101  223 1    
   202  101  224 1    
   203  102  103 2    
   204  102  104 am   BACKBONE|DICT|INTERRES
   205  104  105 1    
   206  104  225 1    
   207  105  106 1    
   208  105  107 1    
   209  105  226 1    
   210  106  227 1    
   211  106  228 1    
   212  106  229 1    
   213  107  108 2    
   214  107  109 am   BACKBONE|DICT|INTERRES
   215  109  110 1    
   216  109  230 1    
   217  110  111 1    
   218  110  112 1    
   219  110  231 1    
   220  111  232 1    
   221  111  233 1    
   222  111  234 1    
   223  112  113 2    
   224  112  114 am   BACKBONE|DICT|INTERRES
   225  114  115 1    
   226  114  235 1    
   227  115  116 1    
   228  115  117 1    
   229  115  236 1    
   230  116  237 1    
   231  116  238 1    
   232  116  239 1    
   233  117  118 2    
   234  117  119 am   BACKBONE|DICT|INTERRES
   235  119  120 1    
   236  119  240 1    
   237  120  121 1    
   238  120  124 1    
   239  120  241 1    
   240  121  122 am   BACKBONE|DICT|INTERRES
   241  121  123 2    
   242  122  242 1    
   243  122  243 1    
   244  124  125 1    
   245  124  244 1    
   246  124  245 1    
   247  125  126 1    
   248  126  246 1    
   249  126  247 1    
@<TRIPOS>SUBSTRUCTURE
     1 UNK         1 GROUP             0       ****    0 ROOT    
