@<TRIPOS>MOLECULE
3R540
247   249    1
SMALL
USER_CHARGES


@<TRIPOS>ATOM
      1 CA          0.1488  -12.7361  -48.6622 C.3       0 UNK        -0.1800 
      2 C           1.6210  -12.5359  -48.3311 C.2       0 UNK         0.5000 
      3 O           1.9862  -12.5849  -47.1562 O.2       0 UNK        -0.5000 
      4 N           2.4375  -12.2721  -49.3639 N.am      1 UNK        -0.5000 
      5 CA          3.9003  -12.0767  -49.3778 C.3       1 UNK         0.1400 
      6 C6          4.7102  -13.3914  -49.5548 C.3       23 UNK        -0.0398 
      7 S7          4.6156  -14.5983  -48.1850 S.3       23 UNK        -0.2404 
      8 C8          5.2597  -16.0972  -49.0027 C.3       23 UNK        -0.0205 
      9 C9          4.1449  -17.0560  -49.3987 C.ar      23 UNK        -0.0193 
     10 C10         3.2313  -16.7078  -50.3963 C.ar      23 UNK        -0.1150 
     11 C11         2.1653  -17.5520  -50.7140 C.ar      23 UNK        -0.0193 
     12 C12         2.0487  -18.7841  -50.0657 C.ar      23 UNK        -0.1150 
     13 C13         2.9680  -19.1602  -49.0778 C.ar      23 UNK        -0.0193 
     14 C14         4.0110  -18.2872  -48.7502 C.ar      23 UNK        -0.1150 
     15 C15         2.7935  -20.4498  -48.2813 C.3       23 UNK        -0.0205 
     16 S16         2.7577  -21.9592  -49.2938 S.3       23 UNK        -0.2404 
     17 C17         0.9613  -22.2179  -49.4871 C.3       23 UNK        -0.0398 
     18 CA          0.3634  -23.2039  -48.4572 C.3       11 UNK         0.1400 
     19 N           0.4874  -22.7467  -47.0695 N.am      11 UNK        -0.5000 
     20 C           0.2920  -23.5292  -45.9994 C.2       10 UNK         0.5000 
     21 O           0.0211  -24.7290  -46.0693 O.2       10 UNK        -0.5000 
     22 CA          0.3720  -22.8428  -44.6243 C.3       10 UNK         0.1400 
     23 CB          1.8344  -22.6496  -44.1961 C.3       10 UNK        -0.1800 
     24 N          -0.3242  -21.5541  -44.6047 N.am      10 UNK        -0.5000 
     25 C          -1.6590  -21.4271  -44.6660 C.2       9 UNK         0.5000 
     26 O          -2.4265  -22.3855  -44.7377 O.2       9 UNK        -0.5000 
     27 CA         -2.2472  -20.0012  -44.6882 C.3       9 UNK         0.1400 
     28 CB         -2.5158  -19.5095  -43.2586 C.3       9 UNK        -0.1800 
     29 N          -1.4180  -19.0177  -45.3817 N.am      9 UNK        -0.5000 
     30 C          -0.9649  -19.1225  -46.6377 C.2       8 UNK         0.5000 
     31 O          -1.2142  -20.0667  -47.3871 O.2       8 UNK        -0.5000 
     32 CA         -0.0131  -18.0151  -47.1119 C.3       8 UNK         0.1400 
     33 CB         -0.7975  -16.8646  -47.7539 C.3       8 UNK        -0.1800 
     34 N           0.8754  -17.4983  -46.0646 N.am      8 UNK        -0.5000 
     35 C           1.7287  -18.2268  -45.3248 C.2       7 UNK         0.5000 
     36 O           1.8220  -19.4522  -45.3808 O.2       7 UNK        -0.5000 
     37 CA          2.5910  -17.4501  -44.3159 C.3       7 UNK         0.1400 
     38 CB          3.7249  -16.7014  -45.0328 C.3       7 UNK        -0.1800 
     39 N           1.7821  -16.5047  -43.5492 N.am      7 UNK        -0.5000 
     40 C           0.8843  -16.8615  -42.6186 C.2       6 UNK         0.5000 
     41 O           0.7423  -18.0124  -42.2061 O.2       6 UNK        -0.5000 
     42 CA         -0.0425  -15.7476  -42.0997 C.3       6 UNK         0.1400 
     43 CB          0.5770  -15.0463  -40.8821 C.3       6 UNK        -0.1800 
     44 N          -0.3501  -14.7620  -43.1407 N.am      6 UNK        -0.5000 
     45 C          -1.1205  -15.0200  -44.2103 C.2       5 UNK         0.5000 
     46 O          -1.6586  -16.1129  -44.3944 O.2       5 UNK        -0.5000 
     47 CA         -1.2699  -13.9215  -45.2875 C.3       5 UNK         0.1400 
     48 CB         -2.7137  -13.8057  -45.8184 C.3       5 UNK        -0.1800 
     49 N          -0.7364  -12.6117  -44.9015 N.am      5 UNK        -0.5000 
     50 C          -1.1851  -11.7899  -43.9395 C.2       4 UNK         0.5000 
     51 O          -2.1954  -12.0036  -43.2682 O.2       4 UNK        -0.5000 
     52 CA         -0.3281  -10.5325  -43.6690 C.3       4 UNK         0.1400 
     53 CB         -0.4874  -10.0057  -42.2274 C.3       4 UNK        -0.1800 
     54 N           1.0949  -10.7150  -43.9926 N.am      4 UNK        -0.5000 
     55 C           1.9381  -11.6272  -43.4802 C.2       3 UNK         0.5000 
     56 O           1.5974  -12.4698  -42.6500 O.2       3 UNK        -0.5000 
     57 CA          3.3809  -11.6365  -44.0234 C.3       3 UNK         0.1400 
     58 CB          3.8844  -13.0734  -44.2492 C.3       3 UNK        -0.1800 
     59 N           3.4727  -10.9124  -45.2910 N.am      3 UNK        -0.5000 
     60 C           3.9881   -9.6885  -45.4655 C.2       2 UNK         0.5000 
     61 O           4.4630   -9.0172  -44.5483 O.2       2 UNK        -0.5000 
     62 CA          3.9230   -9.0967  -46.8934 C.3       2 UNK         0.1400 
     63 CB          5.1523   -8.2270  -47.2315 C.3       2 UNK        -0.1800 
     64 N           3.6731  -10.0949  -47.9430 N.am      2 UNK        -0.5000 
     65 C           4.4650  -11.1187  -48.3002 C.2       1 UNK         0.5000 
     66 O           5.5851  -11.3115  -47.8242 O.2       1 UNK        -0.5000 
     67 C          -1.1076  -23.4995  -48.7989 C.2       11 UNK         0.5000 
     68 O          -1.3843  -24.5104  -49.4422 O.2       11 UNK        -0.5000 
     69 N          -2.0241  -22.6391  -48.3310 N.am      12 UNK        -0.5000 
     70 CA         -3.4676  -22.8084  -48.4796 C.3       12 UNK         0.1400 
     71 CB         -4.1988  -21.5719  -47.9428 C.3       12 UNK        -0.1800 
     72 C          -3.9825  -24.0866  -47.7989 C.2       12 UNK         0.5000 
     73 O          -4.7728  -24.8061  -48.4046 O.2       12 UNK        -0.5000 
     74 N          -3.4966  -24.3776  -46.5831 N.am      13 UNK        -0.5000 
     75 CA         -3.7955  -25.6081  -45.8484 C.3       13 UNK         0.1400 
     76 CB         -3.2108  -25.5286  -44.4304 C.3       13 UNK        -0.1800 
     77 C          -3.2974  -26.8695  -46.5760 C.2       13 UNK         0.5000 
     78 O          -4.0464  -27.8415  -46.6778 O.2       13 UNK        -0.5000 
     79 N          -2.0700  -26.8163  -47.1147 N.am      14 UNK        -0.5000 
     80 CA         -1.4757  -27.8827  -47.9272 C.3       14 UNK         0.1400 
     81 CB          0.0022  -27.5598  -48.1941 C.3       14 UNK        -0.1800 
     82 C          -2.2340  -28.1278  -49.2482 C.2       14 UNK         0.5000 
     83 O          -2.3721  -29.2766  -49.6692 O.2       14 UNK        -0.5000 
     84 N          -2.7463  -27.0479  -49.8512 N.am      15 UNK        -0.5000 
     85 CA         -3.5869  -27.0538  -51.0494 C.3       15 UNK         0.1400 
     86 CB         -3.4394  -25.6933  -51.7498 C.3       15 UNK        -0.1800 
     87 C          -5.0742  -27.3583  -50.7647 C.2       15 UNK         0.5000 
     88 O          -5.8741  -27.3314  -51.7012 O.2       15 UNK        -0.5000 
     89 N          -5.4380  -27.6048  -49.4951 N.am      16 UNK        -0.5000 
     90 CA         -6.7929  -27.8749  -48.9941 C.3       16 UNK         0.1400 
     91 CB         -7.2821  -29.2538  -49.4845 C.3       16 UNK        -0.1800 
     92 C          -7.7969  -26.7376  -49.2968 C.2       16 UNK         0.5000 
     93 O          -8.9730  -26.9984  -49.5571 O.2       16 UNK        -0.5000 
     94 N          -7.2942  -25.4949  -49.2775 N.am      17 UNK        -0.5000 
     95 CA         -7.9633  -24.2253  -49.5781 C.3       17 UNK         0.1400 
     96 CB         -9.0978  -23.9490  -48.5694 C.3       17 UNK        -0.1800 
     97 C          -8.4259  -24.0693  -51.0444 C.2       17 UNK         0.5000 
     98 O          -9.1562  -23.1228  -51.3449 O.2       17 UNK        -0.5000 
     99 N          -7.9905  -24.9663  -51.9418 N.am      18 UNK        -0.5000 
    100 CA        -8.3372  -24.9381  -53.3652 C.3       18 UNK         0.1400 
    101 CB        -8.2025  -26.3561  -53.9420 C.3       18 UNK        -0.1800 
    102 C         -7.4786  -23.9472  -54.1746 C.2       18 UNK         0.5000 
    103 O         -7.8763  -23.5682  -55.2775 O.2       18 UNK        -0.5000 
    104 N         -6.3213  -23.5540  -53.6305 N.am      19 UNK        -0.5000 
    105 CA        -5.3376  -22.6702  -54.2458 C.3       19 UNK         0.1400 
    106 CB        -4.5546  -23.4405  -55.3307 C.3       19 UNK        -0.1800 
    107 C         -4.3960  -22.1294  -53.1570 C.2       19 UNK         0.5000 
    108 O         -4.5317  -22.4990  -51.9889 O.2       19 UNK        -0.5000 
    109 N         -3.4521  -21.2723  -53.5722 N.am      20 UNK        -0.5000 
    110 CA        -2.2977  -20.7580  -52.8183 C.3       20 UNK         0.1400 
    111 CB        -1.3786  -21.9125  -52.3777 C.3       20 UNK        -0.1800 
    112 C         -2.6165  -19.8038  -51.6469 C.2       20 UNK         0.5000 
    113 O         -1.6908  -19.3501  -50.9711 O.2       20 UNK        -0.5000 
    114 N         -3.8948  -19.4598  -51.4533 N.am      21 UNK        -0.5000 
    115 CA        -4.3711  -18.4750  -50.4830 C.3       21 UNK         0.1400 
    116 CB        -5.8355  -18.7998  -50.1337 C.3       21 UNK        -0.1800 
    117 C         -4.1899  -17.0456  -51.0345 C.2       21 UNK         0.5000 
    118 O         -5.1728  -16.3626  -51.3274 O.2       21 UNK        -0.5000 
    119 N         -2.9273  -16.6387  -51.2112 N.am      22 UNK        -0.5000 
    120 CA        -2.5253  -15.3452  -51.7898 C.3       22 UNK         0.1400 
    121 C         -2.7710  -14.0944  -50.8901 C.2       22 UNK         0.5000 
    122 N         -3.1318  -14.2432  -49.6208 N.am      22 UNK        -0.7600 
    123 O         -2.6461  -12.9666  -51.3604 O.2       22 UNK        -0.5000 
    124 C124       -1.0768  -15.3941  -52.3439 C.3       23 UNK        -0.0398 
    125 S125        0.1842  -15.6800  -51.0554 S.3       23 UNK        -0.2404 
    126 C126        1.1142  -17.0989  -51.7162 C.3       23 UNK        -0.0205 
    127 H127       -0.0665  -12.5177  -49.7086 H         1 UNK         0.0600 
    128 H128       -0.1435  -13.7666  -48.4692 H         1 UNK         0.0600 
    129 H129       -0.4703  -12.0840  -48.0462 H         1 UNK         0.0600 
    130 H130        2.0158  -12.2310  -50.2811 H         1 UNK         0.3000 
    131 H131        4.0676  -11.5202  -50.3014 H         1 UNK         0.0600 
    132 H132        4.3784  -13.8772  -50.4708 H         1 UNK         0.0800 
    133 H133        5.7636  -13.1619  -49.7249 H         1 UNK         0.0800 
    134 H134        5.8457  -15.8320  -49.8838 H         1 UNK         0.0800 
    135 H135        5.9533  -16.5862  -48.3170 H         1 UNK         0.0800 
    136 H136        3.3132  -15.7558  -50.8974 H         1 UNK         0.1150 
    137 H137        1.2142  -19.4247  -50.3056 H         1 UNK         0.1150 
    138 H138        4.7075  -18.5553  -47.9683 H         1 UNK         0.1150 
    139 H139        3.5937  -20.5562  -47.5474 H         1 UNK         0.0800 
    140 H140        1.8719  -20.3866  -47.7089 H         1 UNK         0.0800 
    141 H141        0.8225  -22.6160  -50.4926 H         1 UNK         0.0800 
    142 H142        0.4290  -21.2668  -49.4557 H         1 UNK         0.0800 
    143 H143        0.9098  -24.1458  -48.5447 H         1 UNK         0.0600 
    144 H144        0.6503  -21.7615  -46.9239 H         1 UNK         0.3000 
    145 H145       -0.1083  -23.4992  -43.8953 H         1 UNK         0.0600 
    146 H146        1.9000  -22.1817  -43.2137 H         1 UNK         0.0600 
    147 H147        2.3508  -23.6084  -44.1358 H         1 UNK         0.0600 
    148 H148        2.3851  -22.0267  -44.9016 H         1 UNK         0.0600 
    149 H149        0.2536  -20.7211  -44.6035 H         1 UNK         0.3000 
    150 H150       -3.2015  -20.0450  -45.2146 H         1 UNK         0.0600 
    151 H151       -3.1728  -20.1976  -42.7251 H         1 UNK         0.0600 
    152 H152       -3.0001  -18.5326  -43.2609 H         1 UNK         0.0600 
    153 H153       -1.5926  -19.4239  -42.6842 H         1 UNK         0.0600 
    154 H154       -1.1937  -18.1739  -44.8670 H         1 UNK         0.3000 
    155 H155        0.6176  -18.4465  -47.8821 H         1 UNK         0.0600 
    156 H156       -1.5168  -16.4276  -47.0635 H         1 UNK         0.0600 
    157 H157       -1.3526  -17.2170  -48.6243 H         1 UNK         0.0600 
    158 H158       -0.1267  -16.0776  -48.0949 H         1 UNK         0.0600 
    159 H159        0.8658  -16.5008  -45.9270 H         1 UNK         0.3000 
    160 H160        3.0379  -18.1685  -43.6252 H         1 UNK         0.0600 
    161 H161        3.3414  -15.9622  -45.7367 H         1 UNK         0.0600 
    162 H162        4.3523  -17.3923  -45.5974 H         1 UNK         0.0600 
    163 H163        4.3699  -16.1851  -44.3216 H         1 UNK         0.0600 
    164 H164        1.8433  -15.5307  -43.8046 H         1 UNK         0.3000 
    165 H165       -0.9797  -16.2110  -41.7838 H         1 UNK         0.0600 
    166 H166        1.5557  -14.6243  -41.1125 H         1 UNK         0.0600 
    167 H167       -0.0612  -14.2387  -40.5227 H         1 UNK         0.0600 
    168 H168        0.7114  -15.7479  -40.0579 H         1 UNK         0.0600 
    169 H169        0.0890  -13.8524  -43.0462 H         1 UNK         0.3000 
    170 H170       -0.6463  -14.2500  -46.1190 H         1 UNK         0.0600 
    171 H171       -3.4186  -13.5471  -45.0281 H         1 UNK         0.0600 
    172 H172       -3.0514  -14.7464  -46.2538 H         1 UNK         0.0600 
    173 H173       -2.7866  -13.0458  -46.5961 H         1 UNK         0.0600 
    174 H174        0.1148  -12.3405  -45.3762 H         1 UNK         0.3000 
    175 H175       -0.7012   -9.7626  -44.3457 H         1 UNK         0.0600 
    176 H176        0.1213   -9.1165  -42.0631 H         1 UNK         0.0600 
    177 H177       -1.5224   -9.7301  -42.0218 H         1 UNK         0.0600 
    178 H178       -0.1952  -10.7531  -41.4889 H         1 UNK         0.0600 
    179 H179        1.4695  -10.0856  -44.6873 H         1 UNK         0.3000 
    180 H180        4.0139  -11.1677  -43.2678 H         1 UNK         0.0600 
    181 H181        3.2496  -13.6133  -44.9522 H         1 UNK         0.0600 
    182 H182        3.9028  -13.6392  -43.3169 H         1 UNK         0.0600 
    183 H183        4.8985  -13.0768  -44.6497 H         1 UNK         0.0600 
    184 H184        3.0832  -11.3999  -46.0946 H         1 UNK         0.3000 
    185 H185        3.0523   -8.4397  -46.8983 H         1 UNK         0.0600 
    186 H186        5.0829   -7.8208  -48.2407 H         1 UNK         0.0600 
    187 H187        5.2324   -7.3807  -46.5484 H         1 UNK         0.0600 
    188 H188        6.0827   -8.7906  -47.1590 H         1 UNK         0.0600 
    189 H189        2.7710  -10.0321  -48.3943 H         1 UNK         0.3000 
    190 H190       -1.7120  -21.7953  -47.8553 H         1 UNK         0.3000 
    191 H191       -3.6778  -22.8901  -49.5468 H         1 UNK         0.0600 
    192 H192       -3.8382  -20.6639  -48.4242 H         1 UNK         0.0600 
    193 H193       -5.2704  -21.6425  -48.1321 H         1 UNK         0.0600 
    194 H194       -4.0623  -21.4595  -46.8681 H         1 UNK         0.0600 
    195 H195       -2.8947  -23.7065  -46.1156 H         1 UNK         0.3000 
    196 H196       -4.8812  -25.6856  -45.7613 H         1 UNK         0.0600 
    197 H197       -3.4117  -26.4436  -43.8718 H         1 UNK         0.0600 
    198 H198       -3.6513  -24.7041  -43.8699 H         1 UNK         0.0600 
    199 H199       -2.1304  -25.3825  -44.4464 H         1 UNK         0.0600 
    200 H200       -1.5062  -25.9869  -46.9663 H         1 UNK         0.3000 
    201 H201       -1.5201  -28.8060  -47.3458 H         1 UNK         0.0600 
    202 H202        0.5547  -27.4419  -47.2617 H         1 UNK         0.0600 
    203 H203        0.1180  -26.6409  -48.7688 H         1 UNK         0.0600 
    204 H204        0.4808  -28.3615  -48.7578 H         1 UNK         0.0600 
    205 H205       -2.5217  -26.1332  -49.4706 H         1 UNK         0.3000 
    206 H206       -3.2253  -27.8266  -51.7304 H         1 UNK         0.0600 
    207 H207       -2.3999  -25.4902  -52.0078 H         1 UNK         0.0600 
    208 H208       -4.0165  -25.6541  -52.6745 H         1 UNK         0.0600 
    209 H209       -3.7865  -24.8825  -51.1095 H         1 UNK         0.0600 
    210 H210       -4.7182  -27.5645  -48.7839 H         1 UNK         0.3000 
    211 H211       -6.7096  -27.9214  -47.9069 H         1 UNK         0.0600 
    212 H212       -7.4451  -29.2651  -50.5633 H         1 UNK         0.0600 
    213 H213       -8.2243  -29.5273  -49.0077 H         1 UNK         0.0600 
    214 H214       -6.5604  -30.0358  -49.2459 H         1 UNK         0.0600 
    215 H215       -6.3081  -25.3951  -49.0321 H         1 UNK         0.3000 
    216 H216       -7.2031  -23.4568  -49.4297 H         1 UNK         0.0600 
    217 H217       -8.7431  -24.0425  -47.5424 H         1 UNK         0.0600 
    218 H218       -9.9339  -24.6363  -48.7009 H         1 UNK         0.0600 
    219 H219       -9.4879  -22.9369  -48.6846 H         1 UNK         0.0600 
    220 H220       -7.3895  -25.7234  -51.6357 H         1 UNK         0.3000 
    221 H221       -9.3810  -24.6329  -53.4683 H         1 UNK         0.0600 
    222 H222       -7.1658  -26.6947  -53.9410 H         1 UNK         0.0600 
    223 H223       -8.7916  -27.0741  -53.3709 H         1 UNK         0.0600 
    224 H224       -8.5555  -26.3918  -54.9736 H         1 UNK         0.0600 
    225 H225       -6.0828  -23.8510  -52.6926 H         1 UNK         0.3000 
    226 H226       -5.8546  -21.8203  -54.6963 H         1 UNK         0.0600 
    227 H227       -5.2186  -23.8316  -56.1019 H         1 UNK         0.0600 
    228 H228       -3.8306  -22.7998  -55.8348 H         1 UNK         0.0600 
    229 H229       -4.0074  -24.2828  -54.9051 H         1 UNK         0.0600 
    230 H230       -3.4651  -21.0032  -54.5464 H         1 UNK         0.3000 
    231 H231       -1.7332  -20.1556  -53.5326 H         1 UNK         0.0600 
    232 H232       -0.4277  -21.5195  -52.0196 H         1 UNK         0.0600 
    233 H233       -1.1568  -22.5855  -53.2064 H         1 UNK         0.0600 
    234 H234       -1.8241  -22.5020  -51.5751 H         1 UNK         0.0600 
    235 H235       -4.5897  -19.8709  -52.0591 H         1 UNK         0.3000 
    236 H236       -3.7813  -18.5522  -49.5670 H         1 UNK         0.0600 
    237 H237       -6.2208  -18.1070  -49.3842 H         1 UNK         0.0600 
    238 H238       -6.4842  -18.7349  -51.0083 H         1 UNK         0.0600 
    239 H239       -5.9310  -19.8060  -49.7256 H         1 UNK         0.0600 
    240 H240       -2.1775  -17.2782  -50.9729 H         1 UNK         0.3000 
    241 H241       -3.1720  -15.1880  -52.6554 H         1 UNK         0.0600 
    242 H242       -3.2528  -15.1617  -49.2296 H         1 UNK         0.3800 
    243 H243       -3.3051  -13.4252  -49.0602 H         1 UNK         0.3800 
    244 H244       -1.0044  -16.1759  -53.1011 H         1 UNK         0.0800 
    245 H245       -0.8339  -14.4641  -52.8609 H         1 UNK         0.0800 
    246 H246        1.5979  -16.8171  -52.6524 H         1 UNK         0.0800 
    247 H247        0.4243  -17.9118  -51.9469 H         1 UNK         0.0800 
@<TRIPOS>BOND
     1    1    2 1    
     2    1  127 1    
     3    1  128 1    
     4    1  129 1    
     5    2    3 2    
     6    2    4 am   BACKBONE|DICT|INTERRES
     7    4    5 1    
     8    4  130 1    
     9    5    6 1    
    10    5   65 1    
    11    5  131 1    
    12    6    7 1    
    13    6  132 1    
    14    6  133 1    
    15    7    8 1    
    16    8    9 1    
    17    8  134 1    
    18    8  135 1    
    19    9   10 ar   
    20    9   14 ar   
    21   10   11 ar   
    22   10  136 1    
    23   11   12 ar   
    24   11  126 1    
    25   12   13 ar   
    26   12  137 1    
    27   13   14 ar   
    28   13   15 1    
    29   14  138 1    
    30   15   16 1    
    31   15  139 1    
    32   15  140 1    
    33   16   17 1    
    34   17   18 1    
    35   17  141 1    
    36   17  142 1    
    37   18   19 1    
    38   18   67 1    
    39   18  143 1    
    40   19   20 am   BACKBONE|DICT|INTERRES
    41   19  144 1    
    42   20   21 2    
    43   20   22 1    
    44   22   23 1    
    45   22   24 1    
    46   22  145 1    
    47   23  146 1    
    48   23  147 1    
    49   23  148 1    
    50   24   25 am   BACKBONE|DICT|INTERRES
    51   24  149 1    
    52   25   26 2    
    53   25   27 1    
    54   27   28 1    
    55   27   29 1    
    56   27  150 1    
    57   28  151 1    
    58   28  152 1    
    59   28  153 1    
    60   29   30 am   BACKBONE|DICT|INTERRES
    61   29  154 1    
    62   30   31 2    
    63   30   32 1    
    64   32   33 1    
    65   32   34 1    
    66   32  155 1    
    67   33  156 1    
    68   33  157 1    
    69   33  158 1    
    70   34   35 am   BACKBONE|DICT|INTERRES
    71   34  159 1    
    72   35   36 2    
    73   35   37 1    
    74   37   38 1    
    75   37   39 1    
    76   37  160 1    
    77   38  161 1    
    78   38  162 1    
    79   38  163 1    
    80   39   40 am   BACKBONE|DICT|INTERRES
    81   39  164 1    
    82   40   41 2    
    83   40   42 1    
    84   42   43 1    
    85   42   44 1    
    86   42  165 1    
    87   43  166 1    
    88   43  167 1    
    89   43  168 1    
    90   44   45 am   BACKBONE|DICT|INTERRES
    91   44  169 1    
    92   45   46 2    
    93   45   47 1    
    94   47   48 1    
    95   47   49 1    
    96   47  170 1    
    97   48  171 1    
    98   48  172 1    
    99   48  173 1    
   100   49   50 am   BACKBONE|DICT|INTERRES
   101   49  174 1    
   102   50   51 2    
   103   50   52 1    
   104   52   53 1    
   105   52   54 1    
   106   52  175 1    
   107   53  176 1    
   108   53  177 1    
   109   53  178 1    
   110   54   55 am   BACKBONE|DICT|INTERRES
   111   54  179 1    
   112   55   56 2    
   113   55   57 1    
   114   57   58 1    
   115   57   59 1    
   116   57  180 1    
   117   58  181 1    
   118   58  182 1    
   119   58  183 1    
   120   59   60 am   BACKBONE|DICT|INTERRES
   121   59  184 1    
   122   60   61 2    
   123   60   62 1    
   124   62   63 1    
   125   62   64 1    
   126   62  185 1    
   127   63  186 1    
   128   63  187 1    
   129   63  188 1    
   130   64   65 am   BACKBONE|DICT|INTERRES
   131   64  189 1    
   132   65   66 2    
   133   67   68 2    
   134   67   69 am   BACKBONE|DICT|INTERRES
   135   69   70 1    
   136   69  190 1    
   137   70   71 1    
   138   70   72 1    
   139   70  191 1    
   140   71  192 1    
   141   71  193 1    
   142   71  194 1    
   143   72   73 2    
   144   72   74 am   BACKBONE|DICT|INTERRES
   145   74   75 1    
   146   74  195 1    
   147   75   76 1    
   148   75   77 1    
   149   75  196 1    
   150   76  197 1    
   151   76  198 1    
   152   76  199 1    
   153   77   78 2    
   154   77   79 am   BACKBONE|DICT|INTERRES
   155   79   80 1    
   156   79  200 1    
   157   80   81 1    
   158   80   82 1    
   159   80  201 1    
   160   81  202 1    
   161   81  203 1    
   162   81  204 1    
   163   82   83 2    
   164   82   84 am   BACKBONE|DICT|INTERRES
   165   84   85 1    
   166   84  205 1    
   167   85   86 1    
   168   85   87 1    
   169   85  206 1    
   170   86  207 1    
   171   86  208 1    
   172   86  209 1    
   173   87   88 2    
   174   87   89 am   BACKBONE|DICT|INTERRES
   175   89   90 1    
   176   89  210 1    
   177   90   91 1    
   178   90   92 1    
   179   90  211 1    
   180   91  212 1    
   181   91  213 1    
   182   91  214 1    
   183   92   93 2    
   184   92   94 am   BACKBONE|DICT|INTERRES
   185   94   95 1    
   186   94  215 1    
   187   95   96 1    
   188   95   97 1    
   189   95  216 1    
   190   96  217 1    
   191   96  218 1    
   192   96  219 1    
   193   97   98 2    
   194   97   99 am   BACKBONE|DICT|INTERRES
   195   99  100 1    
   196   99  220 1    
   197  100  101 1    
   198  100  102 1    
   199  100  221 1    
   200  101  222 1    
   201  101  223 1    
   202  101  224 1    
   203  102  103 2    
   204  102  104 am   BACKBONE|DICT|INTERRES
   205  104  105 1    
   206  104  225 1    
   207  105  106 1    
   208  105  107 1    
   209  105  226 1    
   210  106  227 1    
   211  106  228 1    
   212  106  229 1    
   213  107  108 2    
   214  107  109 am   BACKBONE|DICT|INTERRES
   215  109  110 1    
   216  109  230 1    
   217  110  111 1    
   218  110  112 1    
   219  110  231 1    
   220  111  232 1    
   221  111  233 1    
   222  111  234 1    
   223  112  113 2    
   224  112  114 am   BACKBONE|DICT|INTERRES
   225  114  115 1    
   226  114  235 1    
   227  115  116 1    
   228  115  117 1    
   229  115  236 1    
   230  116  237 1    
   231  116  238 1    
   232  116  239 1    
   233  117  118 2    
   234  117  119 am   BACKBONE|DICT|INTERRES
   235  119  120 1    
   236  119  240 1    
   237  120  121 1    
   238  120  124 1    
   239  120  241 1    
   240  121  122 am   BACKBONE|DICT|INTERRES
   241  121  123 2    
   242  122  242 1    
   243  122  243 1    
   244  124  125 1    
   245  124  244 1    
   246  124  245 1    
   247  125  126 1    
   248  126  246 1    
   249  126  247 1    
@<TRIPOS>SUBSTRUCTURE
     1 UNK         1 GROUP             0       ****    0 ROOT    
