@<TRIPOS>MOLECULE
3R540
247   249    1
SMALL
USER_CHARGES


@<TRIPOS>ATOM
      1 CA         -8.1660  -14.2354  -44.4133 C.3       0 UNK        -0.1800 
      2 C          -6.7521  -13.7361  -44.6769 C.2       0 UNK         0.5000 
      3 O          -6.4069  -12.6278  -44.2657 O.2       0 UNK        -0.5000 
      4 N          -5.9383  -14.5445  -45.3670 N.am      1 UNK        -0.5000 
      5 CA         -4.5264  -14.2692  -45.6452 C.3       1 UNK         0.1400 
      6 C6         -3.9977  -15.1811  -46.7817 C.3       23 UNK        -0.0398 
      7 S7         -2.3871  -14.6175  -47.4345 S.3       23 UNK        -0.2404 
      8 C8         -2.6986  -14.4912  -49.2202 C.3       23 UNK        -0.0205 
      9 C9         -2.5504  -15.8392  -49.9077 C.ar      23 UNK        -0.0193 
     10 C10        -1.2952  -16.2571  -50.3577 C.ar      23 UNK        -0.1150 
     11 C11        -1.1543  -17.4695  -51.0358 C.ar      23 UNK        -0.0193 
     12 C12        -2.2746  -18.2821  -51.2248 C.ar      23 UNK        -0.1150 
     13 C13        -3.5363  -17.8887  -50.7724 C.ar      23 UNK        -0.0193 
     14 C14        -3.6666  -16.6528  -50.1237 C.ar      23 UNK        -0.1150 
     15 C15        -4.7168  -18.8184  -51.0592 C.3       23 UNK        -0.0205 
     16 S16        -6.2794  -18.4523  -50.1872 S.3       23 UNK        -0.2404 
     17 C17        -5.8889  -18.7022  -48.4212 C.3       23 UNK        -0.0398 
     18 CA         -5.3622  -20.1199  -48.0756 C.3       11 UNK         0.1400 
     19 N          -3.9018  -20.2052  -48.2097 N.am      11 UNK        -0.5000 
     20 C          -3.1671  -21.3146  -48.0500 C.2       10 UNK         0.5000 
     21 O          -3.6520  -22.4291  -47.8634 O.2       10 UNK        -0.5000 
     22 CA         -1.6359  -21.1551  -48.0416 C.3       10 UNK         0.1400 
     23 CB         -1.0606  -21.4762  -49.4244 C.3       10 UNK        -0.1800 
     24 N          -1.1673  -19.8341  -47.6106 N.am      10 UNK        -0.5000 
     25 C          -1.4411  -19.2592  -46.4330 C.2       9 UNK         0.5000 
     26 O          -2.1692  -19.7767  -45.5840 O.2       9 UNK        -0.5000 
     27 CA         -0.8122  -17.8786  -46.1734 C.3       9 UNK         0.1400 
     28 CB         -1.3610  -17.2347  -44.8907 C.3       9 UNK        -0.1800 
     29 N           0.6436  -17.9445  -46.0749 N.am      9 UNK        -0.5000 
     30 C           1.4956  -18.1012  -47.0966 C.2       8 UNK         0.5000 
     31 O           1.1306  -18.2213  -48.2663 O.2       8 UNK        -0.5000 
     32 CA          2.9995  -18.1327  -46.7674 C.3       8 UNK         0.1400 
     33 CB          3.7390  -16.9875  -47.4782 C.3       8 UNK        -0.1800 
     34 N           3.2509  -18.0402  -45.3261 N.am      8 UNK        -0.5000 
     35 C           3.6007  -19.0713  -44.5443 C.2       7 UNK         0.5000 
     36 O           3.7651  -20.2188  -44.9597 O.2       7 UNK        -0.5000 
     37 CA          3.7987  -18.7836  -43.0437 C.3       7 UNK         0.1400 
     38 CB          5.2763  -18.4876  -42.7491 C.3       7 UNK        -0.1800 
     39 N           2.9631  -17.6828  -42.5551 N.am      7 UNK        -0.5000 
     40 C           1.6435  -17.7928  -42.3403 C.2       6 UNK         0.5000 
     41 O           1.0252  -18.8407  -42.5286 O.2       6 UNK        -0.5000 
     42 CA          0.8581  -16.5400  -41.8964 C.3       6 UNK         0.1400 
     43 CB         -0.1607  -16.8401  -40.7788 C.3       6 UNK        -0.1800 
     44 N           1.6782  -15.3712  -41.5755 N.am      6 UNK        -0.5000 
     45 C           2.5041  -15.1770  -40.5401 C.2       5 UNK         0.5000 
     46 O           2.6805  -15.9867  -39.6289 O.2       5 UNK        -0.5000 
     47 CA          3.2854  -13.8448  -40.5820 C.3       5 UNK         0.1400 
     48 CB          4.4362  -13.7799  -39.5560 C.3       5 UNK        -0.1800 
     49 N           3.7651  -13.5328  -41.9375 N.am      5 UNK        -0.5000 
     50 C           4.5907  -14.2856  -42.6821 C.2       4 UNK         0.5000 
     51 O           5.1133  -15.3234  -42.2775 O.2       4 UNK        -0.5000 
     52 CA          4.8156  -13.8244  -44.1379 C.3       4 UNK         0.1400 
     53 CB          5.5666  -14.8701  -44.9886 C.3       4 UNK        -0.1800 
     54 N           3.5699  -13.4209  -44.8025 N.am      4 UNK        -0.5000 
     55 C           2.4716  -14.1677  -44.9873 C.2       3 UNK         0.5000 
     56 O           2.3604  -15.3463  -44.6394 O.2       3 UNK        -0.5000 
     57 CA          1.2898  -13.4667  -45.6821 C.3       3 UNK         0.1400 
     58 CB          1.1481  -13.9724  -47.1258 C.3       3 UNK        -0.1800 
     59 N           0.0162  -13.6497  -44.9801 N.am      3 UNK        -0.5000 
     60 C          -0.2237  -13.3462  -43.6942 C.2       2 UNK         0.5000 
     61 O           0.6332  -12.8885  -42.9356 O.2       2 UNK        -0.5000 
     62 CA         -1.6489  -13.6034  -43.1640 C.3       2 UNK         0.1400 
     63 CB         -2.0628  -12.6055  -42.0673 C.3       2 UNK        -0.1800 
     64 N          -2.6324  -13.5800  -44.2477 N.am      2 UNK        -0.5000 
     65 C          -3.6777  -14.4082  -44.3597 C.2       1 UNK         0.5000 
     66 O          -3.9600  -15.2747  -43.5286 O.2       1 UNK        -0.5000 
     67 C          -5.8504  -20.5448  -46.6722 C.2       11 UNK         0.5000 
     68 O          -6.9232  -21.1384  -46.5657 O.2       11 UNK        -0.5000 
     69 N          -5.0591  -20.2452  -45.6342 N.am      12 UNK        -0.5000 
     70 CA         -5.3413  -20.6084  -44.2485 C.3       12 UNK         0.1400 
     71 CB         -4.9387  -19.4397  -43.3332 C.3       12 UNK        -0.1800 
     72 C          -4.5909  -21.8898  -43.8531 C.2       12 UNK         0.5000 
     73 O          -5.1816  -22.7756  -43.2351 O.2       12 UNK        -0.5000 
     74 N          -3.3017  -21.9613  -44.2099 N.am      13 UNK        -0.5000 
     75 CA         -2.3786  -23.0124  -43.7840 C.3       13 UNK         0.1400 
     76 CB         -0.9378  -22.5199  -43.9943 C.3       13 UNK        -0.1800 
     77 C          -2.5907  -24.3671  -44.4843 C.2       13 UNK         0.5000 
     78 O          -2.2761  -25.3986  -43.8888 O.2       13 UNK        -0.5000 
     79 N          -3.0910  -24.3504  -45.7264 N.am      14 UNK        -0.5000 
     80 CA         -3.2184  -25.5317  -46.5835 C.3       14 UNK         0.1400 
     81 CB         -2.0254  -25.5631  -47.5568 C.3       14 UNK        -0.1800 
     82 C          -4.5592  -25.5733  -47.3378 C.2       14 UNK         0.5000 
     83 O          -4.6826  -26.3378  -48.2944 O.2       14 UNK        -0.5000 
     84 N          -5.5289  -24.7345  -46.9393 N.am      15 UNK        -0.5000 
     85 CA         -6.8554  -24.5740  -47.5561 C.3       15 UNK         0.1400 
     86 CB         -7.7291  -25.8134  -47.2715 C.3       15 UNK        -0.1800 
     87 C          -6.8018  -24.2173  -49.0622 C.2       15 UNK         0.5000 
     88 O          -7.6846  -24.6148  -49.8236 O.2       15 UNK        -0.5000 
     89 N          -5.7424  -23.4959  -49.4583 N.am      16 UNK        -0.5000 
     90 CA         -5.3706  -23.0818  -50.8151 C.3       16 UNK         0.1400 
     91 CB         -6.4803  -22.2419  -51.4809 C.3       16 UNK        -0.1800 
     92 C          -4.8835  -24.2284  -51.7265 C.2       16 UNK         0.5000 
     93 O          -4.6451  -23.9841  -52.9096 O.2       16 UNK        -0.5000 
     94 N          -4.6885  -25.4418  -51.1865 N.am      17 UNK        -0.5000 
     95 CA         -4.2008  -26.6011  -51.9434 C.3       17 UNK         0.1400 
     96 CB         -4.4558  -27.8846  -51.1395 C.3       17 UNK        -0.1800 
     97 C          -2.7105  -26.4924  -52.3220 C.2       17 UNK         0.5000 
     98 O          -2.2924  -27.0895  -53.3143 O.2       17 UNK        -0.5000 
     99 N          -1.9469  -25.7233  -51.5353 N.am      18 UNK        -0.5000 
    100 CA        -0.5173  -25.4678  -51.7204 C.3       18 UNK         0.1400 
    101 CB         0.2201  -25.8236  -50.4167 C.3       18 UNK        -0.1800 
    102 C         -0.2507  -24.0098  -52.1466 C.2       18 UNK         0.5000 
    103 O          0.8458  -23.5032  -51.9069 O.2       18 UNK        -0.5000 
    104 N         -1.2526  -23.3460  -52.7472 N.am      19 UNK        -0.5000 
    105 CA        -1.1805  -21.9504  -53.1932 C.3       19 UNK         0.1400 
    106 CB        -2.5664  -21.4883  -53.6693 C.3       19 UNK        -0.1800 
    107 C         -0.1127  -21.6985  -54.2729 C.2       19 UNK         0.5000 
    108 O          0.5631  -20.6708  -54.2169 O.2       19 UNK        -0.5000 
    109 N          0.0342  -22.6523  -55.2062 N.am      20 UNK        -0.5000 
    110 CA         1.0414  -22.7017  -56.2718 C.3       20 UNK         0.1400 
    111 CB         2.4077  -23.1082  -55.6755 C.3       20 UNK        -0.1800 
    112 C          1.0826  -21.3994  -57.1007 C.2       20 UNK         0.5000 
    113 O          0.1334  -21.1241  -57.8372 O.2       20 UNK        -0.5000 
    114 N          2.1489  -20.6043  -56.9337 N.am      21 UNK        -0.5000 
    115 CA         2.3630  -19.3023  -57.5704 C.3       21 UNK         0.1400 
    116 CB         3.7599  -18.7886  -57.1892 C.3       21 UNK        -0.1800 
    117 C          1.2908  -18.2435  -57.2381 C.2       21 UNK         0.5000 
    118 O          1.0989  -17.3204  -58.0311 O.2       21 UNK        -0.5000 
    119 N          0.5990  -18.3983  -56.1010 N.am      22 UNK        -0.5000 
    120 CA        -0.5709  -17.5879  -55.7277 C.3       22 UNK         0.1400 
    121 C         -1.8678  -17.9474  -56.5154 C.2       22 UNK         0.5000 
    122 N         -1.9187  -19.0324  -57.2812 N.am      22 UNK        -0.7600 
    123 O         -2.8523  -17.2181  -56.4354 O.2       22 UNK        -0.5000 
    124 C124       -0.8451  -17.6211  -54.2036 C.3       23 UNK        -0.0398 
    125 S125        0.5565  -17.0529  -53.1815 S.3       23 UNK        -0.2404 
    126 C126        0.1982  -17.8849  -51.5982 C.3       23 UNK        -0.0205 
    127 H127       -8.8935  -13.5497  -44.8476 H         1 UNK         0.0600 
    128 H128       -8.3489  -14.2937  -43.3404 H         1 UNK         0.0600 
    129 H129       -8.3337  -15.2244  -44.8406 H         1 UNK         0.0600 
    130 H130       -6.2733  -15.4555  -45.6437 H         1 UNK         0.3000 
    131 H131       -4.4627  -13.2334  -45.9870 H         1 UNK         0.0600 
    132 H132       -3.9107  -16.2172  -46.4530 H         1 UNK         0.0800 
    133 H133       -4.7192  -15.1914  -47.5991 H         1 UNK         0.0800 
    134 H134       -1.9833  -13.7866  -49.6469 H         1 UNK         0.0800 
    135 H135       -3.6854  -14.0645  -49.4059 H         1 UNK         0.0800 
    136 H136       -0.4307  -15.6259  -50.2057 H         1 UNK         0.1150 
    137 H137       -2.1697  -19.2161  -51.7564 H         1 UNK         0.1150 
    138 H138       -4.6346  -16.3053  -49.7961 H         1 UNK         0.1150 
    139 H139       -4.9211  -18.7731  -52.1297 H         1 UNK         0.0800 
    140 H140       -4.4330  -19.8511  -50.8563 H         1 UNK         0.0800 
    141 H141       -6.8238  -18.4909  -47.8975 H         1 UNK         0.0800 
    142 H142       -5.1948  -17.9331  -48.0820 H         1 UNK         0.0800 
    143 H143       -5.7999  -20.8320  -48.7747 H         1 UNK         0.0600 
    144 H144       -3.4132  -19.3378  -48.3755 H         1 UNK         0.3000 
    145 H145       -1.2437  -21.8887  -47.3357 H         1 UNK         0.0600 
    146 H146       -1.3889  -22.4579  -49.7677 H         1 UNK         0.0600 
    147 H147        0.0296  -21.4849  -49.4098 H         1 UNK         0.0600 
    148 H148       -1.3799  -20.7432  -50.1618 H         1 UNK         0.0600 
    149 H149       -0.5151  -19.3515  -48.2219 H         1 UNK         0.3000 
    150 H150       -1.0764  -17.2382  -47.0168 H         1 UNK         0.0600 
    151 H151       -2.4487  -17.1784  -44.9120 H         1 UNK         0.0600 
    152 H152       -0.9847  -16.2217  -44.7703 H         1 UNK         0.0600 
    153 H153       -1.0913  -17.8097  -44.0048 H         1 UNK         0.0600 
    154 H154        1.0336  -17.9000  -45.1457 H         1 UNK         0.3000 
    155 H155        3.3884  -19.0731  -47.1625 H         1 UNK         0.0600 
    156 H156        3.3870  -16.0114  -47.1480 H         1 UNK         0.0600 
    157 H157        3.5966  -17.0381  -48.5584 H         1 UNK         0.0600 
    158 H158        4.8117  -17.0374  -47.2915 H         1 UNK         0.0600 
    159 H159        3.1001  -17.1257  -44.9070 H         1 UNK         0.3000 
    160 H160        3.5266  -19.6872  -42.4939 H         1 UNK         0.0600 
    161 H161        5.6482  -17.6557  -43.3475 H         1 UNK         0.0600 
    162 H162        5.8979  -19.3539  -42.9784 H         1 UNK         0.0600 
    163 H163        5.4315  -18.2435  -41.6980 H         1 UNK         0.0600 
    164 H164        3.4208  -16.7925  -42.4019 H         1 UNK         0.3000 
    165 H165        0.2891  -16.2404  -42.7740 H         1 UNK         0.0600 
    166 H166       -0.7233  -15.9469  -40.5069 H         1 UNK         0.0600 
    167 H167        0.3239  -17.2206  -39.8795 H         1 UNK         0.0600 
    168 H168       -0.8839  -17.5905  -41.1004 H         1 UNK         0.0600 
    169 H169        1.6375  -14.6258  -42.2614 H         1 UNK         0.3000 
    170 H170        2.5685  -13.0644  -40.3224 H         1 UNK         0.0600 
    171 H171        4.0568  -13.8836  -38.5389 H         1 UNK         0.0600 
    172 H172        5.1678  -14.5731  -39.7125 H         1 UNK         0.0600 
    173 H173        4.9594  -12.8254  -39.6109 H         1 UNK         0.0600 
    174 H174        3.3451  -12.7215  -42.3709 H         1 UNK         0.3000 
    175 H175        5.4422  -12.9332  -44.0825 H         1 UNK         0.0600 
    176 H176        5.0316  -15.8180  -45.0296 H         1 UNK         0.0600 
    177 H177        5.7082  -14.5208  -46.0113 H         1 UNK         0.0600 
    178 H178        6.5549  -15.0730  -44.5748 H         1 UNK         0.0600 
    179 H179        3.5491  -12.4621  -45.1211 H         1 UNK         0.3000 
    180 H180        1.4892  -12.3938  -45.7142 H         1 UNK         0.0600 
    181 H181        0.8595  -15.0239  -47.1579 H         1 UNK         0.0600 
    182 H182        2.0867  -13.8721  -47.6722 H         1 UNK         0.0600 
    183 H183        0.3975  -13.4014  -47.6719 H         1 UNK         0.0600 
    184 H184       -0.7286  -14.0577  -45.5262 H         1 UNK         0.3000 
    185 H185       -1.6222  -14.6002  -42.7196 H         1 UNK         0.0600 
    186 H186       -1.3799  -12.6459  -41.2178 H         1 UNK         0.0600 
    187 H187       -2.0675  -11.5808  -42.4404 H         1 UNK         0.0600 
    188 H188       -3.0603  -12.8288  -41.6883 H         1 UNK         0.0600 
    189 H189       -2.4749  -12.8881  -44.9682 H         1 UNK         0.3000 
    190 H190       -4.1543  -19.8219  -45.8065 H         1 UNK         0.3000 
    191 H191       -6.4102  -20.7867  -44.1119 H         1 UNK         0.0600 
    192 H192       -5.1385  -19.6760  -42.2874 H         1 UNK         0.0600 
    193 H193       -5.5016  -18.5382  -43.5761 H         1 UNK         0.0600 
    194 H194       -3.8777  -19.2008  -43.4190 H         1 UNK         0.0600 
    195 H195       -2.8874  -21.1739  -44.7045 H         1 UNK         0.3000 
    196 H196       -2.5235  -23.1738  -42.7136 H         1 UNK         0.0600 
    197 H197       -0.7249  -22.3325  -45.0467 H         1 UNK         0.0600 
    198 H198       -0.7524  -21.5945  -43.4479 H         1 UNK         0.0600 
    199 H199       -0.2160  -23.2566  -43.6396 H         1 UNK         0.0600 
    200 H200       -3.3122  -23.4639  -46.1666 H         1 UNK         0.3000 
    201 H201       -3.1930  -26.4415  -45.9808 H         1 UNK         0.0600 
    202 H202       -2.0283  -24.6944  -48.2156 H         1 UNK         0.0600 
    203 H203       -2.0462  -26.4551  -48.1843 H         1 UNK         0.0600 
    204 H204       -1.0774  -25.5717  -47.0189 H         1 UNK         0.0600 
    205 H205       -5.3379  -24.1393  -46.1465 H         1 UNK         0.3000 
    206 H206       -7.3244  -23.7237  -47.0609 H         1 UNK         0.0600 
    207 H207       -7.7625  -26.0353  -46.2049 H         1 UNK         0.0600 
    208 H208       -8.7567  -25.6532  -47.5997 H         1 UNK         0.0600 
    209 H209       -7.3551  -26.6987  -47.7869 H         1 UNK         0.0600 
    210 H210       -5.0623  -23.2451  -48.7438 H         1 UNK         0.3000 
    211 H211       -4.5073  -22.4280  -50.6872 H         1 UNK         0.0600 
    212 H212       -6.1110  -21.7554  -52.3844 H         1 UNK         0.0600 
    213 H213       -6.8428  -21.4573  -50.8182 H         1 UNK         0.0600 
    214 H214       -7.3341  -22.8547  -51.7704 H         1 UNK         0.0600 
    215 H215       -4.8843  -25.5928  -50.2020 H         1 UNK         0.3000 
    216 H216       -4.7741  -26.6661  -52.8707 H         1 UNK         0.0600 
    217 H217       -3.8467  -27.9220  -50.2358 H         1 UNK         0.0600 
    218 H218       -4.2132  -28.7681  -51.7313 H         1 UNK         0.0600 
    219 H219       -5.5020  -27.9670  -50.8441 H         1 UNK         0.0600 
    220 H220       -2.3883  -25.2672  -50.7506 H         1 UNK         0.3000 
    221 H221       -0.1176  -26.1030  -52.5132 H         1 UNK         0.0600 
    222 H222       -0.0238  -26.8333  -50.0856 H         1 UNK         0.0600 
    223 H223       -0.0313  -25.1338  -49.6110 H         1 UNK         0.0600 
    224 H224        1.3012  -25.7826  -50.5548 H         1 UNK         0.0600 
    225 H225       -2.1231  -23.8319  -52.9146 H         1 UNK         0.3000 
    226 H226       -0.8996  -21.3422  -52.3333 H         1 UNK         0.0600 
    227 H227       -2.9540  -22.1307  -54.4608 H         1 UNK         0.0600 
    228 H228       -3.2856  -21.4955  -52.8506 H         1 UNK         0.0600 
    229 H229       -2.5368  -20.4722  -54.0626 H         1 UNK         0.0600 
    230 H230       -0.5977  -23.4390  -55.1700 H         1 UNK         0.3000 
    231 H231        0.7332  -23.4904  -56.9596 H         1 UNK         0.0600 
    232 H232        2.7554  -22.4025  -54.9200 H         1 UNK         0.0600 
    233 H233        3.1730  -23.1782  -56.4496 H         1 UNK         0.0600 
    234 H234        2.3449  -24.0870  -55.1996 H         1 UNK         0.0600 
    235 H235        2.8543  -20.8973  -56.2736 H         1 UNK         0.3000 
    236 H236        2.3385  -19.4584  -58.6507 H         1 UNK         0.0600 
    237 H237        4.5371  -19.4865  -57.5013 H         1 UNK         0.0600 
    238 H238        3.9707  -17.8331  -57.6714 H         1 UNK         0.0600 
    239 H239        3.8522  -18.6402  -56.1125 H         1 UNK         0.0600 
    240 H240        0.8041  -19.1868  -55.4942 H         1 UNK         0.3000 
    241 H241       -0.3468  -16.5515  -55.9870 H         1 UNK         0.0600 
    242 H242       -1.1200  -19.6495  -57.3854 H         1 UNK         0.3800 
    243 H243       -2.7672  -19.2364  -57.7846 H         1 UNK         0.3800 
    244 H244       -1.7024  -16.9922  -53.9555 H         1 UNK         0.0800 
    245 H245       -1.1114  -18.6321  -53.9001 H         1 UNK         0.0800 
    246 H246        0.2441  -18.9663  -51.7371 H         1 UNK         0.0800 
    247 H247        0.9839  -17.6357  -50.8839 H         1 UNK         0.0800 
@<TRIPOS>BOND
     1    1    2 1    
     2    1  127 1    
     3    1  128 1    
     4    1  129 1    
     5    2    3 2    
     6    2    4 am   BACKBONE|DICT|INTERRES
     7    4    5 1    
     8    4  130 1    
     9    5    6 1    
    10    5   65 1    
    11    5  131 1    
    12    6    7 1    
    13    6  132 1    
    14    6  133 1    
    15    7    8 1    
    16    8    9 1    
    17    8  134 1    
    18    8  135 1    
    19    9   10 ar   
    20    9   14 ar   
    21   10   11 ar   
    22   10  136 1    
    23   11   12 ar   
    24   11  126 1    
    25   12   13 ar   
    26   12  137 1    
    27   13   14 ar   
    28   13   15 1    
    29   14  138 1    
    30   15   16 1    
    31   15  139 1    
    32   15  140 1    
    33   16   17 1    
    34   17   18 1    
    35   17  141 1    
    36   17  142 1    
    37   18   19 1    
    38   18   67 1    
    39   18  143 1    
    40   19   20 am   BACKBONE|DICT|INTERRES
    41   19  144 1    
    42   20   21 2    
    43   20   22 1    
    44   22   23 1    
    45   22   24 1    
    46   22  145 1    
    47   23  146 1    
    48   23  147 1    
    49   23  148 1    
    50   24   25 am   BACKBONE|DICT|INTERRES
    51   24  149 1    
    52   25   26 2    
    53   25   27 1    
    54   27   28 1    
    55   27   29 1    
    56   27  150 1    
    57   28  151 1    
    58   28  152 1    
    59   28  153 1    
    60   29   30 am   BACKBONE|DICT|INTERRES
    61   29  154 1    
    62   30   31 2    
    63   30   32 1    
    64   32   33 1    
    65   32   34 1    
    66   32  155 1    
    67   33  156 1    
    68   33  157 1    
    69   33  158 1    
    70   34   35 am   BACKBONE|DICT|INTERRES
    71   34  159 1    
    72   35   36 2    
    73   35   37 1    
    74   37   38 1    
    75   37   39 1    
    76   37  160 1    
    77   38  161 1    
    78   38  162 1    
    79   38  163 1    
    80   39   40 am   BACKBONE|DICT|INTERRES
    81   39  164 1    
    82   40   41 2    
    83   40   42 1    
    84   42   43 1    
    85   42   44 1    
    86   42  165 1    
    87   43  166 1    
    88   43  167 1    
    89   43  168 1    
    90   44   45 am   BACKBONE|DICT|INTERRES
    91   44  169 1    
    92   45   46 2    
    93   45   47 1    
    94   47   48 1    
    95   47   49 1    
    96   47  170 1    
    97   48  171 1    
    98   48  172 1    
    99   48  173 1    
   100   49   50 am   BACKBONE|DICT|INTERRES
   101   49  174 1    
   102   50   51 2    
   103   50   52 1    
   104   52   53 1    
   105   52   54 1    
   106   52  175 1    
   107   53  176 1    
   108   53  177 1    
   109   53  178 1    
   110   54   55 am   BACKBONE|DICT|INTERRES
   111   54  179 1    
   112   55   56 2    
   113   55   57 1    
   114   57   58 1    
   115   57   59 1    
   116   57  180 1    
   117   58  181 1    
   118   58  182 1    
   119   58  183 1    
   120   59   60 am   BACKBONE|DICT|INTERRES
   121   59  184 1    
   122   60   61 2    
   123   60   62 1    
   124   62   63 1    
   125   62   64 1    
   126   62  185 1    
   127   63  186 1    
   128   63  187 1    
   129   63  188 1    
   130   64   65 am   BACKBONE|DICT|INTERRES
   131   64  189 1    
   132   65   66 2    
   133   67   68 2    
   134   67   69 am   BACKBONE|DICT|INTERRES
   135   69   70 1    
   136   69  190 1    
   137   70   71 1    
   138   70   72 1    
   139   70  191 1    
   140   71  192 1    
   141   71  193 1    
   142   71  194 1    
   143   72   73 2    
   144   72   74 am   BACKBONE|DICT|INTERRES
   145   74   75 1    
   146   74  195 1    
   147   75   76 1    
   148   75   77 1    
   149   75  196 1    
   150   76  197 1    
   151   76  198 1    
   152   76  199 1    
   153   77   78 2    
   154   77   79 am   BACKBONE|DICT|INTERRES
   155   79   80 1    
   156   79  200 1    
   157   80   81 1    
   158   80   82 1    
   159   80  201 1    
   160   81  202 1    
   161   81  203 1    
   162   81  204 1    
   163   82   83 2    
   164   82   84 am   BACKBONE|DICT|INTERRES
   165   84   85 1    
   166   84  205 1    
   167   85   86 1    
   168   85   87 1    
   169   85  206 1    
   170   86  207 1    
   171   86  208 1    
   172   86  209 1    
   173   87   88 2    
   174   87   89 am   BACKBONE|DICT|INTERRES
   175   89   90 1    
   176   89  210 1    
   177   90   91 1    
   178   90   92 1    
   179   90  211 1    
   180   91  212 1    
   181   91  213 1    
   182   91  214 1    
   183   92   93 2    
   184   92   94 am   BACKBONE|DICT|INTERRES
   185   94   95 1    
   186   94  215 1    
   187   95   96 1    
   188   95   97 1    
   189   95  216 1    
   190   96  217 1    
   191   96  218 1    
   192   96  219 1    
   193   97   98 2    
   194   97   99 am   BACKBONE|DICT|INTERRES
   195   99  100 1    
   196   99  220 1    
   197  100  101 1    
   198  100  102 1    
   199  100  221 1    
   200  101  222 1    
   201  101  223 1    
   202  101  224 1    
   203  102  103 2    
   204  102  104 am   BACKBONE|DICT|INTERRES
   205  104  105 1    
   206  104  225 1    
   207  105  106 1    
   208  105  107 1    
   209  105  226 1    
   210  106  227 1    
   211  106  228 1    
   212  106  229 1    
   213  107  108 2    
   214  107  109 am   BACKBONE|DICT|INTERRES
   215  109  110 1    
   216  109  230 1    
   217  110  111 1    
   218  110  112 1    
   219  110  231 1    
   220  111  232 1    
   221  111  233 1    
   222  111  234 1    
   223  112  113 2    
   224  112  114 am   BACKBONE|DICT|INTERRES
   225  114  115 1    
   226  114  235 1    
   227  115  116 1    
   228  115  117 1    
   229  115  236 1    
   230  116  237 1    
   231  116  238 1    
   232  116  239 1    
   233  117  118 2    
   234  117  119 am   BACKBONE|DICT|INTERRES
   235  119  120 1    
   236  119  240 1    
   237  120  121 1    
   238  120  124 1    
   239  120  241 1    
   240  121  122 am   BACKBONE|DICT|INTERRES
   241  121  123 2    
   242  122  242 1    
   243  122  243 1    
   244  124  125 1    
   245  124  244 1    
   246  124  245 1    
   247  125  126 1    
   248  126  246 1    
   249  126  247 1    
@<TRIPOS>SUBSTRUCTURE
     1 UNK         1 GROUP             0       ****    0 ROOT    
