@<TRIPOS>MOLECULE
3R540
247   249    1
SMALL
USER_CHARGES


@<TRIPOS>ATOM
      1 CA         -2.0707  -12.5312  -42.7881 C.3       0 UNK        -0.1800 
      2 C          -1.7516  -11.6355  -43.9768 C.2       0 UNK         0.5000 
      3 O          -1.3137  -10.5016  -43.7854 O.2       0 UNK        -0.5000 
      4 N          -1.9809  -12.1322  -45.2001 N.am      1 UNK        -0.5000 
      5 CA         -1.7243  -11.4103  -46.4529 C.3       1 UNK         0.1400 
      6 C6         -2.5643  -11.9834  -47.6246 C.3       23 UNK        -0.0398 
      7 S7         -2.1326  -13.6955  -48.1111 S.3       23 UNK        -0.2404 
      8 C8         -1.2226  -13.3538  -49.6582 C.3       23 UNK        -0.0205 
      9 C9         -0.3250  -14.4845  -50.1549 C.ar      23 UNK        -0.0193 
     10 C10        -0.0579  -14.5780  -51.5241 C.ar      23 UNK        -0.1150 
     11 C11         0.8308  -15.5370  -52.0168 C.ar      23 UNK        -0.0193 
     12 C12         1.4652  -16.4063  -51.1270 C.ar      23 UNK        -0.1150 
     13 C13         1.2009  -16.3367  -49.7567 C.ar      23 UNK        -0.0193 
     14 C14         0.3022  -15.3784  -49.2783 C.ar      23 UNK        -0.1150 
     15 C15         1.9224  -17.2642  -48.7895 C.3       23 UNK        -0.0205 
     16 S16         1.6259  -19.0244  -49.1492 S.3       23 UNK        -0.2404 
     17 C17        -0.1413  -19.1987  -48.7353 C.3       23 UNK        -0.0398 
     18 CA         -0.4447  -20.5930  -48.1377 C.3       11 UNK         0.1400 
     19 N           0.1596  -20.7835  -46.8143 N.am      11 UNK        -0.5000 
     20 C           0.3673  -21.9807  -46.2496 C.2       10 UNK         0.5000 
     21 O           0.1385  -23.0495  -46.8153 O.2       10 UNK        -0.5000 
     22 CA          0.8892  -21.9961  -44.7996 C.3       10 UNK         0.1400 
     23 CB          2.4238  -21.9401  -44.7676 C.3       10 UNK        -0.1800 
     24 N           0.3344  -20.9202  -43.9750 N.am      10 UNK        -0.5000 
     25 C          -0.9634  -20.8090  -43.6570 C.2       9 UNK         0.5000 
     26 O          -1.8200  -21.6191  -44.0038 O.2       9 UNK        -0.5000 
     27 CA         -1.3934  -19.5658  -42.8600 C.3       9 UNK         0.1400 
     28 CB         -1.1360  -19.7666  -41.3595 C.3       9 UNK        -0.1800 
     29 N          -0.7392  -18.3410  -43.3175 N.am      9 UNK        -0.5000 
     30 C          -0.8585  -17.8220  -44.5480 C.2       8 UNK         0.5000 
     31 O          -1.5662  -18.3046  -45.4318 O.2       8 UNK        -0.5000 
     32 CA          0.0117  -16.5919  -44.8623 C.3       8 UNK         0.1400 
     33 CB         -0.5963  -15.3223  -44.2527 C.3       8 UNK        -0.1800 
     34 N           1.3907  -16.7513  -44.3983 N.am      8 UNK        -0.5000 
     35 C           2.2206  -17.7184  -44.8169 C.2       7 UNK         0.5000 
     36 O           1.9220  -18.5581  -45.6649 O.2       7 UNK        -0.5000 
     37 CA          3.5902  -17.7956  -44.1256 C.3       7 UNK         0.1400 
     38 CB          4.5561  -16.7394  -44.6852 C.3       7 UNK        -0.1800 
     39 N           3.4653  -17.6451  -42.6761 N.am      7 UNK        -0.5000 
     40 C           2.9032  -18.5601  -41.8723 C.2       6 UNK         0.5000 
     41 O           2.4768  -19.6458  -42.2649 O.2       6 UNK        -0.5000 
     42 CA          2.7567  -18.1808  -40.3872 C.3       6 UNK         0.1400 
     43 CB          4.0519  -18.4865  -39.6204 C.3       6 UNK        -0.1800 
     44 N           2.4017  -16.7738  -40.1971 N.am      6 UNK        -0.5000 
     45 C           1.2420  -16.2236  -40.5845 C.2       5 UNK         0.5000 
     46 O           0.3276  -16.8553  -41.1103 O.2       5 UNK        -0.5000 
     47 CA          1.1021  -14.7017  -40.4028 C.3       5 UNK         0.1400 
     48 CB          0.5275  -14.3703  -39.0181 C.3       5 UNK        -0.1800 
     49 N           2.3657  -13.9848  -40.5935 N.am      5 UNK        -0.5000 
     50 C           3.0347  -13.9354  -41.7518 C.2       4 UNK         0.5000 
     51 O           2.6601  -14.4983  -42.7848 O.2       4 UNK        -0.5000 
     52 CA          4.3681  -13.1803  -41.7395 C.3       4 UNK         0.1400 
     53 CB          5.5332  -14.1431  -41.4582 C.3       4 UNK        -0.1800 
     54 N           4.5557  -12.5586  -43.0432 N.am      4 UNK        -0.5000 
     55 C           5.0525  -11.3350  -43.2578 C.2       3 UNK         0.5000 
     56 O           5.5107  -10.6197  -42.3655 O.2       3 UNK        -0.5000 
     57 CA          5.0359  -10.8080  -44.7096 C.3       3 UNK         0.1400 
     58 CB          6.4463  -10.8697  -45.3171 C.3       3 UNK        -0.1800 
     59 N           4.1099  -11.5168  -45.5995 N.am      3 UNK        -0.5000 
     60 C           2.7746  -11.5100  -45.4895 C.2       2 UNK         0.5000 
     61 O           2.1681  -10.8774  -44.6222 O.2       2 UNK        -0.5000 
     62 CA          2.0147  -12.3907  -46.5009 C.3       2 UNK         0.1400 
     63 CB          2.4320  -13.8663  -46.3639 C.3       2 UNK        -0.1800 
     64 N           0.5669  -12.2993  -46.3212 N.am      2 UNK        -0.5000 
     65 C          -0.2182  -11.3251  -46.8006 C.2       1 UNK         0.5000 
     66 O           0.1914  -10.3994  -47.5031 O.2       1 UNK        -0.5000 
     67 C          -1.9629  -20.8710  -48.1248 C.2       11 UNK         0.5000 
     68 O          -2.4812  -21.4073  -49.1039 O.2       11 UNK        -0.5000 
     69 N          -2.6491  -20.5067  -47.0321 N.am      12 UNK        -0.5000 
     70 CA         -4.0858  -20.7217  -46.8426 C.3       12 UNK         0.1400 
     71 CB         -4.5838  -19.8173  -45.7057 C.3       12 UNK        -0.1800 
     72 C          -4.4584  -22.1907  -46.5606 C.2       12 UNK         0.5000 
     73 O          -5.5664  -22.6076  -46.9061 O.2       12 UNK        -0.5000 
     74 N          -3.5422  -22.9405  -45.9329 N.am      13 UNK        -0.5000 
     75 CA         -3.6865  -24.3497  -45.5637 C.3       13 UNK         0.1400 
     76 CB         -2.4151  -24.8123  -44.8344 C.3       13 UNK        -0.1800 
     77 C          -3.9801  -25.2787  -46.7566 C.2       13 UNK         0.5000 
     78 O          -3.6222  -24.9673  -47.8953 O.2       13 UNK        -0.5000 
     79 N          -4.6288  -26.4131  -46.4552 N.am      14 UNK        -0.5000 
     80 CA         -5.0619  -27.4529  -47.3965 C.3       14 UNK         0.1400 
     81 CB         -3.8441  -28.1949  -47.9878 C.3       14 UNK        -0.1800 
     82 C          -6.0193  -26.9099  -48.4778 C.2       14 UNK         0.5000 
     83 O          -5.8976  -27.2772  -49.6463 O.2       14 UNK        -0.5000 
     84 N          -6.9346  -26.0203  -48.0616 N.am      15 UNK        -0.5000 
     85 CA         -7.9066  -25.2992  -48.8900 C.3       15 UNK         0.1400 
     86 CB         -8.9683  -26.2682  -49.4526 C.3       15 UNK        -0.1800 
     87 C          -7.2149  -24.4632  -49.9848 C.2       15 UNK         0.5000 
     88 O          -7.4366  -24.6944  -51.1743 O.2       15 UNK        -0.5000 
     89 N          -6.3523  -23.5325  -49.5520 N.am      16 UNK        -0.5000 
     90 CA         -5.5262  -22.6510  -50.3829 C.3       16 UNK         0.1400 
     91 CB         -6.4066  -21.6448  -51.1539 C.3       16 UNK        -0.1800 
     92 C          -4.5622  -23.4383  -51.2939 C.2       16 UNK         0.5000 
     93 O          -4.4802  -23.1612  -52.4931 O.2       16 UNK        -0.5000 
     94 N          -3.8788  -24.4299  -50.7026 N.am      17 UNK        -0.5000 
     95 CA         -2.9498  -25.3675  -51.3368 C.3       17 UNK         0.1400 
     96 CB         -1.6622  -24.6346  -51.7682 C.3       17 UNK        -0.1800 
     97 C          -3.6130  -26.1630  -52.4803 C.2       17 UNK         0.5000 
     98 O          -3.1250  -26.1465  -53.6103 O.2       17 UNK        -0.5000 
     99 N          -4.7408  -26.8166  -52.1654 N.am      18 UNK        -0.5000 
    100 CA        -5.6137  -27.5685  -53.0730 C.3       18 UNK         0.1400 
    101 CB        -4.9033  -28.8336  -53.5982 C.3       18 UNK        -0.1800 
    102 C         -6.1957  -26.6815  -54.1934 C.2       18 UNK         0.5000 
    103 O         -6.1863  -27.0664  -55.3642 O.2       18 UNK        -0.5000 
    104 N         -6.6765  -25.4947  -53.7968 N.am      19 UNK        -0.5000 
    105 CA        -7.2612  -24.4350  -54.6226 C.3       19 UNK         0.1400 
    106 CB        -8.5822  -24.9083  -55.2640 C.3       19 UNK        -0.1800 
    107 C         -6.2891  -23.8101  -55.6472 C.2       19 UNK         0.5000 
    108 O         -6.7431  -23.1924  -56.6124 O.2       19 UNK        -0.5000 
    109 N         -4.9747  -23.9506  -55.4226 N.am      20 UNK        -0.5000 
    110 CA        -3.9326  -23.3205  -56.2339 C.3       20 UNK         0.1400 
    111 CB        -2.5856  -24.0103  -55.9782 C.3       20 UNK        -0.1800 
    112 C         -3.8184  -21.8111  -55.9619 C.2       20 UNK         0.5000 
    113 O         -3.5016  -21.0584  -56.8843 O.2       20 UNK        -0.5000 
    114 N         -4.0701  -21.4032  -54.7063 N.am      21 UNK        -0.5000 
    115 CA        -4.0957  -20.0231  -54.2060 C.3       21 UNK         0.1400 
    116 CB        -5.3856  -19.3211  -54.6757 C.3       21 UNK        -0.1800 
    117 C         -2.8139  -19.2310  -54.5424 C.2       21 UNK         0.5000 
    118 O         -2.8942  -18.0985  -55.0168 O.2       21 UNK        -0.5000 
    119 N         -1.6671  -19.8898  -54.3283 N.am      22 UNK        -0.5000 
    120 CA        -0.2960  -19.4653  -54.6626 C.3       22 UNK         0.1400 
    121 C          0.0407  -19.3628  -56.1837 C.2       22 UNK         0.5000 
    122 N         -0.8384  -19.7574  -57.0977 N.am      22 UNK        -0.7600 
    123 O          1.1461  -18.9682  -56.5458 O.2       22 UNK        -0.5000 
    124 C124        0.2288  -18.2825  -53.7915 C.3       23 UNK        -0.0398 
    125 S125       -0.1446  -16.5905  -54.3815 S.3       23 UNK        -0.2404 
    126 C126        1.1189  -15.6174  -53.5075 C.3       23 UNK        -0.0205 
    127 H127       -1.1492  -12.8340  -42.2918 H         1 UNK         0.0600 
    128 H128       -2.6120  -13.4283  -43.0883 H         1 UNK         0.0600 
    129 H129       -2.6859  -11.9935  -42.0667 H         1 UNK         0.0600 
    130 H130       -2.3676  -13.0593  -45.3040 H         1 UNK         0.3000 
    131 H131       -2.0592  -10.3810  -46.3058 H         1 UNK         0.0600 
    132 H132       -3.6200  -11.9728  -47.3504 H         1 UNK         0.0800 
    133 H133       -2.4915  -11.3249  -48.4920 H         1 UNK         0.0800 
    134 H134       -1.9510  -13.0903  -50.4268 H         1 UNK         0.0800 
    135 H135       -0.5886  -12.4774  -49.5195 H         1 UNK         0.0800 
    136 H136       -0.5306  -13.8908  -52.2121 H         1 UNK         0.1150 
    137 H137        2.1656  -17.1408  -51.4992 H         1 UNK         0.1150 
    138 H138        0.1121  -15.3130  -48.2179 H         1 UNK         0.1150 
    139 H139        2.9938  -17.0699  -48.8499 H         1 UNK         0.0800 
    140 H140        1.6324  -17.0512  -47.7615 H         1 UNK         0.0800 
    141 H141       -0.7062  -19.0341  -49.6550 H         1 UNK         0.0800 
    142 H142       -0.4425  -18.4112  -48.0422 H         1 UNK         0.0800 
    143 H143       -0.0082  -21.3360  -48.8095 H         1 UNK         0.0600 
    144 H144        0.4422  -19.9489  -46.3121 H         1 UNK         0.3000 
    145 H145        0.5803  -22.9435  -44.3529 H         1 UNK         0.0600 
    146 H146        2.8004  -22.0288  -43.7486 H         1 UNK         0.0600 
    147 H147        2.8555  -22.7578  -45.3460 H         1 UNK         0.0600 
    148 H148        2.8040  -21.0082  -45.1852 H         1 UNK         0.0600 
    149 H149        0.9902  -20.2327  -43.6206 H         1 UNK         0.3000 
    150 H150       -2.4679  -19.4367  -43.0028 H         1 UNK         0.0600 
    151 H151       -1.6270  -20.6702  -40.9960 H         1 UNK         0.0600 
    152 H152       -1.5239  -18.9301  -40.7781 H         1 UNK         0.0600 
    153 H153       -0.0719  -19.8602  -41.1424 H         1 UNK         0.0600 
    154 H154       -0.1713  -17.8504  -42.6312 H         1 UNK         0.3000 
    155 H155        0.0388  -16.4690  -45.9465 H         1 UNK         0.0600 
    156 H156       -1.5849  -15.1331  -44.6718 H         1 UNK         0.0600 
    157 H157        0.0212  -14.4482  -44.4518 H         1 UNK         0.0600 
    158 H158       -0.7090  -15.4069  -43.1720 H         1 UNK         0.0600 
    159 H159        1.7245  -16.0905  -43.7049 H         1 UNK         0.3000 
    160 H160        4.0128  -18.7814  -44.3319 H         1 UNK         0.0600 
    161 H161        4.2048  -15.7244  -44.5037 H         1 UNK         0.0600 
    162 H162        4.6739  -16.8547  -45.7634 H         1 UNK         0.0600 
    163 H163        5.5456  -16.8353  -44.2383 H         1 UNK         0.0600 
    164 H164        3.7405  -16.7570  -42.2848 H         1 UNK         0.3000 
    165 H165        1.9565  -18.7921  -39.9648 H         1 UNK         0.0600 
    166 H166        3.9332  -18.2944  -38.5539 H         1 UNK         0.0600 
    167 H167        4.3322  -19.5349  -39.7313 H         1 UNK         0.0600 
    168 H168        4.8866  -17.8835  -39.9799 H         1 UNK         0.0600 
    169 H169        3.0964  -16.1803  -39.7693 H         1 UNK         0.3000 
    170 H170        0.3985  -14.3459  -41.1575 H         1 UNK         0.0600 
    171 H171       -0.4252  -14.8777  -38.8599 H         1 UNK         0.0600 
    172 H172        1.2008  -14.6780  -38.2171 H         1 UNK         0.0600 
    173 H173        0.3453  -13.3006  -38.9126 H         1 UNK         0.0600 
    174 H174        2.7388  -13.5056  -39.7865 H         1 UNK         0.3000 
    175 H175        4.3280  -12.4179  -40.9587 H         1 UNK         0.0600 
    176 H176        5.6046  -14.9226  -42.2178 H         1 UNK         0.0600 
    177 H177        6.4845  -13.6111  -41.4371 H         1 UNK         0.0600 
    178 H178        5.4141  -14.6333  -40.4913 H         1 UNK         0.0600 
    179 H179        4.1408  -13.0630  -43.8145 H         1 UNK         0.3000 
    180 H180        4.7266   -9.7615  -44.6696 H         1 UNK         0.0600 
    181 H181        6.8036  -11.8970  -45.3996 H         1 UNK         0.0600 
    182 H182        7.1619  -10.3221  -44.7022 H         1 UNK         0.0600 
    183 H183        6.4685  -10.4239  -46.3117 H         1 UNK         0.0600 
    184 H184        4.5351  -12.0598  -46.3372 H         1 UNK         0.3000 
    185 H185        2.2690  -12.0498  -47.5067 H         1 UNK         0.0600 
    186 H186        1.8752  -14.5023  -47.0480 H         1 UNK         0.0600 
    187 H187        3.4884  -14.0097  -46.5920 H         1 UNK         0.0600 
    188 H188        2.2628  -14.2370  -45.3547 H         1 UNK         0.0600 
    189 H189        0.1446  -12.9839  -45.7146 H         1 UNK         0.3000 
    190 H190       -2.1644  -20.0019  -46.2965 H         1 UNK         0.3000 
    191 H191       -4.5991  -20.4225  -47.7588 H         1 UNK         0.0600 
    192 H192       -4.3844  -18.7672  -45.9202 H         1 UNK         0.0600 
    193 H193       -5.6603  -19.9224  -45.5650 H         1 UNK         0.0600 
    194 H194       -4.1030  -20.0628  -44.7586 H         1 UNK         0.0600 
    195 H195       -2.6910  -22.4856  -45.6227 H         1 UNK         0.3000 
    196 H196       -4.5268  -24.4137  -44.8699 H         1 UNK         0.0600 
    197 H197       -2.4853  -25.8606  -44.5416 H         1 UNK         0.0600 
    198 H198       -2.2485  -24.2376  -43.9237 H         1 UNK         0.0600 
    199 H199       -1.5321  -24.7080  -45.4652 H         1 UNK         0.0600 
    200 H200       -4.8738  -26.5798  -45.4888 H         1 UNK         0.3000 
    201 H201       -5.6381  -28.1762  -46.8179 H         1 UNK         0.0600 
    202 H202       -3.1997  -28.5839  -47.1995 H         1 UNK         0.0600 
    203 H203       -3.2408  -27.5460  -48.6227 H         1 UNK         0.0600 
    204 H204       -4.1599  -29.0437  -48.5954 H         1 UNK         0.0600 
    205 H205       -6.9252  -25.7667  -47.0839 H         1 UNK         0.3000 
    206 H206       -8.4182  -24.5931  -48.2343 H         1 UNK         0.0600 
    207 H207       -9.4640  -26.8169  -48.6520 H         1 UNK         0.0600 
    208 H208       -9.7392  -25.7241  -49.9995 H         1 UNK         0.0600 
    209 H209       -8.5354  -26.9963  -50.1393 H         1 UNK         0.0600 
    210 H210       -6.2062  -23.4286  -48.5512 H         1 UNK         0.3000 
    211 H211       -4.9048  -22.0798  -49.6955 H         1 UNK         0.0600 
    212 H212       -7.0143  -22.1331  -51.9159 H         1 UNK         0.0600 
    213 H213       -5.7941  -20.8965  -51.6555 H         1 UNK         0.0600 
    214 H214       -7.0777  -21.1123  -50.4802 H         1 UNK         0.0600 
    215 H215       -3.9938  -24.5622  -49.6998 H         1 UNK         0.3000 
    216 H216       -2.6746  -26.0949  -50.5723 H         1 UNK         0.0600 
    217 H217       -0.9308  -25.3347  -52.1733 H         1 UNK         0.0600 
    218 H218       -1.1966  -24.1312  -50.9206 H         1 UNK         0.0600 
    219 H219       -1.8574  -23.8842  -52.5342 H         1 UNK         0.0600 
    220 H220       -5.0741  -26.7808  -51.2033 H         1 UNK         0.3000 
    221 H221       -6.4639  -27.8953  -52.4723 H         1 UNK         0.0600 
    222 H222       -4.0640  -28.5888  -54.2496 H         1 UNK         0.0600 
    223 H223       -4.5246  -29.4414  -52.7765 H         1 UNK         0.0600 
    224 H224       -5.5907  -29.4561  -54.1718 H         1 UNK         0.0600 
    225 H225       -6.6725  -25.2867  -52.8003 H         1 UNK         0.3000 
    226 H226       -7.5079  -23.6308  -53.9284 H         1 UNK         0.0600 
    227 H227       -9.2558  -25.3254  -54.5153 H         1 UNK         0.0600 
    228 H228       -9.1060  -24.0795  -55.7416 H         1 UNK         0.0600 
    229 H229       -8.4129  -25.6694  -56.0260 H         1 UNK         0.0600 
    230 H230       -4.6727  -24.4518  -54.5966 H         1 UNK         0.3000 
    231 H231       -4.1852  -23.4537  -57.2879 H         1 UNK         0.0600 
    232 H232       -2.2689  -23.9010  -54.9408 H         1 UNK         0.0600 
    233 H233       -1.8027  -23.5841  -56.6068 H         1 UNK         0.0600 
    234 H234       -2.6395  -25.0759  -56.2019 H         1 UNK         0.0600 
    235 H235       -4.2793  -22.1175  -54.0102 H         1 UNK         0.3000 
    236 H236       -4.1300  -20.0888  -53.1183 H         1 UNK         0.0600 
    237 H237       -6.2697  -19.8865  -54.3806 H         1 UNK         0.0600 
    238 H238       -5.4748  -18.3272  -54.2357 H         1 UNK         0.0600 
    239 H239       -5.4087  -19.2054  -55.7599 H         1 UNK         0.0600 
    240 H240       -1.7423  -20.8294  -53.9665 H         1 UNK         0.3000 
    241 H241        0.2943  -20.3276  -54.3503 H         1 UNK         0.0600 
    242 H242       -0.5906  -19.6982  -58.0724 H         1 UNK         0.3800 
    243 H243       -1.7592  -20.0973  -56.8401 H         1 UNK         0.3800 
    244 H244       -0.1410  -18.3800  -52.7699 H         1 UNK         0.0800 
    245 H245        1.3137  -18.3683  -53.7151 H         1 UNK         0.0800 
    246 H246        2.1067  -16.0438  -53.6894 H         1 UNK         0.0800 
    247 H247        1.1417  -14.6115  -53.9293 H         1 UNK         0.0800 
@<TRIPOS>BOND
     1    1    2 1    
     2    1  127 1    
     3    1  128 1    
     4    1  129 1    
     5    2    3 2    
     6    2    4 am   BACKBONE|DICT|INTERRES
     7    4    5 1    
     8    4  130 1    
     9    5    6 1    
    10    5   65 1    
    11    5  131 1    
    12    6    7 1    
    13    6  132 1    
    14    6  133 1    
    15    7    8 1    
    16    8    9 1    
    17    8  134 1    
    18    8  135 1    
    19    9   10 ar   
    20    9   14 ar   
    21   10   11 ar   
    22   10  136 1    
    23   11   12 ar   
    24   11  126 1    
    25   12   13 ar   
    26   12  137 1    
    27   13   14 ar   
    28   13   15 1    
    29   14  138 1    
    30   15   16 1    
    31   15  139 1    
    32   15  140 1    
    33   16   17 1    
    34   17   18 1    
    35   17  141 1    
    36   17  142 1    
    37   18   19 1    
    38   18   67 1    
    39   18  143 1    
    40   19   20 am   BACKBONE|DICT|INTERRES
    41   19  144 1    
    42   20   21 2    
    43   20   22 1    
    44   22   23 1    
    45   22   24 1    
    46   22  145 1    
    47   23  146 1    
    48   23  147 1    
    49   23  148 1    
    50   24   25 am   BACKBONE|DICT|INTERRES
    51   24  149 1    
    52   25   26 2    
    53   25   27 1    
    54   27   28 1    
    55   27   29 1    
    56   27  150 1    
    57   28  151 1    
    58   28  152 1    
    59   28  153 1    
    60   29   30 am   BACKBONE|DICT|INTERRES
    61   29  154 1    
    62   30   31 2    
    63   30   32 1    
    64   32   33 1    
    65   32   34 1    
    66   32  155 1    
    67   33  156 1    
    68   33  157 1    
    69   33  158 1    
    70   34   35 am   BACKBONE|DICT|INTERRES
    71   34  159 1    
    72   35   36 2    
    73   35   37 1    
    74   37   38 1    
    75   37   39 1    
    76   37  160 1    
    77   38  161 1    
    78   38  162 1    
    79   38  163 1    
    80   39   40 am   BACKBONE|DICT|INTERRES
    81   39  164 1    
    82   40   41 2    
    83   40   42 1    
    84   42   43 1    
    85   42   44 1    
    86   42  165 1    
    87   43  166 1    
    88   43  167 1    
    89   43  168 1    
    90   44   45 am   BACKBONE|DICT|INTERRES
    91   44  169 1    
    92   45   46 2    
    93   45   47 1    
    94   47   48 1    
    95   47   49 1    
    96   47  170 1    
    97   48  171 1    
    98   48  172 1    
    99   48  173 1    
   100   49   50 am   BACKBONE|DICT|INTERRES
   101   49  174 1    
   102   50   51 2    
   103   50   52 1    
   104   52   53 1    
   105   52   54 1    
   106   52  175 1    
   107   53  176 1    
   108   53  177 1    
   109   53  178 1    
   110   54   55 am   BACKBONE|DICT|INTERRES
   111   54  179 1    
   112   55   56 2    
   113   55   57 1    
   114   57   58 1    
   115   57   59 1    
   116   57  180 1    
   117   58  181 1    
   118   58  182 1    
   119   58  183 1    
   120   59   60 am   BACKBONE|DICT|INTERRES
   121   59  184 1    
   122   60   61 2    
   123   60   62 1    
   124   62   63 1    
   125   62   64 1    
   126   62  185 1    
   127   63  186 1    
   128   63  187 1    
   129   63  188 1    
   130   64   65 am   BACKBONE|DICT|INTERRES
   131   64  189 1    
   132   65   66 2    
   133   67   68 2    
   134   67   69 am   BACKBONE|DICT|INTERRES
   135   69   70 1    
   136   69  190 1    
   137   70   71 1    
   138   70   72 1    
   139   70  191 1    
   140   71  192 1    
   141   71  193 1    
   142   71  194 1    
   143   72   73 2    
   144   72   74 am   BACKBONE|DICT|INTERRES
   145   74   75 1    
   146   74  195 1    
   147   75   76 1    
   148   75   77 1    
   149   75  196 1    
   150   76  197 1    
   151   76  198 1    
   152   76  199 1    
   153   77   78 2    
   154   77   79 am   BACKBONE|DICT|INTERRES
   155   79   80 1    
   156   79  200 1    
   157   80   81 1    
   158   80   82 1    
   159   80  201 1    
   160   81  202 1    
   161   81  203 1    
   162   81  204 1    
   163   82   83 2    
   164   82   84 am   BACKBONE|DICT|INTERRES
   165   84   85 1    
   166   84  205 1    
   167   85   86 1    
   168   85   87 1    
   169   85  206 1    
   170   86  207 1    
   171   86  208 1    
   172   86  209 1    
   173   87   88 2    
   174   87   89 am   BACKBONE|DICT|INTERRES
   175   89   90 1    
   176   89  210 1    
   177   90   91 1    
   178   90   92 1    
   179   90  211 1    
   180   91  212 1    
   181   91  213 1    
   182   91  214 1    
   183   92   93 2    
   184   92   94 am   BACKBONE|DICT|INTERRES
   185   94   95 1    
   186   94  215 1    
   187   95   96 1    
   188   95   97 1    
   189   95  216 1    
   190   96  217 1    
   191   96  218 1    
   192   96  219 1    
   193   97   98 2    
   194   97   99 am   BACKBONE|DICT|INTERRES
   195   99  100 1    
   196   99  220 1    
   197  100  101 1    
   198  100  102 1    
   199  100  221 1    
   200  101  222 1    
   201  101  223 1    
   202  101  224 1    
   203  102  103 2    
   204  102  104 am   BACKBONE|DICT|INTERRES
   205  104  105 1    
   206  104  225 1    
   207  105  106 1    
   208  105  107 1    
   209  105  226 1    
   210  106  227 1    
   211  106  228 1    
   212  106  229 1    
   213  107  108 2    
   214  107  109 am   BACKBONE|DICT|INTERRES
   215  109  110 1    
   216  109  230 1    
   217  110  111 1    
   218  110  112 1    
   219  110  231 1    
   220  111  232 1    
   221  111  233 1    
   222  111  234 1    
   223  112  113 2    
   224  112  114 am   BACKBONE|DICT|INTERRES
   225  114  115 1    
   226  114  235 1    
   227  115  116 1    
   228  115  117 1    
   229  115  236 1    
   230  116  237 1    
   231  116  238 1    
   232  116  239 1    
   233  117  118 2    
   234  117  119 am   BACKBONE|DICT|INTERRES
   235  119  120 1    
   236  119  240 1    
   237  120  121 1    
   238  120  124 1    
   239  120  241 1    
   240  121  122 am   BACKBONE|DICT|INTERRES
   241  121  123 2    
   242  122  242 1    
   243  122  243 1    
   244  124  125 1    
   245  124  244 1    
   246  124  245 1    
   247  125  126 1    
   248  126  246 1    
   249  126  247 1    
@<TRIPOS>SUBSTRUCTURE
     1 UNK         1 GROUP             0       ****    0 ROOT    
