@<TRIPOS>MOLECULE
3R540
247   249    1
SMALL
USER_CHARGES


@<TRIPOS>ATOM
      1 CA         -2.8578  -11.3429  -46.3958 C.3       0 UNK        -0.1800 
      2 C          -2.3317  -11.1891  -47.8156 C.2       0 UNK         0.5000 
      3 O          -1.8865  -10.1061  -48.1947 O.2       0 UNK        -0.5000 
      4 N          -2.3833  -12.2734  -48.5988 N.am      1 UNK        -0.5000 
      5 CA         -1.9335  -12.3459  -49.9981 C.3       1 UNK         0.1400 
      6 C6         -2.3692  -13.6731  -50.6700 C.3       23 UNK        -0.0398 
      7 S7         -4.1272  -14.1074  -50.4188 S.3       23 UNK        -0.2404 
      8 C8         -4.2358  -15.7286  -51.2479 C.3       23 UNK        -0.0205 
      9 C9         -3.3143  -16.7654  -50.6202 C.ar      23 UNK        -0.0193 
     10 C10        -2.0709  -17.0297  -51.2008 C.ar      23 UNK        -0.1150 
     11 C11        -1.1911  -17.9559  -50.6290 C.ar      23 UNK        -0.0193 
     12 C12        -1.5898  -18.6364  -49.4752 C.ar      23 UNK        -0.1150 
     13 C13        -2.8315  -18.3891  -48.8843 C.ar      23 UNK        -0.0193 
     14 C14        -3.6947  -17.4545  -49.4644 C.ar      23 UNK        -0.1150 
     15 C15        -3.2097  -19.1082  -47.5993 C.3       23 UNK        -0.0205 
     16 S16        -3.9495  -20.7287  -47.9484 S.3       23 UNK        -0.2404 
     17 C17        -3.7954  -21.5614  -46.3329 C.3       23 UNK        -0.0398 
     18 CA         -2.6297  -22.5773  -46.3579 C.3       11 UNK         0.1400 
     19 N          -1.3194  -21.9322  -46.2537 N.am      11 UNK        -0.5000 
     20 C          -0.1678  -22.5151  -46.6089 C.2       10 UNK         0.5000 
     21 O          -0.0867  -23.6646  -47.0412 O.2       10 UNK        -0.5000 
     22 CA          1.1076  -21.6821  -46.4023 C.3       10 UNK         0.1400 
     23 CB          1.2108  -20.5672  -47.4537 C.3       10 UNK        -0.1800 
     24 N           1.1808  -21.1036  -45.0603 N.am      10 UNK        -0.5000 
     25 C           1.2764  -21.8294  -43.9367 C.2       9 UNK         0.5000 
     26 O           1.3238  -23.0594  -43.9145 O.2       9 UNK        -0.5000 
     27 CA          1.2819  -21.0542  -42.6093 C.3       9 UNK         0.1400 
     28 CB          2.6994  -20.5626  -42.2796 C.3       9 UNK        -0.1800 
     29 N           0.3706  -19.9123  -42.5908 N.am      9 UNK        -0.5000 
     30 C          -0.9530  -19.9415  -42.7924 C.2       8 UNK         0.5000 
     31 O          -1.5695  -20.9604  -43.1032 O.2       8 UNK        -0.5000 
     32 CA         -1.7208  -18.6103  -42.6704 C.3       8 UNK         0.1400 
     33 CB         -2.9490  -18.7379  -41.7483 C.3       8 UNK        -0.1800 
     34 N          -0.8924  -17.4554  -42.2983 N.am      8 UNK        -0.5000 
     35 C          -0.2645  -17.1953  -41.1412 C.2       7 UNK         0.5000 
     36 O          -0.3077  -17.9290  -40.1542 O.2       7 UNK        -0.5000 
     37 CA          0.6006  -15.9176  -41.0934 C.3       7 UNK         0.1400 
     38 CB          2.0910  -16.2901  -41.1416 C.3       7 UNK        -0.1800 
     39 N           0.3160  -14.9882  -42.1897 N.am      7 UNK        -0.5000 
     40 C          -0.7766  -14.2155  -42.2719 C.2       6 UNK         0.5000 
     41 O          -1.6193  -14.1212  -41.3793 O.2       6 UNK        -0.5000 
     42 CA         -0.9850  -13.4688  -43.6017 C.3       6 UNK         0.1400 
     43 CB         -0.1397  -12.1863  -43.6444 C.3       6 UNK        -0.1800 
     44 N          -0.6578  -14.3011  -44.7608 N.am      6 UNK        -0.5000 
     45 C          -1.3053  -15.4169  -45.1275 C.2       5 UNK         0.5000 
     46 O          -2.2992  -15.8523  -44.5503 O.2       5 UNK        -0.5000 
     47 CA         -0.7147  -16.2033  -46.3083 C.3       5 UNK         0.1400 
     48 CB         -1.1643  -15.5855  -47.6377 C.3       5 UNK        -0.1800 
     49 N           0.7459  -16.2218  -46.2420 N.am      5 UNK        -0.5000 
     50 C           1.4642  -17.1065  -45.5365 C.2       4 UNK         0.5000 
     51 O           0.9732  -18.0749  -44.9551 O.2       4 UNK        -0.5000 
     52 CA          2.9870  -16.8778  -45.4546 C.3       4 UNK         0.1400 
     53 CB          3.7334  -17.8713  -46.3548 C.3       4 UNK        -0.1800 
     54 N           3.3932  -15.5144  -45.8061 N.am      4 UNK        -0.5000 
     55 C           3.2281  -14.4499  -45.0091 C.2       3 UNK         0.5000 
     56 O           2.7014  -14.5069  -43.8976 O.2       3 UNK        -0.5000 
     57 CA          3.6624  -13.0858  -45.5844 C.3       3 UNK         0.1400 
     58 CB          5.1793  -12.8942  -45.4387 C.3       3 UNK        -0.1800 
     59 N           3.2743  -12.8837  -46.9878 N.am      3 UNK        -0.5000 
     60 C           2.0115  -12.9314  -47.4300 C.2       2 UNK         0.5000 
     61 O           1.0556  -13.1991  -46.6955 O.2       2 UNK        -0.5000 
     62 CA          1.7622  -12.6833  -48.9278 C.3       2 UNK         0.1400 
     63 CB          2.3263  -13.8351  -49.7822 C.3       2 UNK        -0.1800 
     64 N           0.3178  -12.6083  -49.0922 N.am      2 UNK        -0.5000 
     65 C          -0.3997  -12.1920  -50.1385 C.2       1 UNK         0.5000 
     66 O           0.0863  -11.7296  -51.1706 O.2       1 UNK        -0.5000 
     67 C          -2.8112  -23.6901  -45.3103 C.2       11 UNK         0.5000 
     68 O          -3.4514  -24.6920  -45.6255 O.2       11 UNK        -0.5000 
     69 N          -2.2233  -23.5367  -44.1163 N.am      12 UNK        -0.5000 
     70 CA         -2.1978  -24.5683  -43.0786 C.3       12 UNK         0.1400 
     71 CB         -1.6249  -23.9840  -41.7787 C.3       12 UNK        -0.1800 
     72 C          -1.4098  -25.8189  -43.5114 C.2       12 UNK         0.5000 
     73 O          -1.8743  -26.9358  -43.2809 O.2       12 UNK        -0.5000 
     74 N          -0.2516  -25.6106  -44.1535 N.am      13 UNK        -0.5000 
     75 CA          0.5979  -26.6753  -44.6858 C.3       13 UNK         0.1400 
     76 CB          1.9831  -26.1033  -45.0245 C.3       13 UNK        -0.1800 
     77 C          -0.0167  -27.3692  -45.9148 C.2       13 UNK         0.5000 
     78 O           0.0077  -28.5979  -45.9942 O.2       13 UNK        -0.5000 
     79 N          -0.5499  -26.5735  -46.8512 N.am      14 UNK        -0.5000 
     80 CA         -1.0887  -27.0498  -48.1273 C.3       14 UNK         0.1400 
     81 CB         -1.0089  -25.9041  -49.1448 C.3       14 UNK        -0.1800 
     82 C          -2.5320  -27.5821  -48.0484 C.2       14 UNK         0.5000 
     83 O          -3.0067  -28.1439  -49.0349 O.2       14 UNK        -0.5000 
     84 N          -3.2173  -27.3645  -46.9164 N.am      15 UNK        -0.5000 
     85 CA         -4.6431  -27.6297  -46.6843 C.3       15 UNK         0.1400 
     86 CB         -4.9520  -29.1407  -46.7371 C.3       15 UNK        -0.1800 
     87 C          -5.5279  -26.7843  -47.6256 C.2       15 UNK         0.5000 
     88 O          -6.3609  -27.3171  -48.3597 O.2       15 UNK        -0.5000 
     89 N          -5.2730  -25.4688  -47.6024 N.am      16 UNK        -0.5000 
     90 CA         -5.8975  -24.3826  -48.3699 C.3       16 UNK         0.1400 
     91 CB         -7.4203  -24.3330  -48.1382 C.3       16 UNK        -0.1800 
     92 C          -5.5473  -24.3462  -49.8722 C.2       16 UNK         0.5000 
     93 O          -5.9007  -23.3748  -50.5415 O.2       16 UNK        -0.5000 
     94 N          -4.8283  -25.3554  -50.3839 N.am      17 UNK        -0.5000 
     95 CA         -4.4459  -25.4752  -51.7955 C.3       17 UNK         0.1400 
     96 CB         -3.9567  -26.9062  -52.0645 C.3       17 UNK        -0.1800 
     97 C          -3.3962  -24.4432  -52.2591 C.2       17 UNK         0.5000 
     98 O          -3.2055  -24.2808  -53.4648 O.2       17 UNK        -0.5000 
     99 N          -2.7400  -23.7619  -51.3088 N.am      18 UNK        -0.5000 
    100 CA        -1.7581  -22.7066  -51.5625 C.3       18 UNK         0.1400 
    101 CB        -0.9970  -22.3903  -50.2657 C.3       18 UNK        -0.1800 
    102 C         -2.3684  -21.4145  -52.1341 C.2       18 UNK         0.5000 
    103 O         -1.6412  -20.6493  -52.7652 O.2       18 UNK        -0.5000 
    104 N         -3.6712  -21.1854  -51.9113 N.am      19 UNK        -0.5000 
    105 CA        -4.4016  -19.9640  -52.2622 C.3       19 UNK         0.1400 
    106 CB        -5.6929  -19.9024  -51.4270 C.3       19 UNK        -0.1800 
    107 C         -4.6629  -19.7872  -53.7758 C.2       19 UNK         0.5000 
    108 O         -5.8033  -19.5634  -54.1861 O.2       19 UNK        -0.5000 
    109 N         -3.6028  -19.8898  -54.5847 N.am      20 UNK        -0.5000 
    110 CA        -3.6172  -19.6698  -56.0285 C.3       20 UNK         0.1400 
    111 CB        -2.3650  -20.3056  -56.6536 C.3       20 UNK        -0.1800 
    112 C         -3.7111  -18.1716  -56.3647 C.2       20 UNK         0.5000 
    113 O         -4.6102  -17.7702  -57.1041 O.2       20 UNK        -0.5000 
    114 N         -2.7965  -17.3805  -55.7885 N.am      21 UNK        -0.5000 
    115 CA        -2.7158  -15.9238  -55.8965 C.3       21 UNK         0.1400 
    116 CB        -2.4995  -15.4550  -57.3522 C.3       21 UNK        -0.1800 
    117 C         -1.5802  -15.4271  -54.9946 C.2       21 UNK         0.5000 
    118 O         -1.8267  -14.6448  -54.0793 O.2       21 UNK        -0.5000 
    119 N         -0.3638  -15.9219  -55.2620 N.am      22 UNK        -0.5000 
    120 CA         0.8835  -15.6528  -54.5170 C.3       22 UNK         0.1400 
    121 C          1.4151  -14.1884  -54.6062 C.2       22 UNK         0.5000 
    122 N          0.9201  -13.3567  -55.5146 N.am      22 UNK        -0.7600 
    123 O          2.3221  -13.8084  -53.8708 O.2       22 UNK        -0.5000 
    124 C124        0.8557  -16.1838  -53.0556 C.3       23 UNK        -0.0398 
    125 S125        0.4106  -17.9542  -52.9784 S.3       23 UNK        -0.2404 
    126 C126        0.2102  -18.2172  -51.1840 C.3       23 UNK        -0.0205 
    127 H127       -2.8789  -12.3884  -46.0867 H         1 UNK         0.0600 
    128 H128       -2.2259  -10.7963  -45.6965 H         1 UNK         0.0600 
    129 H129       -3.8688  -10.9419  -46.3253 H         1 UNK         0.0600 
    130 H130       -2.8152  -13.1152  -48.2460 H         1 UNK         0.3000 
    131 H131       -2.3998  -11.5193  -50.5381 H         1 UNK         0.0600 
    132 H132       -1.7629  -14.4941  -50.2871 H         1 UNK         0.0800 
    133 H133       -2.1793  -13.6258  -51.7424 H         1 UNK         0.0800 
    134 H134       -4.0058  -15.6049  -52.3076 H         1 UNK         0.0800 
    135 H135       -5.2666  -16.0826  -51.2001 H         1 UNK         0.0800 
    136 H136       -1.7950  -16.4919  -52.0931 H         1 UNK         0.1150 
    137 H137       -0.9237  -19.3552  -49.0237 H         1 UNK         0.1150 
    138 H138       -4.6539  -17.2515  -49.0096 H         1 UNK         0.1150 
    139 H139       -2.3201  -19.2371  -46.9822 H         1 UNK         0.0800 
    140 H140       -3.9080  -18.5071  -47.0149 H         1 UNK         0.0800 
    141 H141       -4.7481  -22.0582  -46.1411 H         1 UNK         0.0800 
    142 H142       -3.6707  -20.8334  -45.5294 H         1 UNK         0.0800 
    143 H143       -2.6612  -23.0898  -47.3226 H         1 UNK         0.0600 
    144 H144       -1.2912  -21.0132  -45.8400 H         1 UNK         0.3000 
    145 H145        1.9599  -22.3523  -46.5326 H         1 UNK         0.0600 
    146 H146        2.2077  -20.1307  -47.4634 H         1 UNK         0.0600 
    147 H147        1.0246  -20.9512  -48.4569 H         1 UNK         0.0600 
    148 H148        0.4968  -19.7658  -47.2634 H         1 UNK         0.0600 
    149 H149        1.1198  -20.0929  -44.9827 H         1 UNK         0.3000 
    150 H150        0.9642  -21.7403  -41.8223 H         1 UNK         0.0600 
    151 H151        3.0546  -19.8379  -43.0138 H         1 UNK         0.0600 
    152 H152        3.4078  -21.3921  -42.2660 H         1 UNK         0.0600 
    153 H153        2.7347  -20.0899  -41.2978 H         1 UNK         0.0600 
    154 H154        0.7835  -19.0129  -42.3991 H         1 UNK         0.3000 
    155 H155       -2.0893  -18.3978  -43.6745 H         1 UNK         0.0600 
    156 H156       -2.6690  -19.0215  -40.7336 H         1 UNK         0.0600 
    157 H157       -3.6381  -19.4979  -42.1185 H         1 UNK         0.0600 
    158 H158       -3.5005  -17.7991  -41.6965 H         1 UNK         0.0600 
    159 H159       -0.7918  -16.7672  -43.0310 H         1 UNK         0.3000 
    160 H160        0.3999  -15.4148  -40.1452 H         1 UNK         0.0600 
    161 H161        2.3474  -16.8024  -42.0697 H         1 UNK         0.0600 
    162 H162        2.3585  -16.9511  -40.3162 H         1 UNK         0.0600 
    163 H163        2.7213  -15.4039  -41.0648 H         1 UNK         0.0600 
    164 H164        1.0045  -14.9403  -42.9352 H         1 UNK         0.3000 
    165 H165       -2.0384  -13.1909  -43.6734 H         1 UNK         0.0600 
    166 H166       -0.2822  -11.6476  -44.5807 H         1 UNK         0.0600 
    167 H167       -0.4139  -11.5114  -42.8328 H         1 UNK         0.0600 
    168 H168        0.9248  -12.4014  -43.5477 H         1 UNK         0.0600 
    169 H169        0.1160  -13.9784  -45.3364 H         1 UNK         0.3000 
    170 H170       -1.0902  -17.2274  -46.2651 H         1 UNK         0.0600 
    171 H171       -0.9342  -14.5256  -47.6861 H         1 UNK         0.0600 
    172 H172       -2.2422  -15.6845  -47.7652 H         1 UNK         0.0600 
    173 H173       -0.6832  -16.0706  -48.4859 H         1 UNK         0.0600 
    174 H174        1.2252  -15.4343  -46.6543 H         1 UNK         0.3000 
    175 H175        3.2885  -17.0697  -44.4228 H         1 UNK         0.0600 
    176 H176        3.4199  -17.7891  -47.3964 H         1 UNK         0.0600 
    177 H177        4.8108  -17.7105  -46.3132 H         1 UNK         0.0600 
    178 H178        3.5518  -18.8961  -46.0296 H         1 UNK         0.0600 
    179 H179        3.8219  -15.3819  -46.7105 H         1 UNK         0.3000 
    180 H180        3.1663  -12.3132  -44.9933 H         1 UNK         0.0600 
    181 H181        5.4810  -11.8917  -45.7426 H         1 UNK         0.0600 
    182 H182        5.7371  -13.6106  -46.0430 H         1 UNK         0.0600 
    183 H183        5.4918  -13.0253  -44.4018 H         1 UNK         0.0600 
    184 H184        4.0173  -12.6684  -47.6370 H         1 UNK         0.3000 
    185 H185        2.2136  -11.7322  -49.2153 H         1 UNK         0.0600 
    186 H186        2.1321  -13.6749  -50.8431 H         1 UNK         0.0600 
    187 H187        3.4069  -13.9226  -49.6657 H         1 UNK         0.0600 
    188 H188        1.8852  -14.7939  -49.5058 H         1 UNK         0.0600 
    189 H189       -0.1754  -12.8880  -48.2531 H         1 UNK         0.3000 
    190 H190       -1.7751  -22.6521  -43.8908 H         1 UNK         0.3000 
    191 H191       -3.2282  -24.8743  -42.8859 H         1 UNK         0.0600 
    192 H192       -1.6216  -24.7301  -40.9832 H         1 UNK         0.0600 
    193 H193       -2.2196  -23.1395  -41.4303 H         1 UNK         0.0600 
    194 H194       -0.5993  -23.6396  -41.9104 H         1 UNK         0.0600 
    195 H195        0.0867  -24.6605  -44.2676 H         1 UNK         0.3000 
    196 H196        0.7271  -27.4299  -43.9070 H         1 UNK         0.0600 
    197 H197        1.9201  -25.3080  -45.7684 H         1 UNK         0.0600 
    198 H198        2.4655  -25.6917  -44.1378 H         1 UNK         0.0600 
    199 H199        2.6404  -26.8770  -45.4231 H         1 UNK         0.0600 
    200 H200       -0.4863  -25.5656  -46.7361 H         1 UNK         0.3000 
    201 H201       -0.4614  -27.8660  -48.4916 H         1 UNK         0.0600 
    202 H202       -1.6487  -25.0713  -48.8522 H         1 UNK         0.0600 
    203 H203       -1.3204  -26.2306  -50.1368 H         1 UNK         0.0600 
    204 H204        0.0115  -25.5315  -49.2356 H         1 UNK         0.0600 
    205 H205       -2.7507  -26.8446  -46.1846 H         1 UNK         0.3000 
    206 H206       -4.8569  -27.2884  -45.6702 H         1 UNK         0.0600 
    207 H207       -4.3120  -29.6966  -46.0521 H         1 UNK         0.0600 
    208 H208       -5.9851  -29.3343  -46.4466 H         1 UNK         0.0600 
    209 H209       -4.8136  -29.5548  -47.7360 H         1 UNK         0.0600 
    210 H210       -4.5608  -25.1681  -46.9380 H         1 UNK         0.3000 
    211 H211       -5.4825  -23.4640  -47.9565 H         1 UNK         0.0600 
    212 H212       -7.8526  -23.4356  -48.5826 H         1 UNK         0.0600 
    213 H213       -7.6573  -24.3129  -47.0745 H         1 UNK         0.0600 
    214 H214       -7.9286  -25.1895  -48.5813 H         1 UNK         0.0600 
    215 H215       -4.5925  -26.1329  -49.7826 H         1 UNK         0.3000 
    216 H216       -5.3424  -25.3100  -52.3967 H         1 UNK         0.0600 
    217 H217       -3.0326  -27.1242  -51.5302 H         1 UNK         0.0600 
    218 H218       -3.7621  -27.0590  -53.1267 H         1 UNK         0.0600 
    219 H219       -4.7008  -27.6433  -51.7618 H         1 UNK         0.0600 
    220 H220       -2.9658  -23.9545  -50.3457 H         1 UNK         0.3000 
    221 H221       -1.0398  -23.0785  -52.2961 H         1 UNK         0.0600 
    222 H222       -0.4207  -23.2470  -49.9215 H         1 UNK         0.0600 
    223 H223       -1.6705  -22.0875  -49.4640 H         1 UNK         0.0600 
    224 H224       -0.2886  -21.5763  -50.4209 H         1 UNK         0.0600 
    225 H225       -4.2034  -21.8900  -51.4186 H         1 UNK         0.3000 
    226 H226       -3.7820  -19.1197  -51.9645 H         1 UNK         0.0600 
    227 H227       -6.3622  -20.7312  -51.6608 H         1 UNK         0.0600 
    228 H228       -5.4750  -19.9391  -50.3605 H         1 UNK         0.0600 
    229 H229       -6.2358  -18.9740  -51.6087 H         1 UNK         0.0600 
    230 H230       -2.7066  -20.0953  -54.1478 H         1 UNK         0.3000 
    231 H231       -4.4940  -20.1672  -56.4490 H         1 UNK         0.0600 
    232 H232       -1.4460  -19.8898  -56.2383 H         1 UNK         0.0600 
    233 H233       -2.3423  -20.1448  -57.7322 H         1 UNK         0.0600 
    234 H234       -2.3477  -21.3826  -56.4850 H         1 UNK         0.0600 
    235 H235       -2.1235  -17.8023  -55.1624 H         1 UNK         0.3000 
    236 H236       -3.6504  -15.4997  -55.5239 H         1 UNK         0.0600 
    237 H237       -3.3834  -15.6268  -57.9656 H         1 UNK         0.0600 
    238 H238       -2.2945  -14.3843  -57.3917 H         1 UNK         0.0600 
    239 H239       -1.6622  -15.9687  -57.8254 H         1 UNK         0.0600 
    240 H240       -0.2651  -16.5452  -56.0501 H         1 UNK         0.3000 
    241 H241        1.6440  -16.2333  -55.0405 H         1 UNK         0.0600 
    242 H242        1.2790  -12.4167  -55.5728 H         1 UNK         0.3800 
    243 H243        0.1848  -13.6532  -56.1352 H         1 UNK         0.3800 
    244 H244        0.1748  -15.5917  -52.4446 H         1 UNK         0.0800 
    245 H245        1.8389  -16.0766  -52.5946 H         1 UNK         0.0800 
    246 H246        0.4828  -19.2541  -50.9834 H         1 UNK         0.0800 
    247 H247        0.9280  -17.6017  -50.6403 H         1 UNK         0.0800 
@<TRIPOS>BOND
     1    1    2 1    
     2    1  127 1    
     3    1  128 1    
     4    1  129 1    
     5    2    3 2    
     6    2    4 am   BACKBONE|DICT|INTERRES
     7    4    5 1    
     8    4  130 1    
     9    5    6 1    
    10    5   65 1    
    11    5  131 1    
    12    6    7 1    
    13    6  132 1    
    14    6  133 1    
    15    7    8 1    
    16    8    9 1    
    17    8  134 1    
    18    8  135 1    
    19    9   10 ar   
    20    9   14 ar   
    21   10   11 ar   
    22   10  136 1    
    23   11   12 ar   
    24   11  126 1    
    25   12   13 ar   
    26   12  137 1    
    27   13   14 ar   
    28   13   15 1    
    29   14  138 1    
    30   15   16 1    
    31   15  139 1    
    32   15  140 1    
    33   16   17 1    
    34   17   18 1    
    35   17  141 1    
    36   17  142 1    
    37   18   19 1    
    38   18   67 1    
    39   18  143 1    
    40   19   20 am   BACKBONE|DICT|INTERRES
    41   19  144 1    
    42   20   21 2    
    43   20   22 1    
    44   22   23 1    
    45   22   24 1    
    46   22  145 1    
    47   23  146 1    
    48   23  147 1    
    49   23  148 1    
    50   24   25 am   BACKBONE|DICT|INTERRES
    51   24  149 1    
    52   25   26 2    
    53   25   27 1    
    54   27   28 1    
    55   27   29 1    
    56   27  150 1    
    57   28  151 1    
    58   28  152 1    
    59   28  153 1    
    60   29   30 am   BACKBONE|DICT|INTERRES
    61   29  154 1    
    62   30   31 2    
    63   30   32 1    
    64   32   33 1    
    65   32   34 1    
    66   32  155 1    
    67   33  156 1    
    68   33  157 1    
    69   33  158 1    
    70   34   35 am   BACKBONE|DICT|INTERRES
    71   34  159 1    
    72   35   36 2    
    73   35   37 1    
    74   37   38 1    
    75   37   39 1    
    76   37  160 1    
    77   38  161 1    
    78   38  162 1    
    79   38  163 1    
    80   39   40 am   BACKBONE|DICT|INTERRES
    81   39  164 1    
    82   40   41 2    
    83   40   42 1    
    84   42   43 1    
    85   42   44 1    
    86   42  165 1    
    87   43  166 1    
    88   43  167 1    
    89   43  168 1    
    90   44   45 am   BACKBONE|DICT|INTERRES
    91   44  169 1    
    92   45   46 2    
    93   45   47 1    
    94   47   48 1    
    95   47   49 1    
    96   47  170 1    
    97   48  171 1    
    98   48  172 1    
    99   48  173 1    
   100   49   50 am   BACKBONE|DICT|INTERRES
   101   49  174 1    
   102   50   51 2    
   103   50   52 1    
   104   52   53 1    
   105   52   54 1    
   106   52  175 1    
   107   53  176 1    
   108   53  177 1    
   109   53  178 1    
   110   54   55 am   BACKBONE|DICT|INTERRES
   111   54  179 1    
   112   55   56 2    
   113   55   57 1    
   114   57   58 1    
   115   57   59 1    
   116   57  180 1    
   117   58  181 1    
   118   58  182 1    
   119   58  183 1    
   120   59   60 am   BACKBONE|DICT|INTERRES
   121   59  184 1    
   122   60   61 2    
   123   60   62 1    
   124   62   63 1    
   125   62   64 1    
   126   62  185 1    
   127   63  186 1    
   128   63  187 1    
   129   63  188 1    
   130   64   65 am   BACKBONE|DICT|INTERRES
   131   64  189 1    
   132   65   66 2    
   133   67   68 2    
   134   67   69 am   BACKBONE|DICT|INTERRES
   135   69   70 1    
   136   69  190 1    
   137   70   71 1    
   138   70   72 1    
   139   70  191 1    
   140   71  192 1    
   141   71  193 1    
   142   71  194 1    
   143   72   73 2    
   144   72   74 am   BACKBONE|DICT|INTERRES
   145   74   75 1    
   146   74  195 1    
   147   75   76 1    
   148   75   77 1    
   149   75  196 1    
   150   76  197 1    
   151   76  198 1    
   152   76  199 1    
   153   77   78 2    
   154   77   79 am   BACKBONE|DICT|INTERRES
   155   79   80 1    
   156   79  200 1    
   157   80   81 1    
   158   80   82 1    
   159   80  201 1    
   160   81  202 1    
   161   81  203 1    
   162   81  204 1    
   163   82   83 2    
   164   82   84 am   BACKBONE|DICT|INTERRES
   165   84   85 1    
   166   84  205 1    
   167   85   86 1    
   168   85   87 1    
   169   85  206 1    
   170   86  207 1    
   171   86  208 1    
   172   86  209 1    
   173   87   88 2    
   174   87   89 am   BACKBONE|DICT|INTERRES
   175   89   90 1    
   176   89  210 1    
   177   90   91 1    
   178   90   92 1    
   179   90  211 1    
   180   91  212 1    
   181   91  213 1    
   182   91  214 1    
   183   92   93 2    
   184   92   94 am   BACKBONE|DICT|INTERRES
   185   94   95 1    
   186   94  215 1    
   187   95   96 1    
   188   95   97 1    
   189   95  216 1    
   190   96  217 1    
   191   96  218 1    
   192   96  219 1    
   193   97   98 2    
   194   97   99 am   BACKBONE|DICT|INTERRES
   195   99  100 1    
   196   99  220 1    
   197  100  101 1    
   198  100  102 1    
   199  100  221 1    
   200  101  222 1    
   201  101  223 1    
   202  101  224 1    
   203  102  103 2    
   204  102  104 am   BACKBONE|DICT|INTERRES
   205  104  105 1    
   206  104  225 1    
   207  105  106 1    
   208  105  107 1    
   209  105  226 1    
   210  106  227 1    
   211  106  228 1    
   212  106  229 1    
   213  107  108 2    
   214  107  109 am   BACKBONE|DICT|INTERRES
   215  109  110 1    
   216  109  230 1    
   217  110  111 1    
   218  110  112 1    
   219  110  231 1    
   220  111  232 1    
   221  111  233 1    
   222  111  234 1    
   223  112  113 2    
   224  112  114 am   BACKBONE|DICT|INTERRES
   225  114  115 1    
   226  114  235 1    
   227  115  116 1    
   228  115  117 1    
   229  115  236 1    
   230  116  237 1    
   231  116  238 1    
   232  116  239 1    
   233  117  118 2    
   234  117  119 am   BACKBONE|DICT|INTERRES
   235  119  120 1    
   236  119  240 1    
   237  120  121 1    
   238  120  124 1    
   239  120  241 1    
   240  121  122 am   BACKBONE|DICT|INTERRES
   241  121  123 2    
   242  122  242 1    
   243  122  243 1    
   244  124  125 1    
   245  124  244 1    
   246  124  245 1    
   247  125  126 1    
   248  126  246 1    
   249  126  247 1    
@<TRIPOS>SUBSTRUCTURE
     1 UNK         1 GROUP             0       ****    0 ROOT    
