@<TRIPOS>MOLECULE
3R540
247   249    1
SMALL
USER_CHARGES


@<TRIPOS>ATOM
      1 CA          2.1484   -9.3101  -47.0190 C.3       0 UNK        -0.1800 
      2 C           1.2059  -10.3993  -47.5091 C.2       0 UNK         0.5000 
      3 O           0.0106  -10.3484  -47.2177 O.2       0 UNK        -0.5000 
      4 N           1.7393  -11.3898  -48.2389 N.am      1 UNK        -0.5000 
      5 CA          1.0209  -12.5466  -48.7863 C.3       1 UNK         0.1400 
      6 C6          0.0580  -12.1430  -49.9377 C.3       23 UNK        -0.0398 
      7 S7         -0.5442  -13.5503  -50.9331 S.3       23 UNK        -0.2404 
      8 C8          0.8311  -13.8380  -52.0955 C.3       23 UNK        -0.0205 
      9 C9          1.4564  -15.2060  -51.8666 C.ar      23 UNK        -0.0193 
     10 C10         0.9163  -16.3366  -52.4842 C.ar      23 UNK        -0.1150 
     11 C11         1.4491  -17.6077  -52.2432 C.ar      23 UNK        -0.0193 
     12 C12         2.5520  -17.7375  -51.3914 C.ar      23 UNK        -0.1150 
     13 C13         3.1012  -16.6126  -50.7659 C.ar      23 UNK        -0.0193 
     14 C14         2.5596  -15.3500  -51.0231 C.ar      23 UNK        -0.1150 
     15 C15         4.2656  -16.7469  -49.7911 C.3       23 UNK        -0.0205 
     16 S16         3.8345  -17.6246  -48.2461 S.3       23 UNK        -0.2404 
     17 C17         2.1906  -16.9552  -47.8052 C.3       23 UNK        -0.0398 
     18 CA          1.0863  -18.0032  -48.0846 C.3       11 UNK         0.1400 
     19 N           1.2308  -19.2057  -47.2508 N.am      11 UNK        -0.5000 
     20 C           0.8411  -20.4318  -47.6222 C.2       10 UNK         0.5000 
     21 O           0.2794  -20.6794  -48.6886 O.2       10 UNK        -0.5000 
     22 CA          1.0513  -21.5594  -46.5961 C.3       10 UNK         0.1400 
     23 CB          2.5300  -21.9700  -46.5301 C.3       10 UNK        -0.1800 
     24 N           0.5773  -21.2396  -45.2456 N.am      10 UNK        -0.5000 
     25 C          -0.6655  -20.8565  -44.9163 C.2       9 UNK         0.5000 
     26 O          -1.5296  -20.5838  -45.7492 O.2       9 UNK        -0.5000 
     27 CA         -1.0003  -20.7586  -43.4138 C.3       9 UNK         0.1400 
     28 CB         -2.4882  -21.0420  -43.1205 C.3       9 UNK        -0.1800 
     29 N          -0.1334  -21.5812  -42.5620 N.am      9 UNK        -0.5000 
     30 C          -0.0368  -22.9214  -42.5319 C.2       8 UNK         0.5000 
     31 O          -0.6819  -23.6691  -43.2675 O.2       8 UNK        -0.5000 
     32 CA          0.9691  -23.5403  -41.5352 C.3       8 UNK         0.1400 
     33 CB          2.1828  -24.1068  -42.2897 C.3       8 UNK        -0.1800 
     34 N           1.4520  -22.5986  -40.5222 N.am      8 UNK        -0.5000 
     35 C           0.7322  -22.1264  -39.4944 C.2       7 UNK         0.5000 
     36 O          -0.3993  -22.5243  -39.2161 O.2       7 UNK        -0.5000 
     37 CA          1.3678  -20.9944  -38.6556 C.3       7 UNK         0.1400 
     38 CB          1.9471  -21.5578  -37.3488 C.3       7 UNK        -0.1800 
     39 N           2.4138  -20.2254  -39.3466 N.am      7 UNK        -0.5000 
     40 C           2.2519  -19.5419  -40.4884 C.2       6 UNK         0.5000 
     41 O           1.1857  -19.5081  -41.1074 O.2       6 UNK        -0.5000 
     42 CA          3.5025  -18.8397  -41.0574 C.3       6 UNK         0.1400 
     43 CB          4.6131  -19.8601  -41.3655 C.3       6 UNK        -0.1800 
     44 N           3.1951  -18.1186  -42.2926 N.am      6 UNK        -0.5000 
     45 C           2.5527  -16.9473  -42.3634 C.2       5 UNK         0.5000 
     46 O           2.2448  -16.2651  -41.3825 O.2       5 UNK        -0.5000 
     47 CA          2.1545  -16.4959  -43.7811 C.3       5 UNK         0.1400 
     48 CB          0.7453  -17.0023  -44.1304 C.3       5 UNK        -0.1800 
     49 N           2.1881  -15.0452  -43.9446 N.am      5 UNK        -0.5000 
     50 C           3.2969  -14.2929  -43.9129 C.2       4 UNK         0.5000 
     51 O           4.4247  -14.7562  -43.7344 O.2       4 UNK        -0.5000 
     52 CA          3.1376  -12.7766  -44.1418 C.3       4 UNK         0.1400 
     53 CB          3.9256  -12.3297  -45.3849 C.3       4 UNK        -0.1800 
     54 N           1.7377  -12.3807  -44.3103 N.am      4 UNK        -0.5000 
     55 C           0.9631  -11.8604  -43.3480 C.2       3 UNK         0.5000 
     56 O           1.3587  -11.6368  -42.2036 O.2       3 UNK        -0.5000 
     57 CA         -0.4985  -11.5280  -43.7128 C.3       3 UNK         0.1400 
     58 CB         -0.6888  -10.0096  -43.8523 C.3       3 UNK        -0.1800 
     59 N          -0.9462  -12.1834  -44.9438 N.am      3 UNK        -0.5000 
     60 C          -1.3173  -13.4702  -45.0180 C.2       2 UNK         0.5000 
     61 O          -1.3559  -14.2222  -44.0450 O.2       2 UNK        -0.5000 
     62 CA         -1.6589  -14.0281  -46.4141 C.3       2 UNK         0.1400 
     63 CB         -3.1674  -13.9314  -46.6833 C.3       2 UNK        -0.1800 
     64 N          -0.9331  -13.3740  -47.5041 N.am      2 UNK        -0.5000 
     65 C           0.4000  -13.3722  -47.6367 C.2       1 UNK         0.5000 
     66 O           1.1547  -13.9397  -46.8451 O.2       1 UNK        -0.5000 
     67 C          -0.3355  -17.4028  -48.0292 C.2       11 UNK         0.5000 
     68 O          -0.6349  -16.4959  -48.8016 O.2       11 UNK        -0.5000 
     69 N          -1.2113  -17.9610  -47.1806 N.am      12 UNK        -0.5000 
     70 CA         -2.6617  -17.7632  -47.2114 C.3       12 UNK         0.1400 
     71 CB         -3.1840  -17.6095  -45.7716 C.3       12 UNK        -0.1800 
     72 C          -3.3378  -18.9305  -47.9658 C.2       12 UNK         0.5000 
     73 O          -4.4626  -19.3150  -47.6390 O.2       12 UNK        -0.5000 
     74 N          -2.6186  -19.4966  -48.9478 N.am      13 UNK        -0.5000 
     75 CA         -3.0030  -20.6033  -49.8228 C.3       13 UNK         0.1400 
     76 CB         -4.1471  -20.1664  -50.7589 C.3       13 UNK        -0.1800 
     77 C          -3.3046  -21.9085  -49.0646 C.2       13 UNK         0.5000 
     78 O          -4.2315  -22.6261  -49.4359 O.2       13 UNK        -0.5000 
     79 N          -2.5369  -22.1802  -47.9997 N.am      14 UNK        -0.5000 
     80 CA         -2.7084  -23.2902  -47.0525 C.3       14 UNK         0.1400 
     81 CB         -2.4416  -24.6455  -47.7397 C.3       14 UNK        -0.1800 
     82 C          -4.0779  -23.2252  -46.3448 C.2       14 UNK         0.5000 
     83 O          -4.7618  -24.2413  -46.2245 O.2       14 UNK        -0.5000 
     84 N          -4.4746  -22.0052  -45.9499 N.am      15 UNK        -0.5000 
     85 CA         -5.8072  -21.6281  -45.4624 C.3       15 UNK         0.1400 
     86 CB         -6.0995  -22.2656  -44.0880 C.3       15 UNK        -0.1800 
     87 C          -6.9003  -21.9140  -46.5171 C.2       15 UNK         0.5000 
     88 O          -7.9252  -22.5249  -46.2104 O.2       15 UNK        -0.5000 
     89 N          -6.6216  -21.4861  -47.7566 N.am      16 UNK        -0.5000 
     90 CA         -7.4125  -21.6483  -48.9836 C.3       16 UNK         0.1400 
     91 CB         -8.7884  -20.9648  -48.8501 C.3       16 UNK        -0.1800 
     92 C          -7.5324  -23.0931  -49.5213 C.2       16 UNK         0.5000 
     93 O          -8.2214  -23.2967  -50.5222 O.2       16 UNK        -0.5000 
     94 N          -6.8538  -24.0699  -48.9029 N.am      17 UNK        -0.5000 
     95 CA         -6.8557  -25.4720  -49.3313 C.3       17 UNK         0.1400 
     96 CB         -6.3542  -26.3567  -48.1810 C.3       17 UNK        -0.1800 
     97 C          -6.0237  -25.7301  -50.6039 C.2       17 UNK         0.5000 
     98 O          -6.3087  -26.6886  -51.3227 O.2       17 UNK        -0.5000 
     99 N          -5.0206  -24.8819  -50.8620 N.am      18 UNK        -0.5000 
    100 CA        -4.0981  -24.9614  -51.9953 C.3       18 UNK         0.1400 
    101 CB        -2.6570  -25.0555  -51.4632 C.3       18 UNK        -0.1800 
    102 C         -4.2751  -23.7646  -52.9482 C.2       18 UNK         0.5000 
    103 O         -3.3444  -23.4235  -53.6812 O.2       18 UNK        -0.5000 
    104 N         -5.4655  -23.1459  -52.9461 N.am      19 UNK        -0.5000 
    105 CA        -5.8205  -21.9827  -53.7681 C.3       19 UNK         0.1400 
    106 CB        -7.2350  -21.5150  -53.3978 C.3       19 UNK        -0.1800 
    107 C         -5.6968  -22.2150  -55.2856 C.2       19 UNK         0.5000 
    108 O         -5.3924  -21.2722  -56.0154 O.2       19 UNK        -0.5000 
    109 N         -5.8745  -23.4670  -55.7277 N.am      20 UNK        -0.5000 
    110 CA        -5.6751  -23.8971  -57.1131 C.3       20 UNK         0.1400 
    111 CB        -6.2039  -25.3312  -57.2687 C.3       20 UNK        -0.1800 
    112 C         -4.2076  -23.8105  -57.5846 C.2       20 UNK         0.5000 
    113 O         -3.9729  -23.6632  -58.7848 O.2       20 UNK        -0.5000 
    114 N         -3.2558  -23.9039  -56.6456 N.am      21 UNK        -0.5000 
    115 CA        -1.8208  -23.7968  -56.9019 C.3       21 UNK         0.1400 
    116 CB        -1.0792  -24.8555  -56.0690 C.3       21 UNK        -0.1800 
    117 C         -1.3026  -22.3875  -56.5722 C.2       21 UNK         0.5000 
    118 O         -0.5525  -21.8160  -57.3645 O.2       21 UNK        -0.5000 
    119 N         -1.6996  -21.8608  -55.4068 N.am      22 UNK        -0.5000 
    120 CA        -1.2804  -20.5491  -54.8910 C.3       22 UNK         0.1400 
    121 C         -1.9447  -19.3395  -55.6166 C.2       22 UNK         0.5000 
    122 N         -3.1464  -19.4635  -56.1664 N.am      22 UNK        -0.7600 
    123 O         -1.3423  -18.2749  -55.7208 O.2       22 UNK        -0.5000 
    124 C124       -1.4437  -20.5190  -53.3466 C.3       23 UNK        -0.0398 
    125 S125       -0.9387  -18.9967  -52.4671 S.3       23 UNK        -0.2404 
    126 C126        0.8245  -18.8329  -52.9003 C.3       23 UNK        -0.0205 
    127 H127        2.1746   -9.3007  -45.9294 H         1 UNK         0.0600 
    128 H128        1.8036   -8.3345  -47.3613 H         1 UNK         0.0600 
    129 H129        3.1651   -9.4588  -47.3834 H         1 UNK         0.0600 
    130 H130        2.7335  -11.3799  -48.4181 H         1 UNK         0.3000 
    131 H131        1.7933  -13.1823  -49.2141 H         1 UNK         0.0600 
    132 H132       -0.8015  -11.5896  -49.5572 H         1 UNK         0.0800 
    133 H133        0.5629  -11.4493  -50.6112 H         1 UNK         0.0800 
    134 H134        1.5878  -13.0576  -52.0052 H         1 UNK         0.0800 
    135 H135        0.4499  -13.7726  -53.1157 H         1 UNK         0.0800 
    136 H136        0.0591  -16.2323  -53.1351 H         1 UNK         0.1150 
    137 H137        2.9682  -18.7147  -51.1900 H         1 UNK         0.1150 
    138 H138        2.9901  -14.4799  -50.5510 H         1 UNK         0.1150 
    139 H139        5.0825  -17.2780  -50.2812 H         1 UNK         0.0800 
    140 H140        4.6597  -15.7640  -49.5284 H         1 UNK         0.0800 
    141 H141        2.0122  -16.0342  -48.3600 H         1 UNK         0.0800 
    142 H142        2.1975  -16.6655  -46.7558 H         1 UNK         0.0800 
    143 H143        1.2028  -18.3136  -49.1237 H         1 UNK         0.0600 
    144 H144        1.6874  -19.0904  -46.3591 H         1 UNK         0.3000 
    145 H145        0.4792  -22.4227  -46.9420 H         1 UNK         0.0600 
    146 H146        2.6677  -22.8457  -45.8954 H         1 UNK         0.0600 
    147 H147        2.9092  -22.2260  -47.5204 H         1 UNK         0.0600 
    148 H148        3.1563  -21.1686  -46.1363 H         1 UNK         0.0600 
    149 H149        1.2159  -21.4373  -44.4902 H         1 UNK         0.3000 
    150 H150       -0.8061  -19.7239  -43.1302 H         1 UNK         0.0600 
    151 H151       -3.1355  -20.3257  -43.6263 H         1 UNK         0.0600 
    152 H152       -2.7000  -20.9687  -42.0539 H         1 UNK         0.0600 
    153 H153       -2.7845  -22.0370  -43.4531 H         1 UNK         0.0600 
    154 H154        0.4377  -21.0431  -41.9152 H         1 UNK         0.3000 
    155 H155        0.4627  -24.3643  -41.0284 H         1 UNK         0.0600 
    156 H156        2.7353  -23.3239  -42.8110 H         1 UNK         0.0600 
    157 H157        1.8739  -24.8414  -43.0347 H         1 UNK         0.0600 
    158 H158        2.8714  -24.6082  -41.6094 H         1 UNK         0.0600 
    159 H159        2.3791  -22.2253  -40.6594 H         1 UNK         0.3000 
    160 H160        0.5663  -20.2981  -38.4011 H         1 UNK         0.0600 
    161 H161        2.7778  -22.2388  -37.5384 H         1 UNK         0.0600 
    162 H162        1.1902  -22.1109  -36.7909 H         1 UNK         0.0600 
    163 H163        2.3071  -20.7597  -36.6993 H         1 UNK         0.0600 
    164 H164        3.3207  -20.2172  -38.9021 H         1 UNK         0.3000 
    165 H165        3.8670  -18.1310  -40.3109 H         1 UNK         0.0600 
    166 H166        5.4877  -19.3705  -41.7946 H         1 UNK         0.0600 
    167 H167        4.9485  -20.3724  -40.4633 H         1 UNK         0.0600 
    168 H168        4.2779  -20.6216  -42.0711 H         1 UNK         0.0600 
    169 H169        3.3905  -18.6158  -43.1481 H         1 UNK         0.3000 
    170 H170        2.8645  -16.9222  -44.4926 H         1 UNK         0.0600 
    171 H171        0.0075  -16.6679  -43.3996 H         1 UNK         0.0600 
    172 H172        0.4222  -16.6467  -45.1081 H         1 UNK         0.0600 
    173 H173        0.7170  -18.0914  -44.1495 H         1 UNK         0.0600 
    174 H174        1.2996  -14.5834  -44.0705 H         1 UNK         0.3000 
    175 H175        3.5689  -12.2737  -43.2739 H         1 UNK         0.0600 
    176 H176        3.5651  -12.8198  -46.2896 H         1 UNK         0.0600 
    177 H177        3.8522  -11.2527  -45.5309 H         1 UNK         0.0600 
    178 H178        4.9852  -12.5680  -45.2848 H         1 UNK         0.0600 
    179 H179        1.3272  -12.5951  -45.2113 H         1 UNK         0.3000 
    180 H180       -1.1268  -11.8688  -42.8871 H         1 UNK         0.0600 
    181 H181       -1.7229   -9.7610  -44.0913 H         1 UNK         0.0600 
    182 H182       -0.0538   -9.5915  -44.6332 H         1 UNK         0.0600 
    183 H183       -0.4392   -9.4986  -42.9216 H         1 UNK         0.0600 
    184 H184       -0.9002  -11.6311  -45.7939 H         1 UNK         0.3000 
    185 H185       -1.3754  -15.0810  -46.4173 H         1 UNK         0.0600 
    186 H186       -3.4285  -14.3914  -47.6364 H         1 UNK         0.0600 
    187 H187       -3.7365  -14.4459  -45.9078 H         1 UNK         0.0600 
    188 H188       -3.5057  -12.8947  -46.7065 H         1 UNK         0.0600 
    189 H189       -1.4907  -12.8802  -48.1849 H         1 UNK         0.3000 
    190 H190       -0.9065  -18.7518  -46.6266 H         1 UNK         0.3000 
    191 H191       -2.9071  -16.8496  -47.7555 H         1 UNK         0.0600 
    192 H192       -4.2430  -17.3492  -45.7673 H         1 UNK         0.0600 
    193 H193       -2.6542  -16.8210  -45.2374 H         1 UNK         0.0600 
    194 H194       -3.0724  -18.5293  -45.1998 H         1 UNK         0.0600 
    195 H195       -1.6867  -19.1406  -49.1059 H         1 UNK         0.3000 
    196 H196       -2.1328  -20.8274  -50.4394 H         1 UNK         0.0600 
    197 H197       -5.0280  -19.8445  -50.2062 H         1 UNK         0.0600 
    198 H198       -3.8395  -19.3380  -51.3964 H         1 UNK         0.0600 
    199 H199       -4.4487  -20.9835  -51.4092 H         1 UNK         0.0600 
    200 H200       -1.8386  -21.4944  -47.7400 H         1 UNK         0.3000 
    201 H201       -1.9544  -23.1690  -46.2749 H         1 UNK         0.0600 
    202 H202       -3.2050  -24.8847  -48.4796 H         1 UNK         0.0600 
    203 H203       -2.4326  -25.4557  -47.0100 H         1 UNK         0.0600 
    204 H204       -1.4745  -24.6495  -48.2422 H         1 UNK         0.0600 
    205 H205       -3.8381  -21.2357  -46.1176 H         1 UNK         0.3000 
    206 H206       -5.7887  -20.5458  -45.3254 H         1 UNK         0.0600 
    207 H207       -5.3216  -22.0210  -43.3655 H         1 UNK         0.0600 
    208 H208       -7.0432  -21.8987  -43.6830 H         1 UNK         0.0600 
    209 H209       -6.1720  -23.3517  -44.1480 H         1 UNK         0.0600 
    210 H210       -5.7496  -20.9814  -47.8770 H         1 UNK         0.3000 
    211 H211       -6.8643  -21.1078  -49.7537 H         1 UNK         0.0600 
    212 H212       -9.3063  -20.9362  -49.8095 H         1 UNK         0.0600 
    213 H213       -8.6857  -19.9347  -48.5091 H         1 UNK         0.0600 
    214 H214       -9.4365  -21.4894  -48.1478 H         1 UNK         0.0600 
    215 H215       -6.2739  -23.8336  -48.1086 H         1 UNK         0.3000 
    216 H216       -7.8869  -25.7586  -49.5480 H         1 UNK         0.0600 
    217 H217       -5.3017  -26.1746  -47.9636 H         1 UNK         0.0600 
    218 H218       -6.4565  -27.4136  -48.4300 H         1 UNK         0.0600 
    219 H219       -6.9219  -26.1803  -47.2671 H         1 UNK         0.0600 
    220 H220       -4.8652  -24.0957  -50.2303 H         1 UNK         0.3000 
    221 H221       -4.2954  -25.8578  -52.5858 H         1 UNK         0.0600 
    222 H222       -2.5431  -25.8999  -50.7835 H         1 UNK         0.0600 
    223 H223       -2.3650  -24.1521  -50.9274 H         1 UNK         0.0600 
    224 H224       -1.9448  -25.1988  -52.2768 H         1 UNK         0.0600 
    225 H225       -6.1773  -23.4893  -52.3163 H         1 UNK         0.3000 
    226 H226       -5.1246  -21.1779  -53.5285 H         1 UNK         0.0600 
    227 H227       -7.9741  -22.3001  -53.5618 H         1 UNK         0.0600 
    228 H228       -7.2890  -21.2173  -52.3506 H         1 UNK         0.0600 
    229 H229       -7.5323  -20.6516  -53.9946 H         1 UNK         0.0600 
    230 H230       -6.1234  -24.1812  -55.0593 H         1 UNK         0.3000 
    231 H231       -6.2657  -23.2426  -57.7576 H         1 UNK         0.0600 
    232 H232       -5.6633  -26.0308  -56.6300 H         1 UNK         0.0600 
    233 H233       -6.0982  -25.6772  -58.2978 H         1 UNK         0.0600 
    234 H234       -7.2623  -25.3917  -57.0145 H         1 UNK         0.0600 
    235 H235       -3.5330  -23.9738  -55.6742 H         1 UNK         0.3000 
    236 H236       -1.6081  -23.9946  -57.9547 H         1 UNK         0.0600 
    237 H237       -1.4004  -25.8617  -56.3385 H         1 UNK         0.0600 
    238 H238       -0.0031  -24.8015  -56.2385 H         1 UNK         0.0600 
    239 H239       -1.2500  -24.7263  -54.9995 H         1 UNK         0.0600 
    240 H240       -2.3080  -22.4084  -54.8033 H         1 UNK         0.3000 
    241 H241       -0.2117  -20.4663  -55.0956 H         1 UNK         0.0600 
    242 H242       -3.5417  -18.6702  -56.6448 H         1 UNK         0.3800 
    243 H243       -3.6946  -20.3140  -56.0982 H         1 UNK         0.3800 
    244 H244       -0.8887  -21.3491  -52.9067 H         1 UNK         0.0800 
    245 H245       -2.4891  -20.7023  -53.0968 H         1 UNK         0.0800 
    246 H246        1.3506  -19.7428  -52.6077 H         1 UNK         0.0800 
    247 H247        0.9315  -18.7361  -53.9810 H         1 UNK         0.0800 
@<TRIPOS>BOND
     1    1    2 1    
     2    1  127 1    
     3    1  128 1    
     4    1  129 1    
     5    2    3 2    
     6    2    4 am   BACKBONE|DICT|INTERRES
     7    4    5 1    
     8    4  130 1    
     9    5    6 1    
    10    5   65 1    
    11    5  131 1    
    12    6    7 1    
    13    6  132 1    
    14    6  133 1    
    15    7    8 1    
    16    8    9 1    
    17    8  134 1    
    18    8  135 1    
    19    9   10 ar   
    20    9   14 ar   
    21   10   11 ar   
    22   10  136 1    
    23   11   12 ar   
    24   11  126 1    
    25   12   13 ar   
    26   12  137 1    
    27   13   14 ar   
    28   13   15 1    
    29   14  138 1    
    30   15   16 1    
    31   15  139 1    
    32   15  140 1    
    33   16   17 1    
    34   17   18 1    
    35   17  141 1    
    36   17  142 1    
    37   18   19 1    
    38   18   67 1    
    39   18  143 1    
    40   19   20 am   BACKBONE|DICT|INTERRES
    41   19  144 1    
    42   20   21 2    
    43   20   22 1    
    44   22   23 1    
    45   22   24 1    
    46   22  145 1    
    47   23  146 1    
    48   23  147 1    
    49   23  148 1    
    50   24   25 am   BACKBONE|DICT|INTERRES
    51   24  149 1    
    52   25   26 2    
    53   25   27 1    
    54   27   28 1    
    55   27   29 1    
    56   27  150 1    
    57   28  151 1    
    58   28  152 1    
    59   28  153 1    
    60   29   30 am   BACKBONE|DICT|INTERRES
    61   29  154 1    
    62   30   31 2    
    63   30   32 1    
    64   32   33 1    
    65   32   34 1    
    66   32  155 1    
    67   33  156 1    
    68   33  157 1    
    69   33  158 1    
    70   34   35 am   BACKBONE|DICT|INTERRES
    71   34  159 1    
    72   35   36 2    
    73   35   37 1    
    74   37   38 1    
    75   37   39 1    
    76   37  160 1    
    77   38  161 1    
    78   38  162 1    
    79   38  163 1    
    80   39   40 am   BACKBONE|DICT|INTERRES
    81   39  164 1    
    82   40   41 2    
    83   40   42 1    
    84   42   43 1    
    85   42   44 1    
    86   42  165 1    
    87   43  166 1    
    88   43  167 1    
    89   43  168 1    
    90   44   45 am   BACKBONE|DICT|INTERRES
    91   44  169 1    
    92   45   46 2    
    93   45   47 1    
    94   47   48 1    
    95   47   49 1    
    96   47  170 1    
    97   48  171 1    
    98   48  172 1    
    99   48  173 1    
   100   49   50 am   BACKBONE|DICT|INTERRES
   101   49  174 1    
   102   50   51 2    
   103   50   52 1    
   104   52   53 1    
   105   52   54 1    
   106   52  175 1    
   107   53  176 1    
   108   53  177 1    
   109   53  178 1    
   110   54   55 am   BACKBONE|DICT|INTERRES
   111   54  179 1    
   112   55   56 2    
   113   55   57 1    
   114   57   58 1    
   115   57   59 1    
   116   57  180 1    
   117   58  181 1    
   118   58  182 1    
   119   58  183 1    
   120   59   60 am   BACKBONE|DICT|INTERRES
   121   59  184 1    
   122   60   61 2    
   123   60   62 1    
   124   62   63 1    
   125   62   64 1    
   126   62  185 1    
   127   63  186 1    
   128   63  187 1    
   129   63  188 1    
   130   64   65 am   BACKBONE|DICT|INTERRES
   131   64  189 1    
   132   65   66 2    
   133   67   68 2    
   134   67   69 am   BACKBONE|DICT|INTERRES
   135   69   70 1    
   136   69  190 1    
   137   70   71 1    
   138   70   72 1    
   139   70  191 1    
   140   71  192 1    
   141   71  193 1    
   142   71  194 1    
   143   72   73 2    
   144   72   74 am   BACKBONE|DICT|INTERRES
   145   74   75 1    
   146   74  195 1    
   147   75   76 1    
   148   75   77 1    
   149   75  196 1    
   150   76  197 1    
   151   76  198 1    
   152   76  199 1    
   153   77   78 2    
   154   77   79 am   BACKBONE|DICT|INTERRES
   155   79   80 1    
   156   79  200 1    
   157   80   81 1    
   158   80   82 1    
   159   80  201 1    
   160   81  202 1    
   161   81  203 1    
   162   81  204 1    
   163   82   83 2    
   164   82   84 am   BACKBONE|DICT|INTERRES
   165   84   85 1    
   166   84  205 1    
   167   85   86 1    
   168   85   87 1    
   169   85  206 1    
   170   86  207 1    
   171   86  208 1    
   172   86  209 1    
   173   87   88 2    
   174   87   89 am   BACKBONE|DICT|INTERRES
   175   89   90 1    
   176   89  210 1    
   177   90   91 1    
   178   90   92 1    
   179   90  211 1    
   180   91  212 1    
   181   91  213 1    
   182   91  214 1    
   183   92   93 2    
   184   92   94 am   BACKBONE|DICT|INTERRES
   185   94   95 1    
   186   94  215 1    
   187   95   96 1    
   188   95   97 1    
   189   95  216 1    
   190   96  217 1    
   191   96  218 1    
   192   96  219 1    
   193   97   98 2    
   194   97   99 am   BACKBONE|DICT|INTERRES
   195   99  100 1    
   196   99  220 1    
   197  100  101 1    
   198  100  102 1    
   199  100  221 1    
   200  101  222 1    
   201  101  223 1    
   202  101  224 1    
   203  102  103 2    
   204  102  104 am   BACKBONE|DICT|INTERRES
   205  104  105 1    
   206  104  225 1    
   207  105  106 1    
   208  105  107 1    
   209  105  226 1    
   210  106  227 1    
   211  106  228 1    
   212  106  229 1    
   213  107  108 2    
   214  107  109 am   BACKBONE|DICT|INTERRES
   215  109  110 1    
   216  109  230 1    
   217  110  111 1    
   218  110  112 1    
   219  110  231 1    
   220  111  232 1    
   221  111  233 1    
   222  111  234 1    
   223  112  113 2    
   224  112  114 am   BACKBONE|DICT|INTERRES
   225  114  115 1    
   226  114  235 1    
   227  115  116 1    
   228  115  117 1    
   229  115  236 1    
   230  116  237 1    
   231  116  238 1    
   232  116  239 1    
   233  117  118 2    
   234  117  119 am   BACKBONE|DICT|INTERRES
   235  119  120 1    
   236  119  240 1    
   237  120  121 1    
   238  120  124 1    
   239  120  241 1    
   240  121  122 am   BACKBONE|DICT|INTERRES
   241  121  123 2    
   242  122  242 1    
   243  122  243 1    
   244  124  125 1    
   245  124  244 1    
   246  124  245 1    
   247  125  126 1    
   248  126  246 1    
   249  126  247 1    
@<TRIPOS>SUBSTRUCTURE
     1 UNK         1 GROUP             0       ****    0 ROOT    
