@<TRIPOS>MOLECULE
3R540
247   249    1
SMALL
USER_CHARGES


@<TRIPOS>ATOM
      1 CA         -3.8186  -16.7473  -48.6423 C.3       0 UNK        -0.1800 
      2 C          -3.4889  -15.3278  -48.2127 C.2       0 UNK         0.5000 
      3 O          -4.3609  -14.6395  -47.6807 O.2       0 UNK        -0.5000 
      4 N          -2.2416  -14.8819  -48.4232 N.am      1 UNK        -0.5000 
      5 CA         -1.7442  -13.5586  -48.0263 C.3       1 UNK         0.1400 
      6 C6         -0.6222  -13.0283  -48.9575 C.3       23 UNK        -0.0398 
      7 S7          0.8566  -14.0838  -49.1383 S.3       23 UNK        -0.2404 
      8 C8          0.7268  -14.7163  -50.8436 C.3       23 UNK        -0.0205 
      9 C9         -0.0369  -16.0302  -50.9091 C.ar      23 UNK        -0.0193 
     10 C10        -1.2612  -16.1165  -51.5781 C.ar      23 UNK        -0.1150 
     11 C11        -1.9490  -17.3330  -51.6446 C.ar      23 UNK        -0.0193 
     12 C12        -1.4088  -18.4639  -51.0229 C.ar      23 UNK        -0.1150 
     13 C13        -0.1885  -18.3874  -50.3433 C.ar      23 UNK        -0.0193 
     14 C14         0.4985  -17.1718  -50.3075 C.ar      23 UNK        -0.1150 
     15 C15         0.3842  -19.6182  -49.6502 C.3       23 UNK        -0.0205 
     16 S16         0.8140  -19.3340  -47.9024 S.3       23 UNK        -0.2404 
     17 C17        -0.8195  -18.9565  -47.1918 C.3       23 UNK        -0.0398 
     18 CA         -1.4555  -20.2090  -46.5589 C.3       11 UNK         0.1400 
     19 N          -0.7631  -20.6464  -45.3416 N.am      11 UNK        -0.5000 
     20 C          -1.0029  -21.8015  -44.7026 C.2       10 UNK         0.5000 
     21 O          -1.9143  -22.5698  -45.0237 O.2       10 UNK        -0.5000 
     22 CA         -0.0924  -22.1352  -43.5009 C.3       10 UNK         0.1400 
     23 CB         -0.0434  -23.6471  -43.1951 C.3       10 UNK        -0.1800 
     24 N           1.2607  -21.5713  -43.6181 N.am      10 UNK        -0.5000 
     25 C           2.1722  -21.8656  -44.5591 C.2       9 UNK         0.5000 
     26 O           1.9848  -22.6944  -45.4508 O.2       9 UNK        -0.5000 
     27 CA          3.5240  -21.1304  -44.5041 C.3       9 UNK         0.1400 
     28 CB          3.8781  -20.4921  -45.8597 C.3       9 UNK        -0.1800 
     29 N           3.5862  -20.0879  -43.4740 N.am      9 UNK        -0.5000 
     30 C           4.5958  -19.9602  -42.6028 C.2       8 UNK         0.5000 
     31 O           5.4779  -20.8067  -42.4499 O.2       8 UNK        -0.5000 
     32 CA          4.6788  -18.6542  -41.7932 C.3       8 UNK         0.1400 
     33 CB          5.4235  -17.5800  -42.6006 C.3       8 UNK        -0.1800 
     34 N           3.3868  -18.1243  -41.3562 N.am      8 UNK        -0.5000 
     35 C           2.6907  -18.6245  -40.3255 C.2       7 UNK         0.5000 
     36 O           2.9970  -19.6583  -39.7304 O.2       7 UNK        -0.5000 
     37 CA          1.4589  -17.8242  -39.8654 C.3       7 UNK         0.1400 
     38 CB          1.8824  -16.5740  -39.0784 C.3       7 UNK        -0.1800 
     39 N           0.6104  -17.4253  -40.9835 N.am      7 UNK        -0.5000 
     40 C          -0.1778  -18.2664  -41.6639 C.2       6 UNK         0.5000 
     41 O          -0.3203  -19.4547  -41.3810 O.2       6 UNK        -0.5000 
     42 CA         -0.8884  -17.6960  -42.9026 C.3       6 UNK         0.1400 
     43 CB         -2.1585  -16.9285  -42.5154 C.3       6 UNK        -0.1800 
     44 N          -0.0038  -16.8407  -43.6923 N.am      6 UNK        -0.5000 
     45 C           1.0783  -17.2871  -44.3444 C.2       5 UNK         0.5000 
     46 O           1.3680  -18.4806  -44.4289 O.2       5 UNK        -0.5000 
     47 CA          2.0042  -16.2330  -44.9752 C.3       5 UNK         0.1400 
     48 CB          1.7591  -16.1053  -46.4791 C.3       5 UNK        -0.1800 
     49 N           1.8685  -14.9152  -44.3530 N.am      5 UNK        -0.5000 
     50 C           2.4101  -14.6124  -43.1664 C.2       4 UNK         0.5000 
     51 O           3.0118  -15.4267  -42.4652 O.2       4 UNK        -0.5000 
     52 CA          2.2072  -13.1752  -42.6592 C.3       4 UNK         0.1400 
     53 CB          2.8826  -12.1560  -43.5912 C.3       4 UNK        -0.1800 
     54 N           0.8021  -12.8082  -42.4740 N.am      4 UNK        -0.5000 
     55 C          -0.0844  -13.4639  -41.7118 C.2       3 UNK         0.5000 
     56 O           0.1444  -14.5398  -41.1615 O.2       3 UNK        -0.5000 
     57 CA         -1.4709  -12.8200  -41.5342 C.3       3 UNK         0.1400 
     58 CB         -1.5583  -12.1402  -40.1598 C.3       3 UNK        -0.1800 
     59 N          -1.7874  -11.8278  -42.5673 N.am      3 UNK        -0.5000 
     60 C          -2.2492  -12.0490  -43.8069 C.2       2 UNK         0.5000 
     61 O          -2.4674  -11.1111  -44.5752 O.2       2 UNK        -0.5000 
     62 CA         -2.5665  -13.4924  -44.2680 C.3       2 UNK         0.1400 
     63 CB         -3.9813  -13.9021  -43.8212 C.3       2 UNK        -0.1800 
     64 N          -2.5141  -13.6274  -45.7201 N.am      2 UNK        -0.5000 
     65 C          -1.4399  -13.4992  -46.5074 C.2       1 UNK         0.5000 
     66 O          -0.2914  -13.3690  -46.0761 O.2       1 UNK        -0.5000 
     67 C          -2.9743  -20.0239  -46.3910 C.2       11 UNK         0.5000 
     68 O          -3.6941  -20.1827  -47.3728 O.2       11 UNK        -0.5000 
     69 N          -3.4498  -19.7590  -45.1659 N.am      12 UNK        -0.5000 
     70 CA         -4.8776  -19.6963  -44.8391 C.3       12 UNK         0.1400 
     71 CB         -5.0479  -19.2114  -43.3921 C.3       12 UNK        -0.1800 
     72 C          -5.6212  -21.0312  -45.0591 C.2       12 UNK         0.5000 
     73 O          -6.8210  -21.0106  -45.3352 O.2       12 UNK        -0.5000 
     74 N          -4.8987  -22.1557  -44.9555 N.am      13 UNK        -0.5000 
     75 CA         -5.3955  -23.4867  -45.2901 C.3       13 UNK         0.1400 
     76 CB         -4.7959  -24.5160  -44.3183 C.3       13 UNK        -0.1800 
     77 C          -5.0526  -23.8436  -46.7455 C.2       13 UNK         0.5000 
     78 O          -5.9312  -24.2920  -47.4826 O.2       13 UNK        -0.5000 
     79 N          -3.7853  -23.6390  -47.1385 N.am      14 UNK        -0.5000 
     80 CA         -3.2467  -24.0656  -48.4348 C.3       14 UNK         0.1400 
     81 CB         -1.7172  -23.9355  -48.4275 C.3       14 UNK        -0.1800 
     82 C          -3.8559  -23.3454  -49.6540 C.2       14 UNK         0.5000 
     83 O          -3.9013  -23.9358  -50.7356 O.2       14 UNK        -0.5000 
     84 N          -4.3511  -22.1112  -49.4687 N.am      15 UNK        -0.5000 
     85 CA         -5.0247  -21.3093  -50.4968 C.3       15 UNK         0.1400 
     86 CB         -5.3350  -19.9086  -49.9528 C.3       15 UNK        -0.1800 
     87 C          -6.3001  -21.9502  -51.0787 C.2       15 UNK         0.5000 
     88 O          -6.6944  -21.5827  -52.1850 O.2       15 UNK        -0.5000 
     89 N          -6.8833  -22.9381  -50.3825 N.am      16 UNK        -0.5000 
     90 CA         -7.9726  -23.7825  -50.8844 C.3       16 UNK         0.1400 
     91 CB         -8.4540  -24.7042  -49.7545 C.3       16 UNK        -0.1800 
     92 C          -7.5843  -24.6123  -52.1289 C.2       16 UNK         0.5000 
     93 O          -8.4588  -24.9428  -52.9303 O.2       16 UNK        -0.5000 
     94 N          -6.2848  -24.9027  -52.2810 N.am      17 UNK        -0.5000 
     95 CA         -5.6810  -25.5439  -53.4506 C.3       17 UNK         0.1400 
     96 CB         -4.8914  -26.7734  -52.9684 C.3       17 UNK        -0.1800 
     97 C          -4.7690  -24.5637  -54.2212 C.2       17 UNK         0.5000 
     98 O          -3.9858  -25.0019  -55.0640 O.2       17 UNK        -0.5000 
     99 N          -4.8463  -23.2641  -53.8885 N.am      18 UNK        -0.5000 
    100 CA        -4.0255  -22.1409  -54.3670 C.3       18 UNK         0.1400 
    101 CB        -4.2061  -21.9377  -55.8820 C.3       18 UNK        -0.1800 
    102 C         -2.5335  -22.2141  -53.9668 C.2       18 UNK         0.5000 
    103 O         -1.7394  -21.3854  -54.4204 O.2       18 UNK        -0.5000 
    104 N         -2.1731  -23.2063  -53.1369 N.am      19 UNK        -0.5000 
    105 CA        -0.8658  -23.4938  -52.5305 C.3       19 UNK         0.1400 
    106 CB        -0.5445  -22.3966  -51.5033 C.3       19 UNK        -0.1800 
    107 C          0.3150  -23.6865  -53.5097 C.2       19 UNK         0.5000 
    108 O          1.4567  -23.7818  -53.0577 O.2       19 UNK        -0.5000 
    109 N          0.0346  -23.6854  -54.8217 N.am      20 UNK        -0.5000 
    110 CA         0.9746  -23.4740  -55.9297 C.3       20 UNK         0.1400 
    111 CB         1.9523  -24.6601  -56.0647 C.3       20 UNK        -0.1800 
    112 C          1.6921  -22.1023  -55.8532 C.2       20 UNK         0.5000 
    113 O          2.7937  -21.9586  -56.3868 O.2       20 UNK        -0.5000 
    114 N          1.0589  -21.1256  -55.1862 N.am      21 UNK        -0.5000 
    115 CA         1.6035  -19.7973  -54.9031 C.3       21 UNK         0.1400 
    116 CB         1.6722  -19.5996  -53.3803 C.3       21 UNK        -0.1800 
    117 C          0.7523  -18.6852  -55.5333 C.2       21 UNK         0.5000 
    118 O          1.3111  -17.6655  -55.9402 O.2       21 UNK        -0.5000 
    119 N         -0.5678  -18.8932  -55.6100 N.am      22 UNK        -0.5000 
    120 CA        -1.5455  -17.9252  -56.1342 C.3       22 UNK         0.1400 
    121 C         -2.4418  -18.4979  -57.2697 C.2       22 UNK         0.5000 
    122 N         -2.1116  -19.6443  -57.8527 N.am      22 UNK        -0.7600 
    123 O         -3.4309  -17.8817  -57.6574 O.2       22 UNK        -0.5000 
    124 C124       -2.3374  -17.2279  -54.9948 C.3       23 UNK        -0.0398 
    125 S125       -3.2369  -18.3730  -53.8907 S.3       23 UNK        -0.2404 
    126 C126       -3.2996  -17.4161  -52.3437 C.3       23 UNK        -0.0205 
    127 H127       -2.9506  -17.2516  -49.0572 H         1 UNK         0.0600 
    128 H128       -4.1733  -17.3274  -47.7904 H         1 UNK         0.0600 
    129 H129       -4.6021  -16.7377  -49.3996 H         1 UNK         0.0600 
    130 H130       -1.5568  -15.4838  -48.8602 H         1 UNK         0.3000 
    131 H131       -2.5665  -12.8534  -48.1690 H         1 UNK         0.0600 
    132 H132       -0.2885  -12.0492  -48.6101 H         1 UNK         0.0800 
    133 H133       -1.0446  -12.8479  -49.9464 H         1 UNK         0.0800 
    134 H134        1.7348  -14.8857  -51.2246 H         1 UNK         0.0800 
    135 H135        0.2826  -13.9640  -51.4968 H         1 UNK         0.0800 
    136 H136       -1.6796  -15.2364  -52.0459 H         1 UNK         0.1150 
    137 H137       -1.9474  -19.4004  -51.0639 H         1 UNK         0.1150 
    138 H138        1.4459  -17.1078  -49.7905 H         1 UNK         0.1150 
    139 H139       -0.3312  -20.4379  -49.6789 H         1 UNK         0.0800 
    140 H140        1.2717  -19.9511  -50.1895 H         1 UNK         0.0800 
    141 H141       -1.4526  -18.5533  -47.9803 H         1 UNK         0.0800 
    142 H142       -0.7185  -18.1584  -46.4569 H         1 UNK         0.0800 
    143 H143       -1.3482  -21.0204  -47.2774 H         1 UNK         0.0600 
    144 H144        0.0255  -20.0819  -45.0449 H         1 UNK         0.3000 
    145 H145       -0.5539  -21.6552  -42.6395 H         1 UNK         0.0600 
    146 H146        0.6035  -23.8566  -42.3433 H         1 UNK         0.0600 
    147 H147       -1.0354  -24.0276  -42.9485 H         1 UNK         0.0600 
    148 H148        0.3217  -24.2237  -44.0453 H         1 UNK         0.0600 
    149 H149        1.5044  -20.8744  -42.9282 H         1 UNK         0.3000 
    150 H150        4.2615  -21.9097  -44.3033 H         1 UNK         0.0600 
    151 H151        3.8398  -21.2220  -46.6691 H         1 UNK         0.0600 
    152 H152        4.8862  -20.0779  -45.8466 H         1 UNK         0.0600 
    153 H153        3.1909  -19.6846  -46.1119 H         1 UNK         0.0600 
    154 H154        2.8921  -19.3514  -43.5568 H         1 UNK         0.3000 
    155 H155        5.2752  -18.8627  -40.9021 H         1 UNK         0.0600 
    156 H156        4.8847  -17.3136  -43.5097 H         1 UNK         0.0600 
    157 H157        6.4134  -17.9293  -42.8972 H         1 UNK         0.0600 
    158 H158        5.5624  -16.6712  -42.0147 H         1 UNK         0.0600 
    159 H159        3.0962  -17.2406  -41.7657 H         1 UNK         0.3000 
    160 H160        0.8751  -18.4605  -39.1967 H         1 UNK         0.0600 
    161 H161        1.0139  -16.0449  -38.6856 H         1 UNK         0.0600 
    162 H162        2.4426  -15.8750  -39.7008 H         1 UNK         0.0600 
    163 H163        2.5139  -16.8403  -38.2300 H         1 UNK         0.0600 
    164 H164        0.6356  -16.4440  -41.2449 H         1 UNK         0.3000 
    165 H165       -1.1872  -18.5393  -43.5259 H         1 UNK         0.0600 
    166 H166       -2.7157  -16.6271  -43.4014 H         1 UNK         0.0600 
    167 H167       -2.8181  -17.5502  -41.9091 H         1 UNK         0.0600 
    168 H168       -1.9346  -16.0361  -41.9332 H         1 UNK         0.0600 
    169 H169       -0.1469  -15.8445  -43.6380 H         1 UNK         0.3000 
    170 H170        3.0318  -16.5753  -44.8397 H         1 UNK         0.0600 
    171 H171        2.0764  -17.0073  -46.9981 H         1 UNK         0.0600 
    172 H172        0.7068  -15.9353  -46.7095 H         1 UNK         0.0600 
    173 H173        2.3375  -15.2830  -46.8994 H         1 UNK         0.0600 
    174 H174        1.3508  -14.2126  -44.8701 H         1 UNK         0.3000 
    175 H175        2.6907  -13.1077  -41.6824 H         1 UNK         0.0600 
    176 H176        2.8636  -11.1555  -43.1589 H         1 UNK         0.0600 
    177 H177        3.9286  -12.4143  -43.7617 H         1 UNK         0.0600 
    178 H178        2.3922  -12.1083  -44.5645 H         1 UNK         0.0600 
    179 H179        0.5063  -11.9445  -42.9049 H         1 UNK         0.3000 
    180 H180       -2.2092  -13.6207  -41.5447 H         1 UNK         0.0600 
    181 H181       -0.8413  -11.3235  -40.0661 H         1 UNK         0.0600 
    182 H182       -1.3527  -12.8505  -39.3575 H         1 UNK         0.0600 
    183 H183       -2.5546  -11.7343  -39.9833 H         1 UNK         0.0600 
    184 H184       -1.6268  -10.8684  -42.2971 H         1 UNK         0.3000 
    185 H185       -1.8363  -14.1873  -43.8551 H         1 UNK         0.0600 
    186 H186       -4.2253  -14.9118  -44.1519 H         1 UNK         0.0600 
    187 H187       -4.0907  -13.8830  -42.7375 H         1 UNK         0.0600 
    188 H188       -4.7370  -13.2313  -44.2322 H         1 UNK         0.0600 
    189 H189       -3.4033  -13.7750  -46.1873 H         1 UNK         0.3000 
    190 H190       -2.8011  -19.6787  -44.3992 H         1 UNK         0.3000 
    191 H191       -5.3392  -18.9596  -45.5004 H         1 UNK         0.0600 
    192 H192       -6.0982  -19.2169  -43.0974 H         1 UNK         0.0600 
    193 H193       -4.5055  -19.8420  -42.6867 H         1 UNK         0.0600 
    194 H194       -4.6927  -18.1881  -43.2796 H         1 UNK         0.0600 
    195 H195       -3.9066  -22.0854  -44.7618 H         1 UNK         0.3000 
    196 H196       -6.4816  -23.5214  -45.1813 H         1 UNK         0.0600 
    197 H197       -5.1560  -25.5204  -44.5444 H         1 UNK         0.0600 
    198 H198       -5.0782  -24.2937  -43.2892 H         1 UNK         0.0600 
    199 H199       -3.7067  -24.5393  -44.3671 H         1 UNK         0.0600 
    200 H200       -3.1194  -23.2736  -46.4654 H         1 UNK         0.3000 
    201 H201       -3.4844  -25.1258  -48.5445 H         1 UNK         0.0600 
    202 H202       -1.2791  -24.4251  -47.5574 H         1 UNK         0.0600 
    203 H203       -1.3979  -22.8956  -48.4240 H         1 UNK         0.0600 
    204 H204       -1.2863  -24.4037  -49.3131 H         1 UNK         0.0600 
    205 H205       -4.2443  -21.6677  -48.5612 H         1 UNK         0.3000 
    206 H206       -4.3229  -21.1951  -51.3251 H         1 UNK         0.0600 
    207 H207       -4.4159  -19.3694  -49.7282 H         1 UNK         0.0600 
    208 H208       -5.8853  -19.3117  -50.6813 H         1 UNK         0.0600 
    209 H209       -5.9340  -19.9531  -49.0425 H         1 UNK         0.0600 
    210 H210       -6.4943  -23.1924  -49.4829 H         1 UNK         0.3000 
    211 H211       -8.7983  -23.1275  -51.1695 H         1 UNK         0.0600 
    212 H212       -7.6654  -25.3831  -49.4275 H         1 UNK         0.0600 
    213 H213       -9.2985  -25.3134  -50.0793 H         1 UNK         0.0600 
    214 H214       -8.7815  -24.1297  -48.8878 H         1 UNK         0.0600 
    215 H215       -5.6285  -24.5877  -51.5730 H         1 UNK         0.3000 
    216 H216       -6.4502  -25.8801  -54.1482 H         1 UNK         0.0600 
    217 H217       -4.4608  -27.3216  -53.8072 H         1 UNK         0.0600 
    218 H218       -5.5360  -27.4666  -52.4277 H         1 UNK         0.0600 
    219 H219       -4.0738  -26.4896  -52.3042 H         1 UNK         0.0600 
    220 H220       -5.5568  -23.0019  -53.2156 H         1 UNK         0.3000 
    221 H221       -4.4221  -21.2542  -53.8718 H         1 UNK         0.0600 
    222 H222       -3.7114  -22.7171  -56.4620 H         1 UNK         0.0600 
    223 H223       -5.2604  -21.9274  -56.1580 H         1 UNK         0.0600 
    224 H224       -3.7862  -20.9818  -56.1901 H         1 UNK         0.0600 
    225 H225       -2.9192  -23.8071  -52.8116 H         1 UNK         0.3000 
    226 H226       -0.9803  -24.4368  -51.9943 H         1 UNK         0.0600 
    227 H227       -1.3818  -22.2346  -50.8269 H         1 UNK         0.0600 
    228 H228       -0.3294  -21.4475  -51.9921 H         1 UNK         0.0600 
    229 H229        0.3221  -22.6607  -50.8961 H         1 UNK         0.0600 
    230 H230       -0.9424  -23.6092  -55.0683 H         1 UNK         0.3000 
    231 H231        0.3687  -23.4439  -56.8361 H         1 UNK         0.0600 
    232 H232        1.4180  -25.6094  -56.1006 H         1 UNK         0.0600 
    233 H233        2.6581  -24.7027  -55.2349 H         1 UNK         0.0600 
    234 H234        2.5353  -24.5826  -56.9830 H         1 UNK         0.0600 
    235 H235        0.1352  -21.3217  -54.8113 H         1 UNK         0.3000 
    236 H236        2.6150  -19.7056  -55.3037 H         1 UNK         0.0600 
    237 H237        2.1508  -18.6520  -53.1301 H         1 UNK         0.0600 
    238 H238        0.6773  -19.5862  -52.9354 H         1 UNK         0.0600 
    239 H239        2.2454  -20.3934  -52.9011 H         1 UNK         0.0600 
    240 H240       -0.9699  -19.7419  -55.2242 H         1 UNK         0.3000 
    241 H241       -1.0028  -17.1293  -56.6465 H         1 UNK         0.0600 
    242 H242       -2.6841  -20.0035  -58.6001 H         1 UNK         0.3800 
    243 H243       -1.2845  -20.1426  -57.5678 H         1 UNK         0.3800 
    244 H244       -1.6364  -16.6458  -54.3967 H         1 UNK         0.0800 
    245 H245       -3.0461  -16.5038  -55.3993 H         1 UNK         0.0800 
    246 H246       -4.0163  -17.8889  -51.6731 H         1 UNK         0.0800 
    247 H247       -3.6933  -16.4201  -52.5518 H         1 UNK         0.0800 
@<TRIPOS>BOND
     1    1    2 1    
     2    1  127 1    
     3    1  128 1    
     4    1  129 1    
     5    2    3 2    
     6    2    4 am   BACKBONE|DICT|INTERRES
     7    4    5 1    
     8    4  130 1    
     9    5    6 1    
    10    5   65 1    
    11    5  131 1    
    12    6    7 1    
    13    6  132 1    
    14    6  133 1    
    15    7    8 1    
    16    8    9 1    
    17    8  134 1    
    18    8  135 1    
    19    9   10 ar   
    20    9   14 ar   
    21   10   11 ar   
    22   10  136 1    
    23   11   12 ar   
    24   11  126 1    
    25   12   13 ar   
    26   12  137 1    
    27   13   14 ar   
    28   13   15 1    
    29   14  138 1    
    30   15   16 1    
    31   15  139 1    
    32   15  140 1    
    33   16   17 1    
    34   17   18 1    
    35   17  141 1    
    36   17  142 1    
    37   18   19 1    
    38   18   67 1    
    39   18  143 1    
    40   19   20 am   BACKBONE|DICT|INTERRES
    41   19  144 1    
    42   20   21 2    
    43   20   22 1    
    44   22   23 1    
    45   22   24 1    
    46   22  145 1    
    47   23  146 1    
    48   23  147 1    
    49   23  148 1    
    50   24   25 am   BACKBONE|DICT|INTERRES
    51   24  149 1    
    52   25   26 2    
    53   25   27 1    
    54   27   28 1    
    55   27   29 1    
    56   27  150 1    
    57   28  151 1    
    58   28  152 1    
    59   28  153 1    
    60   29   30 am   BACKBONE|DICT|INTERRES
    61   29  154 1    
    62   30   31 2    
    63   30   32 1    
    64   32   33 1    
    65   32   34 1    
    66   32  155 1    
    67   33  156 1    
    68   33  157 1    
    69   33  158 1    
    70   34   35 am   BACKBONE|DICT|INTERRES
    71   34  159 1    
    72   35   36 2    
    73   35   37 1    
    74   37   38 1    
    75   37   39 1    
    76   37  160 1    
    77   38  161 1    
    78   38  162 1    
    79   38  163 1    
    80   39   40 am   BACKBONE|DICT|INTERRES
    81   39  164 1    
    82   40   41 2    
    83   40   42 1    
    84   42   43 1    
    85   42   44 1    
    86   42  165 1    
    87   43  166 1    
    88   43  167 1    
    89   43  168 1    
    90   44   45 am   BACKBONE|DICT|INTERRES
    91   44  169 1    
    92   45   46 2    
    93   45   47 1    
    94   47   48 1    
    95   47   49 1    
    96   47  170 1    
    97   48  171 1    
    98   48  172 1    
    99   48  173 1    
   100   49   50 am   BACKBONE|DICT|INTERRES
   101   49  174 1    
   102   50   51 2    
   103   50   52 1    
   104   52   53 1    
   105   52   54 1    
   106   52  175 1    
   107   53  176 1    
   108   53  177 1    
   109   53  178 1    
   110   54   55 am   BACKBONE|DICT|INTERRES
   111   54  179 1    
   112   55   56 2    
   113   55   57 1    
   114   57   58 1    
   115   57   59 1    
   116   57  180 1    
   117   58  181 1    
   118   58  182 1    
   119   58  183 1    
   120   59   60 am   BACKBONE|DICT|INTERRES
   121   59  184 1    
   122   60   61 2    
   123   60   62 1    
   124   62   63 1    
   125   62   64 1    
   126   62  185 1    
   127   63  186 1    
   128   63  187 1    
   129   63  188 1    
   130   64   65 am   BACKBONE|DICT|INTERRES
   131   64  189 1    
   132   65   66 2    
   133   67   68 2    
   134   67   69 am   BACKBONE|DICT|INTERRES
   135   69   70 1    
   136   69  190 1    
   137   70   71 1    
   138   70   72 1    
   139   70  191 1    
   140   71  192 1    
   141   71  193 1    
   142   71  194 1    
   143   72   73 2    
   144   72   74 am   BACKBONE|DICT|INTERRES
   145   74   75 1    
   146   74  195 1    
   147   75   76 1    
   148   75   77 1    
   149   75  196 1    
   150   76  197 1    
   151   76  198 1    
   152   76  199 1    
   153   77   78 2    
   154   77   79 am   BACKBONE|DICT|INTERRES
   155   79   80 1    
   156   79  200 1    
   157   80   81 1    
   158   80   82 1    
   159   80  201 1    
   160   81  202 1    
   161   81  203 1    
   162   81  204 1    
   163   82   83 2    
   164   82   84 am   BACKBONE|DICT|INTERRES
   165   84   85 1    
   166   84  205 1    
   167   85   86 1    
   168   85   87 1    
   169   85  206 1    
   170   86  207 1    
   171   86  208 1    
   172   86  209 1    
   173   87   88 2    
   174   87   89 am   BACKBONE|DICT|INTERRES
   175   89   90 1    
   176   89  210 1    
   177   90   91 1    
   178   90   92 1    
   179   90  211 1    
   180   91  212 1    
   181   91  213 1    
   182   91  214 1    
   183   92   93 2    
   184   92   94 am   BACKBONE|DICT|INTERRES
   185   94   95 1    
   186   94  215 1    
   187   95   96 1    
   188   95   97 1    
   189   95  216 1    
   190   96  217 1    
   191   96  218 1    
   192   96  219 1    
   193   97   98 2    
   194   97   99 am   BACKBONE|DICT|INTERRES
   195   99  100 1    
   196   99  220 1    
   197  100  101 1    
   198  100  102 1    
   199  100  221 1    
   200  101  222 1    
   201  101  223 1    
   202  101  224 1    
   203  102  103 2    
   204  102  104 am   BACKBONE|DICT|INTERRES
   205  104  105 1    
   206  104  225 1    
   207  105  106 1    
   208  105  107 1    
   209  105  226 1    
   210  106  227 1    
   211  106  228 1    
   212  106  229 1    
   213  107  108 2    
   214  107  109 am   BACKBONE|DICT|INTERRES
   215  109  110 1    
   216  109  230 1    
   217  110  111 1    
   218  110  112 1    
   219  110  231 1    
   220  111  232 1    
   221  111  233 1    
   222  111  234 1    
   223  112  113 2    
   224  112  114 am   BACKBONE|DICT|INTERRES
   225  114  115 1    
   226  114  235 1    
   227  115  116 1    
   228  115  117 1    
   229  115  236 1    
   230  116  237 1    
   231  116  238 1    
   232  116  239 1    
   233  117  118 2    
   234  117  119 am   BACKBONE|DICT|INTERRES
   235  119  120 1    
   236  119  240 1    
   237  120  121 1    
   238  120  124 1    
   239  120  241 1    
   240  121  122 am   BACKBONE|DICT|INTERRES
   241  121  123 2    
   242  122  242 1    
   243  122  243 1    
   244  124  125 1    
   245  124  244 1    
   246  124  245 1    
   247  125  126 1    
   248  126  246 1    
   249  126  247 1    
@<TRIPOS>SUBSTRUCTURE
     1 UNK         1 GROUP             0       ****    0 ROOT    
