@<TRIPOS>MOLECULE
3R540
247   249    1
SMALL
USER_CHARGES


@<TRIPOS>ATOM
      1 CA         -5.2031  -17.1147  -49.7446 C.3       0 UNK        -0.1800 
      2 C          -4.6810  -15.6958  -49.9087 C.2       0 UNK         0.5000 
      3 O          -5.4334  -14.8097  -50.3129 O.2       0 UNK        -0.5000 
      4 N          -3.3970  -15.4776  -49.5927 N.am      1 UNK        -0.5000 
      5 CA         -2.7322  -14.1669  -49.6598 C.3       1 UNK         0.1400 
      6 C6         -1.1913  -14.2769  -49.5433 C.3       23 UNK        -0.0398 
      7 S7         -0.4614  -15.3732  -50.7998 S.3       23 UNK        -0.2404 
      8 C8          1.2342  -15.5320  -50.1559 C.3       23 UNK        -0.0205 
      9 C9          2.0577  -16.5203  -50.9697 C.ar      23 UNK        -0.0193 
     10 C10         2.3821  -16.2354  -52.2998 C.ar      23 UNK        -0.1150 
     11 C11         3.1364  -17.1353  -53.0578 C.ar      23 UNK        -0.0193 
     12 C12         3.5848  -18.3202  -52.4683 C.ar      23 UNK        -0.1150 
     13 C13         3.2630  -18.6226  -51.1418 C.ar      23 UNK        -0.0193 
     14 C14         2.5053  -17.7144  -50.3947 C.ar      23 UNK        -0.1150 
     15 C15         3.7446  -19.9277  -50.5238 C.3       23 UNK        -0.0205 
     16 S16         2.3847  -21.1234  -50.3149 S.3       23 UNK        -0.2404 
     17 C17         1.7986  -20.7284  -48.6320 C.3       23 UNK        -0.0398 
     18 CA          1.3388  -21.9904  -47.8561 C.3       11 UNK         0.1400 
     19 N           1.6163  -21.8836  -46.4198 N.am      11 UNK        -0.5000 
     20 C           1.5524  -22.9057  -45.5538 C.2       10 UNK         0.5000 
     21 O           1.3368  -24.0718  -45.8846 O.2       10 UNK        -0.5000 
     22 CA          1.7414  -22.5685  -44.0635 C.3       10 UNK         0.1400 
     23 CB          3.2329  -22.5530  -43.6967 C.3       10 UNK        -0.1800 
     24 N           1.1305  -21.2926  -43.6874 N.am      10 UNK        -0.5000 
     25 C          -0.1884  -21.0516  -43.6846 C.2       9 UNK         0.5000 
     26 O          -1.0407  -21.8997  -43.9501 O.2       9 UNK        -0.5000 
     27 CA         -0.6304  -19.6093  -43.3753 C.3       9 UNK         0.1400 
     28 CB         -0.6464  -19.3598  -41.8609 C.3       9 UNK        -0.1800 
     29 N           0.2064  -18.6032  -44.0310 N.am      9 UNK        -0.5000 
     30 C           0.3450  -18.4684  -45.3579 C.2       8 UNK         0.5000 
     31 O          -0.2460  -19.1601  -46.1843 O.2       8 UNK        -0.5000 
     32 CA          1.3566  -17.4195  -45.8453 C.3       8 UNK         0.1400 
     33 CB          0.7466  -16.0094  -45.8276 C.3       8 UNK        -0.1800 
     34 N           2.5869  -17.4450  -45.0552 N.am      8 UNK        -0.5000 
     35 C           3.4685  -18.4554  -45.0711 C.2       7 UNK         0.5000 
     36 O           3.3508  -19.4546  -45.7799 O.2       7 UNK        -0.5000 
     37 CA          4.6551  -18.3497  -44.0972 C.3       7 UNK         0.1400 
     38 CB          5.7487  -17.4356  -44.6694 C.3       7 UNK        -0.1800 
     39 N           4.2522  -17.8618  -42.7775 N.am      7 UNK        -0.5000 
     40 C           3.4549  -18.5336  -41.9346 C.2       6 UNK         0.5000 
     41 O           2.9977  -19.6509  -42.1702 O.2       6 UNK        -0.5000 
     42 CA          3.0648  -17.8159  -40.6296 C.3       6 UNK         0.1400 
     43 CB          4.1295  -18.0473  -39.5471 C.3       6 UNK        -0.1800 
     44 N           2.8450  -16.3763  -40.7976 N.am      6 UNK        -0.5000 
     45 C           1.9089  -15.8380  -41.5891 C.2       5 UNK         0.5000 
     46 O           1.1596  -16.4970  -42.3147 O.2       5 UNK        -0.5000 
     47 CA          1.8328  -14.3047  -41.6195 C.3       5 UNK         0.1400 
     48 CB          2.6556  -13.7566  -42.7958 C.3       5 UNK        -0.1800 
     49 N           0.4446  -13.8811  -41.7730 N.am      5 UNK        -0.5000 
     50 C          -0.4380  -13.7798  -40.7702 C.2       4 UNK         0.5000 
     51 O          -0.1456  -13.9124  -39.5811 O.2       4 UNK        -0.5000 
     52 CA         -1.8973  -13.4977  -41.1711 C.3       4 UNK         0.1400 
     53 CB         -2.1382  -11.9875  -41.3209 C.3       4 UNK        -0.1800 
     54 N          -2.2517  -14.1657  -42.4238 N.am      4 UNK        -0.5000 
     55 C          -2.5556  -15.4669  -42.5355 C.2       3 UNK         0.5000 
     56 O          -2.6432  -16.2256  -41.5699 O.2       3 UNK        -0.5000 
     57 CA         -2.7739  -16.0129  -43.9654 C.3       3 UNK         0.1400 
     58 CB         -3.8374  -17.1289  -44.0312 C.3       3 UNK        -0.1800 
     59 N          -3.0300  -14.9702  -44.9713 N.am      3 UNK        -0.5000 
     60 C          -4.0905  -14.1462  -45.0472 C.2       2 UNK         0.5000 
     61 O          -5.0481  -14.1694  -44.2754 O.2       2 UNK        -0.5000 
     62 CA         -4.0554  -13.1143  -46.1836 C.3       2 UNK         0.1400 
     63 CB         -3.1960  -11.9079  -45.7462 C.3       2 UNK        -0.1800 
     64 N          -3.5390  -13.7598  -47.3922 N.am      2 UNK        -0.5000 
     65 C          -3.2629  -13.2021  -48.5783 C.2       1 UNK         0.5000 
     66 O          -3.4079  -12.0082  -48.8420 O.2       1 UNK        -0.5000 
     67 C          -0.1502  -22.3005  -48.1216 C.2       11 UNK         0.5000 
     68 O          -0.4606  -23.1231  -48.9829 O.2       11 UNK        -0.5000 
     69 N          -1.0318  -21.6352  -47.3621 N.am      12 UNK        -0.5000 
     70 CA         -2.4819  -21.7732  -47.4192 C.3       12 UNK         0.1400 
     71 CB         -3.1337  -20.6483  -46.5918 C.3       12 UNK        -0.1800 
     72 C          -2.9515  -23.1614  -46.9609 C.2       12 UNK         0.5000 
     73 O          -3.5510  -23.8818  -47.7568 O.2       12 UNK        -0.5000 
     74 N          -2.6699  -23.5004  -45.6930 N.am      13 UNK        -0.5000 
     75 CA         -3.0859  -24.7244  -44.9991 C.3       13 UNK         0.1400 
     76 CB         -2.2358  -25.9179  -45.4886 C.3       13 UNK        -0.1800 
     77 C          -4.6154  -24.9532  -45.0892 C.2       13 UNK         0.5000 
     78 O          -5.3793  -24.0016  -44.9072 O.2       13 UNK        -0.5000 
     79 N          -5.0409  -26.1892  -45.3801 N.am      14 UNK        -0.5000 
     80 CA         -6.4045  -26.5078  -45.8014 C.3       14 UNK         0.1400 
     81 CB         -6.6888  -27.9906  -45.5161 C.3       14 UNK        -0.1800 
     82 C          -6.5512  -26.1994  -47.3029 C.2       14 UNK         0.5000 
     83 O          -5.6430  -26.5274  -48.0693 O.2       14 UNK        -0.5000 
     84 N          -7.6862  -25.5937  -47.6851 N.am      15 UNK        -0.5000 
     85 CA         -7.9799  -25.0273  -49.0098 C.3       15 UNK         0.1400 
     86 CB         -7.9863  -26.1086  -50.1117 C.3       15 UNK        -0.1800 
     87 C          -7.0324  -23.8486  -49.3124 C.2       15 UNK         0.5000 
     88 O          -6.1537  -23.9490  -50.1710 O.2       15 UNK        -0.5000 
     89 N          -7.2292  -22.7586  -48.5539 N.am      16 UNK        -0.5000 
     90 CA         -6.3471  -21.5914  -48.4332 C.3       16 UNK         0.1400 
     91 CB         -6.9914  -20.5672  -47.4872 C.3       16 UNK        -0.1800 
     92 C          -5.9134  -20.9086  -49.7430 C.2       16 UNK         0.5000 
     93 O          -4.8416  -20.3019  -49.7758 O.2       16 UNK        -0.5000 
     94 N          -6.7115  -21.0653  -50.8089 N.am      17 UNK        -0.5000 
     95 CA         -6.4175  -20.6362  -52.1800 C.3       17 UNK         0.1400 
     96 CB         -7.5925  -21.0299  -53.0867 C.3       17 UNK        -0.1800 
     97 C          -5.0903  -21.1801  -52.7526 C.2       17 UNK         0.5000 
     98 O          -4.5563  -20.5863  -53.6886 O.2       17 UNK        -0.5000 
     99 N          -4.5480  -22.2517  -52.1544 N.am      18 UNK        -0.5000 
    100 CA        -3.2050  -22.7753  -52.4034 C.3       18 UNK         0.1400 
    101 CB        -2.9682  -23.9967  -51.5049 C.3       18 UNK        -0.1800 
    102 C         -2.0778  -21.7389  -52.2064 C.2       18 UNK         0.5000 
    103 O         -1.0831  -21.8076  -52.9286 O.2       18 UNK        -0.5000 
    104 N         -2.2594  -20.7784  -51.2838 N.am      19 UNK        -0.5000 
    105 CA        -1.3342  -19.6586  -51.0936 C.3       19 UNK         0.1400 
    106 CB        -1.6332  -18.9275  -49.7774 C.3       19 UNK        -0.1800 
    107 C         -1.3840  -18.6740  -52.2706 C.2       19 UNK         0.5000 
    108 O         -0.3372  -18.3016  -52.7921 O.2       19 UNK        -0.5000 
    109 N         -2.6000  -18.3089  -52.7017 N.am      20 UNK        -0.5000 
    110 CA        -2.8381  -17.4116  -53.8364 C.3       20 UNK         0.1400 
    111 CB        -4.3272  -17.0370  -53.8866 C.3       20 UNK        -0.1800 
    112 C         -2.3704  -18.0075  -55.1796 C.2       20 UNK         0.5000 
    113 O         -1.9121  -17.2680  -56.0507 O.2       20 UNK        -0.5000 
    114 N         -2.4616  -19.3379  -55.3028 N.am      21 UNK        -0.5000 
    115 CA        -1.9144  -20.1277  -56.4059 C.3       21 UNK         0.1400 
    116 CB        -2.6285  -21.4885  -56.4275 C.3       21 UNK        -0.1800 
    117 C         -0.3835  -20.3233  -56.3258 C.2       21 UNK         0.5000 
    118 O          0.2046  -20.8092  -57.2932 O.2       21 UNK        -0.5000 
    119 N          0.2293  -19.9589  -55.1914 N.am      22 UNK        -0.5000 
    120 CA         1.6563  -20.1103  -54.8668 C.3       22 UNK         0.1400 
    121 C          2.1263  -21.5936  -54.7745 C.2       22 UNK         0.5000 
    122 N          1.2965  -22.5033  -54.2803 N.am      22 UNK        -0.7600 
    123 O          3.2503  -21.9313  -55.1383 O.2       22 UNK        -0.5000 
    124 C124        2.5871  -19.2238  -55.7438 C.3       23 UNK        -0.0398 
    125 S125        2.1905  -17.4416  -55.6527 S.3       23 UNK        -0.2404 
    126 C126        3.4684  -16.8217  -54.5096 C.3       23 UNK        -0.0205 
    127 H127       -6.2700  -17.1075  -49.5218 H         1 UNK         0.0600 
    128 H128       -4.6979  -17.6318  -48.9287 H         1 UNK         0.0600 
    129 H129       -5.0514  -17.6807  -50.6632 H         1 UNK         0.0600 
    130 H130       -2.8137  -16.2511  -49.3106 H         1 UNK         0.3000 
    131 H131       -2.9643  -13.7267  -50.6322 H         1 UNK         0.0600 
    132 H132       -0.9069  -14.6457  -48.5563 H         1 UNK         0.0800 
    133 H133       -0.7301  -13.2931  -49.6500 H         1 UNK         0.0800 
    134 H134        1.7212  -14.5561  -50.1749 H         1 UNK         0.0800 
    135 H135        1.1945  -15.8407  -49.1102 H         1 UNK         0.0800 
    136 H136        2.0301  -15.3179  -52.7497 H         1 UNK         0.1150 
    137 H137        4.1722  -19.0165  -53.0498 H         1 UNK         0.1150 
    138 H138        2.2611  -17.9407  -49.3673 H         1 UNK         0.1150 
    139 H139        4.5006  -20.3869  -51.1626 H         1 UNK         0.0800 
    140 H140        4.2430  -19.7292  -49.5743 H         1 UNK         0.0800 
    141 H141        1.0176  -19.9680  -48.6834 H         1 UNK         0.0800 
    142 H142        2.6245  -20.2584  -48.1008 H         1 UNK         0.0800 
    143 H143        1.9171  -22.8454  -48.2139 H         1 UNK         0.0600 
    144 H144        1.8576  -20.9643  -46.0685 H         1 UNK         0.3000 
    145 H145        1.2572  -23.3561  -43.4824 H         1 UNK         0.0600 
    146 H146        3.3730  -22.4076  -42.6255 H         1 UNK         0.0600 
    147 H147        3.7113  -23.4966  -43.9619 H         1 UNK         0.0600 
    148 H148        3.7667  -21.7557  -44.2148 H         1 UNK         0.0600 
    149 H149        1.7646  -20.5581  -43.3867 H         1 UNK         0.3000 
    150 H150       -1.6477  -19.4843  -43.7492 H         1 UNK         0.0600 
    151 H151       -1.3255  -20.0501  -41.3593 H         1 UNK         0.0600 
    152 H152       -0.9802  -18.3487  -41.6300 H         1 UNK         0.0600 
    153 H153        0.3413  -19.4924  -41.4202 H         1 UNK         0.0600 
    154 H154        0.7045  -17.9601  -43.4204 H         1 UNK         0.3000 
    155 H155        1.6117  -17.6624  -46.8791 H         1 UNK         0.0600 
    156 H156        1.4376  -15.2775  -46.2463 H         1 UNK         0.0600 
    157 H157        0.4919  -15.6890  -44.8173 H         1 UNK         0.0600 
    158 H158       -0.1645  -15.9741  -46.4256 H         1 UNK         0.0600 
    159 H159        2.7275  -16.6886  -44.4030 H         1 UNK         0.3000 
    160 H160        5.0754  -19.3504  -43.9754 H         1 UNK         0.0600 
    161 H161        5.3986  -16.4092  -44.7868 H         1 UNK         0.0600 
    162 H162        6.0755  -17.7854  -45.6497 H         1 UNK         0.0600 
    163 H163        6.6262  -17.4190  -44.0228 H         1 UNK         0.0600 
    164 H164        4.5834  -16.9488  -42.5035 H         1 UNK         0.3000 
    165 H165        2.1274  -18.2540  -40.2817 H         1 UNK         0.0600 
    166 H166        3.8195  -17.6237  -38.5917 H         1 UNK         0.0600 
    167 H167        4.2990  -19.1132  -39.3882 H         1 UNK         0.0600 
    168 H168        5.0862  -17.5997  -39.8192 H         1 UNK         0.0600 
    169 H169        3.4302  -15.7661  -40.2451 H         1 UNK         0.3000 
    170 H170        2.2375  -13.9016  -40.6886 H         1 UNK         0.0600 
    171 H171        3.7048  -14.0409  -42.7063 H         1 UNK         0.0600 
    172 H172        2.2943  -14.1314  -43.7542 H         1 UNK         0.0600 
    173 H173        2.6175  -12.6676  -42.8277 H         1 UNK         0.0600 
    174 H174        0.1039  -13.8059  -42.7185 H         1 UNK         0.3000 
    175 H175       -2.5451  -13.8689  -40.3740 H         1 UNK         0.0600 
    176 H176       -1.5223  -11.5548  -42.1103 H         1 UNK         0.0600 
    177 H177       -3.1817  -11.7770  -41.5564 H         1 UNK         0.0600 
    178 H178       -1.9021  -11.4618  -40.3948 H         1 UNK         0.0600 
    179 H179       -2.2300  -13.6054  -43.2615 H         1 UNK         0.3000 
    180 H180       -1.8232  -16.4678  -44.2431 H         1 UNK         0.0600 
    181 H181       -3.9257  -17.5294  -45.0412 H         1 UNK         0.0600 
    182 H182       -4.8202  -16.7734  -43.7219 H         1 UNK         0.0600 
    183 H183       -3.5744  -17.9611  -43.3776 H         1 UNK         0.0600 
    184 H184       -2.2805  -14.8198  -45.6307 H         1 UNK         0.3000 
    185 H185       -5.0768  -12.7815  -46.3774 H         1 UNK         0.0600 
    186 H186       -3.5025  -11.5429  -44.7647 H         1 UNK         0.0600 
    187 H187       -2.1379  -12.1646  -45.6856 H         1 UNK         0.0600 
    188 H188       -3.2978  -11.0694  -46.4340 H         1 UNK         0.0600 
    189 H189       -3.4661  -14.7657  -47.3307 H         1 UNK         0.3000 
    190 H190       -0.6792  -20.9291  -46.7221 H         1 UNK         0.3000 
    191 H191       -2.7913  -21.6506  -48.4589 H         1 UNK         0.0600 
    192 H192       -4.2091  -20.7855  -46.4971 H         1 UNK         0.0600 
    193 H193       -2.9723  -19.6740  -47.0523 H         1 UNK         0.0600 
    194 H194       -2.7324  -20.6047  -45.5809 H         1 UNK         0.0600 
    195 H195       -2.1515  -22.8367  -45.1212 H         1 UNK         0.3000 
    196 H196       -2.8622  -24.5663  -43.9433 H         1 UNK         0.0600 
    197 H197       -2.4433  -26.1647  -46.5308 H         1 UNK         0.0600 
    198 H198       -1.1716  -25.6930  -45.4109 H         1 UNK         0.0600 
    199 H199       -2.4161  -26.8096  -44.8875 H         1 UNK         0.0600 
    200 H200       -4.3464  -26.8973  -45.5683 H         1 UNK         0.3000 
    201 H201       -7.1145  -25.9037  -45.2324 H         1 UNK         0.0600 
    202 H202       -6.0089  -28.6452  -46.0631 H         1 UNK         0.0600 
    203 H203       -7.7056  -28.2551  -45.8088 H         1 UNK         0.0600 
    204 H204       -6.5874  -28.2140  -44.4539 H         1 UNK         0.0600 
    205 H205       -8.3741  -25.3922  -46.9727 H         1 UNK         0.3000 
    206 H206       -8.9904  -24.6189  -48.9572 H         1 UNK         0.0600 
    207 H207       -8.6673  -26.9219  -49.8613 H         1 UNK         0.0600 
    208 H208       -8.3174  -25.6870  -51.0613 H         1 UNK         0.0600 
    209 H209       -6.9986  -26.5383  -50.2792 H         1 UNK         0.0600 
    210 H210       -7.9907  -22.7865  -47.8916 H         1 UNK         0.3000 
    211 H211       -5.4363  -21.9603  -47.9670 H         1 UNK         0.0600 
    212 H212       -6.3558  -19.6887  -47.3654 H         1 UNK         0.0600 
    213 H213       -7.1485  -20.9906  -46.4949 H         1 UNK         0.0600 
    214 H214       -7.9551  -20.2238  -47.8650 H         1 UNK         0.0600 
    215 H215       -7.5572  -21.6009  -50.6815 H         1 UNK         0.3000 
    216 H216       -6.3394  -19.5474  -52.1707 H         1 UNK         0.0600 
    217 H217       -7.7377  -22.1108  -53.1077 H         1 UNK         0.0600 
    218 H218       -7.4222  -20.7011  -54.1130 H         1 UNK         0.0600 
    219 H219       -8.5225  -20.5710  -52.7507 H         1 UNK         0.0600 
    220 H220       -5.0725  -22.7042  -51.4118 H         1 UNK         0.3000 
    221 H221       -3.1717  -23.1049  -53.4432 H         1 UNK         0.0600 
    222 H222       -1.9817  -24.4279  -51.6799 H         1 UNK         0.0600 
    223 H223       -3.7054  -24.7773  -51.6937 H         1 UNK         0.0600 
    224 H224       -3.0263  -23.7313  -50.4486 H         1 UNK         0.0600 
    225 H225       -3.1199  -20.7633  -50.7459 H         1 UNK         0.3000 
    226 H226       -0.3196  -20.0568  -51.0353 H         1 UNK         0.0600 
    227 H227       -1.4730  -19.5742  -48.9215 H         1 UNK         0.0600 
    228 H228       -0.9718  -18.0708  -49.6477 H         1 UNK         0.0600 
    229 H229       -2.6597  -18.5678  -49.7387 H         1 UNK         0.0600 
    230 H230       -3.4124  -18.7141  -52.2624 H         1 UNK         0.3000 
    231 H231       -2.2633  -16.4989  -53.6639 H         1 UNK         0.0600 
    232 H232       -4.9610  -17.9131  -54.0255 H         1 UNK         0.0600 
    233 H233       -4.5282  -16.3537  -54.7126 H         1 UNK         0.0600 
    234 H234       -4.6395  -16.5362  -52.9704 H         1 UNK         0.0600 
    235 H235       -2.9375  -19.8534  -54.5688 H         1 UNK         0.3000 
    236 H236       -2.1312  -19.6121  -57.3435 H         1 UNK         0.0600 
    237 H237       -3.7089  -21.3678  -56.5087 H         1 UNK         0.0600 
    238 H238       -2.3029  -22.0892  -57.2776 H         1 UNK         0.0600 
    239 H239       -2.4220  -22.0611  -55.5231 H         1 UNK         0.0600 
    240 H240       -0.3233  -19.5396  -54.4538 H         1 UNK         0.3000 
    241 H241        1.7438  -19.7476  -53.8441 H         1 UNK         0.0600 
    242 H242        1.5939  -23.4627  -54.2132 H         1 UNK         0.3800 
    243 H243        0.3929  -22.2263  -53.8982 H         1 UNK         0.3800 
    244 H244        2.5284  -19.5329  -56.7879 H         1 UNK         0.0800 
    245 H245        3.6300  -19.3615  -55.4559 H         1 UNK         0.0800 
    246 H246        4.4437  -17.2304  -54.7776 H         1 UNK         0.0800 
    247 H247        3.5522  -15.7415  -54.6378 H         1 UNK         0.0800 
@<TRIPOS>BOND
     1    1    2 1    
     2    1  127 1    
     3    1  128 1    
     4    1  129 1    
     5    2    3 2    
     6    2    4 am   BACKBONE|DICT|INTERRES
     7    4    5 1    
     8    4  130 1    
     9    5    6 1    
    10    5   65 1    
    11    5  131 1    
    12    6    7 1    
    13    6  132 1    
    14    6  133 1    
    15    7    8 1    
    16    8    9 1    
    17    8  134 1    
    18    8  135 1    
    19    9   10 ar   
    20    9   14 ar   
    21   10   11 ar   
    22   10  136 1    
    23   11   12 ar   
    24   11  126 1    
    25   12   13 ar   
    26   12  137 1    
    27   13   14 ar   
    28   13   15 1    
    29   14  138 1    
    30   15   16 1    
    31   15  139 1    
    32   15  140 1    
    33   16   17 1    
    34   17   18 1    
    35   17  141 1    
    36   17  142 1    
    37   18   19 1    
    38   18   67 1    
    39   18  143 1    
    40   19   20 am   BACKBONE|DICT|INTERRES
    41   19  144 1    
    42   20   21 2    
    43   20   22 1    
    44   22   23 1    
    45   22   24 1    
    46   22  145 1    
    47   23  146 1    
    48   23  147 1    
    49   23  148 1    
    50   24   25 am   BACKBONE|DICT|INTERRES
    51   24  149 1    
    52   25   26 2    
    53   25   27 1    
    54   27   28 1    
    55   27   29 1    
    56   27  150 1    
    57   28  151 1    
    58   28  152 1    
    59   28  153 1    
    60   29   30 am   BACKBONE|DICT|INTERRES
    61   29  154 1    
    62   30   31 2    
    63   30   32 1    
    64   32   33 1    
    65   32   34 1    
    66   32  155 1    
    67   33  156 1    
    68   33  157 1    
    69   33  158 1    
    70   34   35 am   BACKBONE|DICT|INTERRES
    71   34  159 1    
    72   35   36 2    
    73   35   37 1    
    74   37   38 1    
    75   37   39 1    
    76   37  160 1    
    77   38  161 1    
    78   38  162 1    
    79   38  163 1    
    80   39   40 am   BACKBONE|DICT|INTERRES
    81   39  164 1    
    82   40   41 2    
    83   40   42 1    
    84   42   43 1    
    85   42   44 1    
    86   42  165 1    
    87   43  166 1    
    88   43  167 1    
    89   43  168 1    
    90   44   45 am   BACKBONE|DICT|INTERRES
    91   44  169 1    
    92   45   46 2    
    93   45   47 1    
    94   47   48 1    
    95   47   49 1    
    96   47  170 1    
    97   48  171 1    
    98   48  172 1    
    99   48  173 1    
   100   49   50 am   BACKBONE|DICT|INTERRES
   101   49  174 1    
   102   50   51 2    
   103   50   52 1    
   104   52   53 1    
   105   52   54 1    
   106   52  175 1    
   107   53  176 1    
   108   53  177 1    
   109   53  178 1    
   110   54   55 am   BACKBONE|DICT|INTERRES
   111   54  179 1    
   112   55   56 2    
   113   55   57 1    
   114   57   58 1    
   115   57   59 1    
   116   57  180 1    
   117   58  181 1    
   118   58  182 1    
   119   58  183 1    
   120   59   60 am   BACKBONE|DICT|INTERRES
   121   59  184 1    
   122   60   61 2    
   123   60   62 1    
   124   62   63 1    
   125   62   64 1    
   126   62  185 1    
   127   63  186 1    
   128   63  187 1    
   129   63  188 1    
   130   64   65 am   BACKBONE|DICT|INTERRES
   131   64  189 1    
   132   65   66 2    
   133   67   68 2    
   134   67   69 am   BACKBONE|DICT|INTERRES
   135   69   70 1    
   136   69  190 1    
   137   70   71 1    
   138   70   72 1    
   139   70  191 1    
   140   71  192 1    
   141   71  193 1    
   142   71  194 1    
   143   72   73 2    
   144   72   74 am   BACKBONE|DICT|INTERRES
   145   74   75 1    
   146   74  195 1    
   147   75   76 1    
   148   75   77 1    
   149   75  196 1    
   150   76  197 1    
   151   76  198 1    
   152   76  199 1    
   153   77   78 2    
   154   77   79 am   BACKBONE|DICT|INTERRES
   155   79   80 1    
   156   79  200 1    
   157   80   81 1    
   158   80   82 1    
   159   80  201 1    
   160   81  202 1    
   161   81  203 1    
   162   81  204 1    
   163   82   83 2    
   164   82   84 am   BACKBONE|DICT|INTERRES
   165   84   85 1    
   166   84  205 1    
   167   85   86 1    
   168   85   87 1    
   169   85  206 1    
   170   86  207 1    
   171   86  208 1    
   172   86  209 1    
   173   87   88 2    
   174   87   89 am   BACKBONE|DICT|INTERRES
   175   89   90 1    
   176   89  210 1    
   177   90   91 1    
   178   90   92 1    
   179   90  211 1    
   180   91  212 1    
   181   91  213 1    
   182   91  214 1    
   183   92   93 2    
   184   92   94 am   BACKBONE|DICT|INTERRES
   185   94   95 1    
   186   94  215 1    
   187   95   96 1    
   188   95   97 1    
   189   95  216 1    
   190   96  217 1    
   191   96  218 1    
   192   96  219 1    
   193   97   98 2    
   194   97   99 am   BACKBONE|DICT|INTERRES
   195   99  100 1    
   196   99  220 1    
   197  100  101 1    
   198  100  102 1    
   199  100  221 1    
   200  101  222 1    
   201  101  223 1    
   202  101  224 1    
   203  102  103 2    
   204  102  104 am   BACKBONE|DICT|INTERRES
   205  104  105 1    
   206  104  225 1    
   207  105  106 1    
   208  105  107 1    
   209  105  226 1    
   210  106  227 1    
   211  106  228 1    
   212  106  229 1    
   213  107  108 2    
   214  107  109 am   BACKBONE|DICT|INTERRES
   215  109  110 1    
   216  109  230 1    
   217  110  111 1    
   218  110  112 1    
   219  110  231 1    
   220  111  232 1    
   221  111  233 1    
   222  111  234 1    
   223  112  113 2    
   224  112  114 am   BACKBONE|DICT|INTERRES
   225  114  115 1    
   226  114  235 1    
   227  115  116 1    
   228  115  117 1    
   229  115  236 1    
   230  116  237 1    
   231  116  238 1    
   232  116  239 1    
   233  117  118 2    
   234  117  119 am   BACKBONE|DICT|INTERRES
   235  119  120 1    
   236  119  240 1    
   237  120  121 1    
   238  120  124 1    
   239  120  241 1    
   240  121  122 am   BACKBONE|DICT|INTERRES
   241  121  123 2    
   242  122  242 1    
   243  122  243 1    
   244  124  125 1    
   245  124  244 1    
   246  124  245 1    
   247  125  126 1    
   248  126  246 1    
   249  126  247 1    
@<TRIPOS>SUBSTRUCTURE
     1 UNK         1 GROUP             0       ****    0 ROOT    
