@<TRIPOS>MOLECULE
3R540
247   249    1
SMALL
USER_CHARGES


@<TRIPOS>ATOM
      1 CA         -2.8577  -12.7493  -51.4183 C.3       0 UNK        -0.1800 
      2 C          -2.2624  -13.6678  -50.3616 C.2       0 UNK         0.5000 
      3 O          -2.9288  -14.6020  -49.9213 O.2       0 UNK        -0.5000 
      4 N          -1.0119  -13.4074  -49.9537 N.am      1 UNK        -0.5000 
      5 CA         -0.2253  -14.1325  -48.9438 C.3       1 UNK         0.1400 
      6 C6         -0.0357  -15.6426  -49.2616 C.3       23 UNK        -0.0398 
      7 S7          1.3660  -16.3918  -48.3587 S.3       23 UNK        -0.2404 
      8 C8          2.5725  -16.7333  -49.6766 C.3       23 UNK        -0.0205 
      9 C9          2.4664  -18.1510  -50.2269 C.ar      23 UNK        -0.0193 
     10 C10         2.0429  -18.3720  -51.5415 C.ar      23 UNK        -0.1150 
     11 C11         2.0633  -19.6593  -52.0906 C.ar      23 UNK        -0.0193 
     12 C12         2.5026  -20.7300  -51.3073 C.ar      23 UNK        -0.1150 
     13 C13         2.9106  -20.5286  -49.9854 C.ar      23 UNK        -0.0193 
     14 C14         2.8839  -19.2373  -49.4490 C.ar      23 UNK        -0.1150 
     15 C15         3.4535  -21.6975  -49.1743 C.3       23 UNK        -0.0205 
     16 S16         2.1810  -22.9480  -48.8120 S.3       23 UNK        -0.2404 
     17 C17         1.4009  -22.2850  -47.3017 C.3       23 UNK        -0.0398 
     18 CA          0.8386  -23.4115  -46.4009 C.3       11 UNK         0.1400 
     19 N           0.6040  -22.9468  -45.0348 N.am      11 UNK        -0.5000 
     20 C           0.3693  -23.7450  -43.9843 C.2       10 UNK         0.5000 
     21 O           0.4175  -24.9733  -44.0329 O.2       10 UNK        -0.5000 
     22 CA         -0.0323  -23.0528  -42.6693 C.3       10 UNK         0.1400 
     23 CB          1.2060  -22.5916  -41.8858 C.3       10 UNK        -0.1800 
     24 N          -0.9229  -21.9149  -42.9010 N.am      10 UNK        -0.5000 
     25 C          -2.1763  -22.0185  -43.3663 C.2       9 UNK         0.5000 
     26 O          -2.7400  -23.0905  -43.5869 O.2       9 UNK        -0.5000 
     27 CA         -2.9052  -20.6996  -43.6728 C.3       9 UNK         0.1400 
     28 CB         -3.5942  -20.1524  -42.4141 C.3       9 UNK        -0.1800 
     29 N          -2.0044  -19.6845  -44.2187 N.am      9 UNK        -0.5000 
     30 C          -1.4789  -19.7245  -45.4527 C.2       8 UNK         0.5000 
     31 O          -1.6841  -20.6299  -46.2568 O.2       8 UNK        -0.5000 
     32 CA         -0.5301  -18.5789  -45.8392 C.3       8 UNK         0.1400 
     33 CB         -1.3550  -17.3421  -46.2056 C.3       8 UNK        -0.1800 
     34 N           0.3960  -18.2236  -44.7660 N.am      8 UNK        -0.5000 
     35 C           1.2496  -19.0654  -44.1664 C.2       7 UNK         0.5000 
     36 O           1.4267  -20.2274  -44.5305 O.2       7 UNK        -0.5000 
     37 CA          1.9878  -18.5468  -42.9156 C.3       7 UNK         0.1400 
     38 CB          3.4259  -18.1458  -43.2754 C.3       7 UNK        -0.1800 
     39 N           1.3326  -17.4144  -42.2537 N.am      7 UNK        -0.5000 
     40 C           0.0766  -17.3805  -41.7814 C.2       6 UNK         0.5000 
     41 O          -0.6869  -18.3465  -41.8113 O.2       6 UNK        -0.5000 
     42 CA         -0.4270  -16.0327  -41.2234 C.3       6 UNK         0.1400 
     43 CB         -0.5401  -16.0951  -39.6928 C.3       6 UNK        -0.1800 
     44 N           0.4139  -14.8876  -41.5929 N.am      6 UNK        -0.5000 
     45 C           0.5420  -14.3906  -42.8309 C.2       5 UNK         0.5000 
     46 O          -0.0496  -14.8388  -43.8140 O.2       5 UNK        -0.5000 
     47 CA          1.5697  -13.2645  -42.9938 C.3       5 UNK         0.1400 
     48 CB          2.9753  -13.8563  -43.2129 C.3       5 UNK        -0.1800 
     49 N           1.2200  -12.3956  -44.1149 N.am      5 UNK        -0.5000 
     50 C           1.6381  -11.1281  -44.2375 C.2       4 UNK         0.5000 
     51 O           2.3320  -10.5560  -43.3953 O.2       4 UNK        -0.5000 
     52 CA          1.2187  -10.3588  -45.4996 C.3       4 UNK         0.1400 
     53 CB          2.1175  -10.7327  -46.6899 C.3       4 UNK        -0.1800 
     54 N          -0.1792  -10.6067  -45.8439 N.am      4 UNK        -0.5000 
     55 C          -1.2049   -9.8341  -45.4582 C.2       3 UNK         0.5000 
     56 O          -1.0749   -8.8262  -44.7622 O.2       3 UNK        -0.5000 
     57 CA         -2.6154  -10.2311  -45.9403 C.3       3 UNK         0.1400 
     58 CB         -3.0221   -9.3868  -47.1581 C.3       3 UNK        -0.1800 
     59 N          -2.7218  -11.6448  -46.2952 N.am      3 UNK        -0.5000 
     60 C          -2.7790  -12.6499  -45.4122 C.2       2 UNK         0.5000 
     61 O          -2.8417  -12.4867  -44.1934 O.2       2 UNK        -0.5000 
     62 CA         -2.7334  -14.0762  -45.9908 C.3       2 UNK         0.1400 
     63 CB         -4.1502  -14.6491  -46.1443 C.3       2 UNK        -0.1800 
     64 N          -2.0416  -14.1784  -47.2795 N.am      2 UNK        -0.5000 
     65 C          -0.7540  -13.8896  -47.5122 C.2       1 UNK         0.5000 
     66 O          -0.0057  -13.4055  -46.6636 O.2       1 UNK        -0.5000 
     67 C          -0.4331  -24.0563  -46.9935 C.2       11 UNK         0.5000 
     68 O          -0.3675  -25.1762  -47.5038 O.2       11 UNK        -0.5000 
     69 N          -1.5796  -23.3678  -46.8747 N.am      12 UNK        -0.5000 
     70 CA         -2.8846  -23.7863  -47.3969 C.3       12 UNK         0.1400 
     71 CB         -3.9188  -22.6752  -47.1780 C.3       12 UNK        -0.1800 
     72 C          -3.4074  -25.1198  -46.8355 C.2       12 UNK         0.5000 
     73 O          -4.2076  -25.7703  -47.5046 O.2       12 UNK        -0.5000 
     74 N          -2.9106  -25.5438  -45.6661 N.am      13 UNK        -0.5000 
     75 CA         -3.1564  -26.8681  -45.0899 C.3       13 UNK         0.1400 
     76 CB         -2.5020  -26.9427  -43.7028 C.3       13 UNK        -0.1800 
     77 C          -2.6733  -28.0335  -45.9833 C.2       13 UNK         0.5000 
     78 O          -3.2179  -29.1331  -45.8750 O.2       13 UNK        -0.5000 
     79 N          -1.6886  -27.7712  -46.8552 N.am      14 UNK        -0.5000 
     80 CA         -1.1977  -28.6996  -47.8716 C.3       14 UNK         0.1400 
     81 CB          0.3130  -28.9036  -47.6748 C.3       14 UNK        -0.1800 
     82 C          -1.4889  -28.1840  -49.2927 C.2       14 UNK         0.5000 
     83 O          -1.9046  -28.9680  -50.1464 O.2       14 UNK        -0.5000 
     84 N          -1.2491  -26.8875  -49.5335 N.am      15 UNK        -0.5000 
     85 CA         -1.2815  -26.2702  -50.8617 C.3       15 UNK         0.1400 
     86 CB         -0.3722  -25.0321  -50.8436 C.3       15 UNK        -0.1800 
     87 C          -2.6866  -25.8784  -51.3545 C.2       15 UNK         0.5000 
     88 O          -2.8481  -25.6488  -52.5539 O.2       15 UNK        -0.5000 
     89 N          -3.6613  -25.7703  -50.4390 N.am      16 UNK        -0.5000 
     90 CA         -5.0491  -25.3223  -50.6254 C.3       16 UNK         0.1400 
     91 CB         -5.8246  -26.2547  -51.5769 C.3       16 UNK        -0.1800 
     92 C          -5.1818  -23.8438  -51.0435 C.2       16 UNK         0.5000 
     93 O          -5.7735  -23.0507  -50.3116 O.2       16 UNK        -0.5000 
     94 N          -4.6313  -23.4977  -52.2113 N.am      17 UNK        -0.5000 
     95 CA         -4.7731  -22.1965  -52.8654 C.3       17 UNK         0.1400 
     96 CB         -4.5570  -22.3874  -54.3740 C.3       17 UNK        -0.1800 
     97 C          -3.8419  -21.1021  -52.3087 C.2       17 UNK         0.5000 
     98 O          -4.0052  -19.9355  -52.6708 O.2       17 UNK        -0.5000 
     99 N          -2.8851  -21.4650  -51.4416 N.am      18 UNK        -0.5000 
    100 CA        -1.9076  -20.5462  -50.8423 C.3       18 UNK         0.1400 
    101 CB        -0.8807  -21.3351  -50.0275 C.3       18 UNK        -0.1800 
    102 C         -2.5247  -19.4189  -49.9961 C.2       18 UNK         0.5000 
    103 O         -1.9224  -18.3533  -49.8905 O.2       18 UNK        -0.5000 
    104 N         -3.7490  -19.6309  -49.4939 N.am      19 UNK        -0.5000 
    105 CA        -4.5768  -18.6233  -48.8255 C.3       19 UNK         0.1400 
    106 CB        -5.8028  -19.3224  -48.2180 C.3       19 UNK        -0.1800 
    107 C         -5.0089  -17.4499  -49.7364 C.2       19 UNK         0.5000 
    108 O         -5.4966  -16.4446  -49.2199 O.2       19 UNK        -0.5000 
    109 N         -4.8310  -17.5964  -51.0569 N.am      20 UNK        -0.5000 
    110 CA        -5.0399  -16.5673  -52.0735 C.3       20 UNK         0.1400 
    111 CB        -6.2833  -16.9402  -52.9006 C.3       20 UNK        -0.1800 
    112 C         -3.7843  -16.3932  -52.9567 C.2       20 UNK         0.5000 
    113 O         -3.9012  -15.9109  -54.0836 O.2       20 UNK        -0.5000 
    114 N         -2.6096  -16.7859  -52.4376 N.am      21 UNK        -0.5000 
    115 CA        -1.2917  -16.7531  -53.0848 C.3       21 UNK         0.1400 
    116 CB        -0.8156  -15.3085  -53.3480 C.3       21 UNK        -0.1800 
    117 C         -1.1637  -17.6553  -54.3309 C.2       21 UNK         0.5000 
    118 O         -0.3938  -17.3379  -55.2398 O.2       21 UNK        -0.5000 
    119 N         -1.8643  -18.7950  -54.3214 N.am      22 UNK        -0.5000 
    120 CA        -1.7717  -19.8751  -55.3182 C.3       22 UNK         0.1400 
    121 C         -2.3564  -19.4997  -56.7157 C.2       22 UNK         0.5000 
    122 N         -2.1519  -20.3212  -57.7381 N.am      22 UNK        -0.7600 
    123 O         -3.0424  -18.4944  -56.8858 O.2       22 UNK        -0.5000 
    124 C124       -0.3563  -20.5278  -55.3887 C.3       23 UNK        -0.0398 
    125 S125        0.2863  -21.0298  -53.7516 S.3       23 UNK        -0.2404 
    126 C126        1.6860  -19.8793  -53.5500 C.3       23 UNK        -0.0205 
    127 H127       -3.1396  -13.3261  -52.2992 H         1 UNK         0.0600 
    128 H128       -2.1536  -11.9771  -51.7286 H         1 UNK         0.0600 
    129 H129       -3.7512  -12.2611  -51.0294 H         1 UNK         0.0600 
    130 H130       -0.5387  -12.6083  -50.3527 H         1 UNK         0.3000 
    131 H131        0.7621  -13.6695  -48.9874 H         1 UNK         0.0600 
    132 H132        0.1189  -15.7860  -50.3307 H         1 UNK         0.0800 
    133 H133       -0.9395  -16.1999  -49.0196 H         1 UNK         0.0800 
    134 H134        3.5732  -16.5993  -49.2635 H         1 UNK         0.0800 
    135 H135        2.4797  -15.9920  -50.4717 H         1 UNK         0.0800 
    136 H136        1.7433  -17.5327  -52.1525 H         1 UNK         0.1150 
    137 H137        2.5404  -21.7232  -51.7327 H         1 UNK         0.1150 
    138 H138        3.2249  -19.0672  -48.4374 H         1 UNK         0.1150 
    139 H139        4.2483  -22.1749  -49.7490 H         1 UNK         0.0800 
    140 H140        3.9189  -21.3549  -48.2491 H         1 UNK         0.0800 
    141 H141        0.6325  -21.5579  -47.5642 H         1 UNK         0.0800 
    142 H142        2.1584  -21.7279  -46.7491 H         1 UNK         0.0800 
    143 H143        1.5972  -24.1949  -46.3362 H         1 UNK         0.0600 
    144 H144        0.6211  -21.9418  -44.8867 H         1 UNK         0.3000 
    145 H145       -0.5688  -23.7819  -42.0582 H         1 UNK         0.0600 
    146 H146        0.9251  -22.1167  -40.9456 H         1 UNK         0.0600 
    147 H147        1.8069  -21.8825  -42.4546 H         1 UNK         0.0600 
    148 H148        1.8475  -23.4395  -41.6427 H         1 UNK         0.0600 
    149 H149       -0.5384  -20.9922  -42.7586 H         1 UNK         0.3000 
    150 H150       -3.6776  -20.9045  -44.4160 H         1 UNK         0.0600 
    151 H151       -4.3119  -20.8728  -42.0197 H         1 UNK         0.0600 
    152 H152       -4.1405  -19.2343  -42.6308 H         1 UNK         0.0600 
    153 H153       -2.8774  -19.9372  -41.6209 H         1 UNK         0.0600 
    154 H154       -1.7189  -18.9473  -43.5849 H         1 UNK         0.3000 
    155 H155        0.0585  -18.8856  -46.7065 H         1 UNK         0.0600 
    156 H156       -1.8965  -17.4955  -47.1388 H         1 UNK         0.0600 
    157 H157       -0.7113  -16.4756  -46.3346 H         1 UNK         0.0600 
    158 H158       -2.0839  -17.0947  -45.4332 H         1 UNK         0.0600 
    159 H159        0.3256  -17.2807  -44.4075 H         1 UNK         0.3000 
    160 H160        2.0266  -19.3682  -42.1978 H         1 UNK         0.0600 
    161 H161        3.4464  -17.3048  -43.9699 H         1 UNK         0.0600 
    162 H162        3.9566  -18.9742  -43.7471 H         1 UNK         0.0600 
    163 H163        3.9920  -17.8634  -42.3876 H         1 UNK         0.0600 
    164 H164        1.8769  -16.5687  -42.1802 H         1 UNK         0.3000 
    165 H165       -1.4249  -15.8665  -41.6346 H         1 UNK         0.0600 
    166 H166       -0.9689  -15.1769  -39.2908 H         1 UNK         0.0600 
    167 H167       -1.1869  -16.9166  -39.3813 H         1 UNK         0.0600 
    168 H168        0.4324  -16.2469  -39.2229 H         1 UNK         0.0600 
    169 H169        0.9477  -14.4710  -40.8432 H         1 UNK         0.3000 
    170 H170        1.5664  -12.6755  -42.0740 H         1 UNK         0.0600 
    171 H171        3.0229  -14.4402  -44.1332 H         1 UNK         0.0600 
    172 H172        3.7317  -13.0738  -43.2754 H         1 UNK         0.0600 
    173 H173        3.2616  -14.5129  -42.3906 H         1 UNK         0.0600 
    174 H174        0.6537  -12.8244  -44.8432 H         1 UNK         0.3000 
    175 H175        1.3647   -9.2941  -45.3046 H         1 UNK         0.0600 
    176 H176        2.0622  -11.7950  -46.9279 H         1 UNK         0.0600 
    177 H177        1.8398  -10.1741  -47.5837 H         1 UNK         0.0600 
    178 H178        3.1614  -10.5023  -46.4739 H         1 UNK         0.0600 
    179 H179       -0.3667  -11.4676  -46.3445 H         1 UNK         0.3000 
    180 H180       -3.3151  -10.0202  -45.1287 H         1 UNK         0.0600 
    181 H181       -4.0412   -9.6129  -47.4726 H         1 UNK         0.0600 
    182 H182       -2.3610   -9.5609  -48.0081 H         1 UNK         0.0600 
    183 H183       -2.9842   -8.3218  -46.9255 H         1 UNK         0.0600 
    184 H184       -2.6844  -11.8745  -47.2771 H         1 UNK         0.3000 
    185 H185       -2.1932  -14.6929  -45.2729 H         1 UNK         0.0600 
    186 H186       -4.7323  -14.0887  -46.8771 H         1 UNK         0.0600 
    187 H187       -4.1224  -15.6899  -46.4680 H         1 UNK         0.0600 
    188 H188       -4.6911  -14.6173  -45.1978 H         1 UNK         0.0600 
    189 H189       -2.5882  -14.5151  -48.0690 H         1 UNK         0.3000 
    190 H190       -1.5511  -22.4347  -46.4680 H         1 UNK         0.3000 
    191 H191       -2.7651  -23.9188  -48.4731 H         1 UNK         0.0600 
    192 H192       -4.8871  -22.9503  -47.5980 H         1 UNK         0.0600 
    193 H193       -3.6104  -21.7499  -47.6613 H         1 UNK         0.0600 
    194 H194       -4.0672  -22.4718  -46.1181 H         1 UNK         0.0600 
    195 H195       -2.2869  -24.9313  -45.1575 H         1 UNK         0.3000 
    196 H196       -4.2356  -26.9759  -44.9651 H         1 UNK         0.0600 
    197 H197       -2.8437  -26.1322  -43.0583 H         1 UNK         0.0600 
    198 H198       -1.4155  -26.8850  -43.7690 H         1 UNK         0.0600 
    199 H199       -2.7494  -27.8815  -43.2057 H         1 UNK         0.0600 
    200 H200       -1.2962  -26.8359  -46.8743 H         1 UNK         0.3000 
    201 H201       -1.6836  -29.6724  -47.7729 H         1 UNK         0.0600 
    202 H202        0.5256  -29.3364  -46.6971 H         1 UNK         0.0600 
    203 H203        0.8612  -27.9634  -47.7497 H         1 UNK         0.0600 
    204 H204        0.7178  -29.5826  -48.4264 H         1 UNK         0.0600 
    205 H205       -0.8872  -26.3035  -48.7820 H         1 UNK         0.3000 
    206 H206       -0.8708  -26.9769  -51.5861 H         1 UNK         0.0600 
    207 H207       -0.7189  -24.2963  -50.1190 H         1 UNK         0.0600 
    208 H208        0.6522  -25.2978  -50.5820 H         1 UNK         0.0600 
    209 H209       -0.3417  -24.5452  -51.8195 H         1 UNK         0.0600 
    210 H210       -3.4316  -26.0032  -49.4805 H         1 UNK         0.3000 
    211 H211       -5.5299  -25.4064  -49.6509 H         1 UNK         0.0600 
    212 H212       -5.4264  -26.2395  -52.5915 H         1 UNK         0.0600 
    213 H213       -6.8734  -25.9613  -51.6368 H         1 UNK         0.0600 
    214 H214       -5.7962  -27.2853  -51.2233 H         1 UNK         0.0600 
    215 H215       -4.0958  -24.2092  -52.7023 H         1 UNK         0.3000 
    216 H216       -5.7962  -21.8450  -52.7164 H         1 UNK         0.0600 
    217 H217       -4.7024  -21.4513  -54.9148 H         1 UNK         0.0600 
    218 H218       -5.2671  -23.1059  -54.7837 H         1 UNK         0.0600 
    219 H219       -3.5523  -22.7508  -54.5934 H         1 UNK         0.0600 
    220 H220       -2.8057  -22.4416  -51.2038 H         1 UNK         0.3000 
    221 H221       -1.3774  -20.0530  -51.6571 H         1 UNK         0.0600 
    222 H222       -1.3505  -21.8998  -49.2241 H         1 UNK         0.0600 
    223 H223       -0.3251  -22.0263  -50.6604 H         1 UNK         0.0600 
    224 H224       -0.1504  -20.6608  -49.5786 H         1 UNK         0.0600 
    225 H225       -4.1799  -20.5296  -49.6555 H         1 UNK         0.3000 
    226 H226       -3.9913  -18.1957  -48.0100 H         1 UNK         0.0600 
    227 H227       -5.5065  -20.0762  -47.4886 H         1 UNK         0.0600 
    228 H228       -6.4452  -18.6093  -47.6998 H         1 UNK         0.0600 
    229 H229       -6.4056  -19.8127  -48.9836 H         1 UNK         0.0600 
    230 H230       -4.4653  -18.4757  -51.4083 H         1 UNK         0.3000 
    231 H231       -5.2158  -15.5994  -51.5997 H         1 UNK         0.0600 
    232 H232       -6.5158  -16.1690  -53.6357 H         1 UNK         0.0600 
    233 H233       -7.1604  -17.0529  -52.2632 H         1 UNK         0.0600 
    234 H234       -6.1367  -17.8778  -53.4387 H         1 UNK         0.0600 
    235 H235       -2.6110  -17.1389  -51.4864 H         1 UNK         0.3000 
    236 H236       -0.6085  -17.1853  -52.3535 H         1 UNK         0.0600 
    237 H237       -1.4709  -14.7813  -54.0412 H         1 UNK         0.0600 
    238 H238       -0.7639  -14.7357  -52.4273 H         1 UNK         0.0600 
    239 H239        0.1884  -15.2936  -53.7734 H         1 UNK         0.0600 
    240 H240       -2.5373  -18.9536  -53.5801 H         1 UNK         0.3000 
    241 H241       -2.4468  -20.6401  -54.9442 H         1 UNK         0.0600 
    242 H242       -1.6245  -21.1747  -57.6463 H         1 UNK         0.3800 
    243 H243       -2.5473  -20.0836  -58.6349 H         1 UNK         0.3800 
    244 H244        0.3514  -19.8598  -55.8812 H         1 UNK         0.0800 
    245 H245       -0.3851  -21.4306  -55.9994 H         1 UNK         0.0800 
    246 H246        2.5489  -20.2759  -54.0864 H         1 UNK         0.0800 
    247 H247        1.4509  -18.9246  -54.0196 H         1 UNK         0.0800 
@<TRIPOS>BOND
     1    1    2 1    
     2    1  127 1    
     3    1  128 1    
     4    1  129 1    
     5    2    3 2    
     6    2    4 am   BACKBONE|DICT|INTERRES
     7    4    5 1    
     8    4  130 1    
     9    5    6 1    
    10    5   65 1    
    11    5  131 1    
    12    6    7 1    
    13    6  132 1    
    14    6  133 1    
    15    7    8 1    
    16    8    9 1    
    17    8  134 1    
    18    8  135 1    
    19    9   10 ar   
    20    9   14 ar   
    21   10   11 ar   
    22   10  136 1    
    23   11   12 ar   
    24   11  126 1    
    25   12   13 ar   
    26   12  137 1    
    27   13   14 ar   
    28   13   15 1    
    29   14  138 1    
    30   15   16 1    
    31   15  139 1    
    32   15  140 1    
    33   16   17 1    
    34   17   18 1    
    35   17  141 1    
    36   17  142 1    
    37   18   19 1    
    38   18   67 1    
    39   18  143 1    
    40   19   20 am   BACKBONE|DICT|INTERRES
    41   19  144 1    
    42   20   21 2    
    43   20   22 1    
    44   22   23 1    
    45   22   24 1    
    46   22  145 1    
    47   23  146 1    
    48   23  147 1    
    49   23  148 1    
    50   24   25 am   BACKBONE|DICT|INTERRES
    51   24  149 1    
    52   25   26 2    
    53   25   27 1    
    54   27   28 1    
    55   27   29 1    
    56   27  150 1    
    57   28  151 1    
    58   28  152 1    
    59   28  153 1    
    60   29   30 am   BACKBONE|DICT|INTERRES
    61   29  154 1    
    62   30   31 2    
    63   30   32 1    
    64   32   33 1    
    65   32   34 1    
    66   32  155 1    
    67   33  156 1    
    68   33  157 1    
    69   33  158 1    
    70   34   35 am   BACKBONE|DICT|INTERRES
    71   34  159 1    
    72   35   36 2    
    73   35   37 1    
    74   37   38 1    
    75   37   39 1    
    76   37  160 1    
    77   38  161 1    
    78   38  162 1    
    79   38  163 1    
    80   39   40 am   BACKBONE|DICT|INTERRES
    81   39  164 1    
    82   40   41 2    
    83   40   42 1    
    84   42   43 1    
    85   42   44 1    
    86   42  165 1    
    87   43  166 1    
    88   43  167 1    
    89   43  168 1    
    90   44   45 am   BACKBONE|DICT|INTERRES
    91   44  169 1    
    92   45   46 2    
    93   45   47 1    
    94   47   48 1    
    95   47   49 1    
    96   47  170 1    
    97   48  171 1    
    98   48  172 1    
    99   48  173 1    
   100   49   50 am   BACKBONE|DICT|INTERRES
   101   49  174 1    
   102   50   51 2    
   103   50   52 1    
   104   52   53 1    
   105   52   54 1    
   106   52  175 1    
   107   53  176 1    
   108   53  177 1    
   109   53  178 1    
   110   54   55 am   BACKBONE|DICT|INTERRES
   111   54  179 1    
   112   55   56 2    
   113   55   57 1    
   114   57   58 1    
   115   57   59 1    
   116   57  180 1    
   117   58  181 1    
   118   58  182 1    
   119   58  183 1    
   120   59   60 am   BACKBONE|DICT|INTERRES
   121   59  184 1    
   122   60   61 2    
   123   60   62 1    
   124   62   63 1    
   125   62   64 1    
   126   62  185 1    
   127   63  186 1    
   128   63  187 1    
   129   63  188 1    
   130   64   65 am   BACKBONE|DICT|INTERRES
   131   64  189 1    
   132   65   66 2    
   133   67   68 2    
   134   67   69 am   BACKBONE|DICT|INTERRES
   135   69   70 1    
   136   69  190 1    
   137   70   71 1    
   138   70   72 1    
   139   70  191 1    
   140   71  192 1    
   141   71  193 1    
   142   71  194 1    
   143   72   73 2    
   144   72   74 am   BACKBONE|DICT|INTERRES
   145   74   75 1    
   146   74  195 1    
   147   75   76 1    
   148   75   77 1    
   149   75  196 1    
   150   76  197 1    
   151   76  198 1    
   152   76  199 1    
   153   77   78 2    
   154   77   79 am   BACKBONE|DICT|INTERRES
   155   79   80 1    
   156   79  200 1    
   157   80   81 1    
   158   80   82 1    
   159   80  201 1    
   160   81  202 1    
   161   81  203 1    
   162   81  204 1    
   163   82   83 2    
   164   82   84 am   BACKBONE|DICT|INTERRES
   165   84   85 1    
   166   84  205 1    
   167   85   86 1    
   168   85   87 1    
   169   85  206 1    
   170   86  207 1    
   171   86  208 1    
   172   86  209 1    
   173   87   88 2    
   174   87   89 am   BACKBONE|DICT|INTERRES
   175   89   90 1    
   176   89  210 1    
   177   90   91 1    
   178   90   92 1    
   179   90  211 1    
   180   91  212 1    
   181   91  213 1    
   182   91  214 1    
   183   92   93 2    
   184   92   94 am   BACKBONE|DICT|INTERRES
   185   94   95 1    
   186   94  215 1    
   187   95   96 1    
   188   95   97 1    
   189   95  216 1    
   190   96  217 1    
   191   96  218 1    
   192   96  219 1    
   193   97   98 2    
   194   97   99 am   BACKBONE|DICT|INTERRES
   195   99  100 1    
   196   99  220 1    
   197  100  101 1    
   198  100  102 1    
   199  100  221 1    
   200  101  222 1    
   201  101  223 1    
   202  101  224 1    
   203  102  103 2    
   204  102  104 am   BACKBONE|DICT|INTERRES
   205  104  105 1    
   206  104  225 1    
   207  105  106 1    
   208  105  107 1    
   209  105  226 1    
   210  106  227 1    
   211  106  228 1    
   212  106  229 1    
   213  107  108 2    
   214  107  109 am   BACKBONE|DICT|INTERRES
   215  109  110 1    
   216  109  230 1    
   217  110  111 1    
   218  110  112 1    
   219  110  231 1    
   220  111  232 1    
   221  111  233 1    
   222  111  234 1    
   223  112  113 2    
   224  112  114 am   BACKBONE|DICT|INTERRES
   225  114  115 1    
   226  114  235 1    
   227  115  116 1    
   228  115  117 1    
   229  115  236 1    
   230  116  237 1    
   231  116  238 1    
   232  116  239 1    
   233  117  118 2    
   234  117  119 am   BACKBONE|DICT|INTERRES
   235  119  120 1    
   236  119  240 1    
   237  120  121 1    
   238  120  124 1    
   239  120  241 1    
   240  121  122 am   BACKBONE|DICT|INTERRES
   241  121  123 2    
   242  122  242 1    
   243  122  243 1    
   244  124  125 1    
   245  124  244 1    
   246  124  245 1    
   247  125  126 1    
   248  126  246 1    
   249  126  247 1    
@<TRIPOS>SUBSTRUCTURE
     1 UNK         1 GROUP             0       ****    0 ROOT    
