@<TRIPOS>MOLECULE
3R540
247   249    1
SMALL
USER_CHARGES


@<TRIPOS>ATOM
      1 CA         -1.4544   -9.2610  -44.6584 C.3       0 UNK        -0.1800 
      2 C          -1.3144   -9.6904  -46.1120 C.2       0 UNK         0.5000 
      3 O          -0.3284   -9.3435  -46.7616 O.2       0 UNK        -0.5000 
      4 N          -2.2983  -10.4399  -46.6236 N.am      1 UNK        -0.5000 
      5 CA         -2.3261  -10.9803  -47.9891 C.3       1 UNK         0.1400 
      6 C6         -3.7712  -11.2590  -48.4796 C.3       23 UNK        -0.0398 
      7 S7         -4.8140  -12.2003  -47.3070 S.3       23 UNK        -0.2404 
      8 C8         -5.3007  -13.6525  -48.2915 C.3       23 UNK        -0.0205 
      9 C9         -4.2233  -14.7244  -48.2917 C.ar      23 UNK        -0.0193 
     10 C10        -3.4031  -14.9124  -49.4081 C.ar      23 UNK        -0.1150 
     11 C11        -2.4149  -15.9014  -49.4015 C.ar      23 UNK        -0.0193 
     12 C12        -2.2615  -16.7131  -48.2742 C.ar      23 UNK        -0.1150 
     13 C13        -3.0754  -16.5342  -47.1522 C.ar      23 UNK        -0.0193 
     14 C14        -4.0531  -15.5368  -47.1671 C.ar      23 UNK        -0.1150 
     15 C15        -2.8710  -17.3872  -45.9109 C.3       23 UNK        -0.0205 
     16 S16        -4.2434  -18.5512  -45.6358 S.3       23 UNK        -0.2404 
     17 C17        -3.5647  -19.5483  -44.2639 C.3       23 UNK        -0.0398 
     18 CA         -3.2765  -21.0085  -44.6934 C.3       11 UNK         0.1400 
     19 N          -2.0048  -21.5202  -44.1590 N.am      11 UNK        -0.5000 
     20 C          -1.4100  -22.6559  -44.5547 C.2       10 UNK         0.5000 
     21 O          -1.9264  -23.4215  -45.3703 O.2       10 UNK        -0.5000 
     22 CA         -0.0219  -23.0100  -43.9850 C.3       10 UNK         0.1400 
     23 CB          0.9888  -23.2328  -45.1223 C.3       10 UNK        -0.1800 
     24 N           0.5182  -22.0123  -43.0610 N.am      10 UNK        -0.5000 
     25 C           0.1712  -21.8829  -41.7740 C.2       9 UNK         0.5000 
     26 O          -0.6649  -22.5952  -41.2178 O.2       9 UNK        -0.5000 
     27 CA          0.8458  -20.7393  -40.9925 C.3       9 UNK         0.1400 
     28 CB          2.2411  -21.1592  -40.5064 C.3       9 UNK        -0.1800 
     29 N           0.9517  -19.5109  -41.7825 N.am      9 UNK        -0.5000 
     30 C          -0.0954  -18.7700  -42.1703 C.2       8 UNK         0.5000 
     31 O          -1.2557  -19.0123  -41.8394 O.2       8 UNK        -0.5000 
     32 CA          0.1905  -17.5893  -43.1184 C.3       8 UNK         0.1400 
     33 CB          0.6466  -16.3526  -42.3307 C.3       8 UNK        -0.1800 
     34 N           1.1822  -17.9143  -44.1445 N.am      8 UNK        -0.5000 
     35 C           1.0143  -18.8353  -45.1053 C.2       7 UNK         0.5000 
     36 O          -0.0189  -19.4804  -45.2675 O.2       7 UNK        -0.5000 
     37 CA          2.2238  -19.1164  -46.0112 C.3       7 UNK         0.1400 
     38 CB          2.2938  -18.1008  -47.1631 C.3       7 UNK        -0.1800 
     39 N           3.4794  -19.1152  -45.2578 N.am      7 UNK        -0.5000 
     40 C           3.8131  -20.0475  -44.3522 C.2       6 UNK         0.5000 
     41 O           3.1124  -21.0233  -44.0879 O.2       6 UNK        -0.5000 
     42 CA          5.1242  -19.8264  -43.5760 C.3       6 UNK         0.1400 
     43 CB          6.3316  -20.2839  -44.4078 C.3       6 UNK        -0.1800 
     44 N           5.3087  -18.4308  -43.1782 N.am      6 UNK        -0.5000 
     45 C           4.5245  -17.7765  -42.3089 C.2       5 UNK         0.5000 
     46 O           3.5984  -18.3047  -41.6955 O.2       5 UNK        -0.5000 
     47 CA          4.7839  -16.2657  -42.1424 C.3       5 UNK         0.1400 
     48 CB          5.7971  -16.0132  -41.0165 C.3       5 UNK        -0.1800 
     49 N           5.2556  -15.6261  -43.3750 N.am      5 UNK        -0.5000 
     50 C           4.5576  -15.5764  -44.5168 C.2       4 UNK         0.5000 
     51 O           3.4118  -16.0221  -44.6381 O.2       4 UNK        -0.5000 
     52 CA          5.2881  -15.0029  -45.7379 C.3       4 UNK         0.1400 
     53 CB          6.4121  -15.9570  -46.1922 C.3       4 UNK        -0.1800 
     54 N           4.3178  -14.8296  -46.8110 N.am      4 UNK        -0.5000 
     55 C           4.4907  -14.1278  -47.9352 C.2       3 UNK         0.5000 
     56 O           5.5197  -13.5061  -48.2029 O.2       3 UNK        -0.5000 
     57 CA          3.3216  -14.1242  -48.9397 C.3       3 UNK         0.1400 
     58 CB          3.5653  -15.1658  -50.0430 C.3       3 UNK        -0.1800 
     59 N           2.0120  -14.3825  -48.3347 N.am      3 UNK        -0.5000 
     60 C           1.3620  -13.5277  -47.5353 C.2       2 UNK         0.5000 
     61 O           1.8264  -12.4497  -47.1578 O.2       2 UNK        -0.5000 
     62 CA         -0.0407  -13.9636  -47.0739 C.3       2 UNK         0.1400 
     63 CB          0.0141  -14.5808  -45.6686 C.3       2 UNK        -0.1800 
     64 N          -0.9879  -12.8493  -47.0793 N.am      2 UNK        -0.5000 
     65 C          -1.3982  -12.2009  -48.1801 C.2       1 UNK         0.5000 
     66 O          -1.0631  -12.5207  -49.3221 O.2       1 UNK        -0.5000 
     67 C          -4.4791  -21.9453  -44.4304 C.2       11 UNK         0.5000 
     68 O          -5.4383  -21.9331  -45.2015 O.2       11 UNK        -0.5000 
     69 N          -4.3737  -22.8039  -43.4045 N.am      12 UNK        -0.5000 
     70 CA         -5.3001  -23.9067  -43.1263 C.3       12 UNK         0.1400 
     71 CB         -4.9347  -24.5300  -41.7708 C.3       12 UNK        -0.1800 
     72 C          -5.3225  -24.9899  -44.2290 C.2       12 UNK         0.5000 
     73 O          -6.3334  -25.6757  -44.3811 O.2       12 UNK        -0.5000 
     74 N          -4.2270  -25.1006  -44.9925 N.am      13 UNK        -0.5000 
     75 CA         -4.0771  -25.9430  -46.1797 C.3       13 UNK         0.1400 
     76 CB         -2.7835  -26.7656  -46.0382 C.3       13 UNK        -0.1800 
     77 C          -4.0684  -25.0800  -47.4599 C.2       13 UNK         0.5000 
     78 O          -3.4624  -25.4699  -48.4608 O.2       13 UNK        -0.5000 
     79 N          -4.7061  -23.8998  -47.3969 N.am      14 UNK        -0.5000 
     80 CA         -4.8296  -22.8938  -48.4570 C.3       14 UNK         0.1400 
     81 CB         -5.7023  -23.4327  -49.6089 C.3       14 UNK        -0.1800 
     82 C          -3.4733  -22.3315  -48.9333 C.2       14 UNK         0.5000 
     83 O          -3.3333  -21.9929  -50.1063 O.2       14 UNK        -0.5000 
     84 N          -2.5015  -22.2579  -48.0103 N.am      15 UNK        -0.5000 
     85 CA         -1.1070  -21.8539  -48.2172 C.3       15 UNK         0.1400 
     86 CB         -1.0012  -20.3842  -48.6697 C.3       15 UNK        -0.1800 
     87 C          -0.3546  -22.8572  -49.1120 C.2       15 UNK         0.5000 
     88 O           0.4026  -22.4588  -49.9973 O.2       15 UNK        -0.5000 
     89 N          -0.6029  -24.1507  -48.8477 N.am      16 UNK        -0.5000 
     90 CA         -0.1708  -25.3213  -49.6159 C.3       16 UNK         0.1400 
     91 CB          1.3655  -25.4651  -49.6099 C.3       16 UNK        -0.1800 
     92 C          -0.7866  -25.3043  -51.0282 C.2       16 UNK         0.5000 
     93 O          -0.0659  -25.2882  -52.0282 O.2       16 UNK        -0.5000 
     94 N          -2.1258  -25.2544  -51.0667 N.am      17 UNK        -0.5000 
     95 CA         -3.0185  -25.1472  -52.2295 C.3       17 UNK         0.1400 
     96 CB         -2.8322  -26.3241  -53.2058 C.3       17 UNK        -0.1800 
     97 C          -2.9557  -23.7955  -52.9689 C.2       17 UNK         0.5000 
     98 O          -4.0099  -23.2687  -53.3269 O.2       17 UNK        -0.5000 
     99 N          -1.7391  -23.2730  -53.1882 N.am      18 UNK        -0.5000 
    100 CA        -1.3951  -21.9711  -53.7742 C.3       18 UNK         0.1400 
    101 CB        -1.5879  -20.8582  -52.7314 C.3       18 UNK        -0.1800 
    102 C         -2.1284  -21.6752  -55.0976 C.2       18 UNK         0.5000 
    103 O         -2.7338  -20.6095  -55.2501 O.2       18 UNK        -0.5000 
    104 N         -2.1026  -22.6668  -56.0010 N.am      19 UNK        -0.5000 
    105 CA        -2.7842  -22.7606  -57.2995 C.3       19 UNK         0.1400 
    106 CB        -2.3272  -21.6472  -58.2620 C.3       19 UNK        -0.1800 
    107 C         -4.3213  -22.8180  -57.1925 C.2       19 UNK         0.5000 
    108 O         -4.9350  -23.7457  -57.7213 O.2       19 UNK        -0.5000 
    109 N         -4.9053  -21.8382  -56.5007 N.am      20 UNK        -0.5000 
    110 CA        -6.3274  -21.6916  -56.2224 C.3       20 UNK         0.1400 
    111 CB        -7.0652  -21.1650  -57.4706 C.3       20 UNK        -0.1800 
    112 C         -6.4938  -20.7857  -54.9914 C.2       20 UNK         0.5000 
    113 O         -7.1853  -19.7678  -55.0627 O.2       20 UNK        -0.5000 
    114 N         -5.8126  -21.1458  -53.8926 N.am      21 UNK        -0.5000 
    115 CA        -5.8155  -20.4715  -52.5881 C.3       21 UNK         0.1400 
    116 CB        -7.1824  -20.6643  -51.8972 C.3       21 UNK        -0.1800 
    117 C         -5.3912  -18.9891  -52.6652 C.2       21 UNK         0.5000 
    118 O         -6.0009  -18.1405  -52.0121 O.2       21 UNK        -0.5000 
    119 N         -4.3810  -18.7062  -53.4996 N.am      22 UNK        -0.5000 
    120 CA        -3.8858  -17.3613  -53.8447 C.3       22 UNK         0.1400 
    121 C         -4.8540  -16.5214  -54.7362 C.2       22 UNK         0.5000 
    122 N         -5.9526  -17.0654  -55.2482 N.am      22 UNK        -0.7600 
    123 O         -4.5875  -15.3529  -55.0046 O.2       22 UNK        -0.5000 
    124 C124       -3.3672  -16.5464  -52.6222 C.3       23 UNK        -0.0398 
    125 S125       -2.0340  -17.3921  -51.7092 S.3       23 UNK        -0.2404 
    126 C126       -1.4803  -16.0705  -50.5896 C.3       23 UNK        -0.0205 
    127 H127       -0.6157   -9.6387  -44.0735 H         1 UNK         0.0600 
    128 H128       -2.3761   -9.6348  -44.2119 H         1 UNK         0.0600 
    129 H129       -1.4590   -8.1733  -44.5870 H         1 UNK         0.0600 
    130 H130       -3.0923  -10.6887  -46.0493 H         1 UNK         0.3000 
    131 H131       -1.9236  -10.2090  -48.6497 H         1 UNK         0.0600 
    132 H132       -4.2719  -10.3048  -48.6483 H         1 UNK         0.0800 
    133 H133       -3.7611  -11.7492  -49.4546 H         1 UNK         0.0800 
    134 H134       -5.5546  -13.3497  -49.3084 H         1 UNK         0.0800 
    135 H135       -6.2147  -14.0698  -47.8662 H         1 UNK         0.0800 
    136 H136       -3.5211  -14.2791  -50.2759 H         1 UNK         0.1150 
    137 H137       -1.4900  -17.4685  -48.2666 H         1 UNK         0.1150 
    138 H138       -4.6807  -15.3901  -46.2992 H         1 UNK         0.1150 
    139 H139       -1.9399  -17.9465  -45.9953 H         1 UNK         0.0800 
    140 H140       -2.7682  -16.7387  -45.0400 H         1 UNK         0.0800 
    141 H141       -4.2374  -19.4960  -43.4058 H         1 UNK         0.0800 
    142 H142       -2.6448  -19.0674  -43.9388 H         1 UNK         0.0800 
    143 H143       -3.1363  -21.0027  -45.7740 H         1 UNK         0.0600 
    144 H144       -1.5067  -20.9191  -43.5173 H         1 UNK         0.3000 
    145 H145       -0.1345  -23.9549  -43.4499 H         1 UNK         0.0600 
    146 H146        1.9489  -23.5708  -44.7321 H         1 UNK         0.0600 
    147 H147        0.6416  -23.9927  -45.8238 H         1 UNK         0.0600 
    148 H148        1.1645  -22.3168  -45.6864 H         1 UNK         0.0600 
    149 H149        1.2497  -21.4128  -43.4303 H         1 UNK         0.3000 
    150 H150        0.2312  -20.5267  -40.1152 H         1 UNK         0.0600 
    151 H151        2.1882  -22.0643  -39.9001 H         1 UNK         0.0600 
    152 H152        2.6937  -20.3812  -39.8912 H         1 UNK         0.0600 
    153 H153        2.9157  -21.3597  -41.3392 H         1 UNK         0.0600 
    154 H154        1.8882  -19.2044  -42.0288 H         1 UNK         0.3000 
    155 H155       -0.7406  -17.3380  -43.6294 H         1 UNK         0.0600 
    156 H156       -0.1300  -16.0268  -41.6378 H         1 UNK         0.0600 
    157 H157        0.8648  -15.5154  -42.9932 H         1 UNK         0.0600 
    158 H158        1.5416  -16.5554  -41.7438 H         1 UNK         0.0600 
    159 H159        2.0540  -17.3955  -44.1201 H         1 UNK         0.3000 
    160 H160        2.0907  -20.1090  -46.4466 H         1 UNK         0.0600 
    161 H161        2.3936  -17.0795  -46.8000 H         1 UNK         0.0600 
    162 H162        1.3886  -18.1411  -47.7703 H         1 UNK         0.0600 
    163 H163        3.1369  -18.3077  -47.8224 H         1 UNK         0.0600 
    164 H164        4.0798  -18.3136  -45.3755 H         1 UNK         0.3000 
    165 H165        5.0820  -20.4347  -42.6700 H         1 UNK         0.0600 
    166 H166        7.2565  -20.2039  -43.8363 H         1 UNK         0.0600 
    167 H167        6.2253  -21.3274  -44.7075 H         1 UNK         0.0600 
    168 H168        6.4457  -19.6911  -45.3163 H         1 UNK         0.0600 
    169 H169        6.0547  -17.9223  -43.6283 H         1 UNK         0.3000 
    170 H170        3.8390  -15.7959  -41.8633 H         1 UNK         0.0600 
    171 H171        5.4596  -16.4608  -40.0807 H         1 UNK         0.0600 
    172 H172        6.7743  -16.4378  -41.2500 H         1 UNK         0.0600 
    173 H173        5.9282  -14.9462  -40.8357 H         1 UNK         0.0600 
    174 H174        6.1885  -15.2398  -43.3521 H         1 UNK         0.3000 
    175 H175        5.7049  -14.0304  -45.4686 H         1 UNK         0.0600 
    176 H176        6.0187  -16.9343  -46.4750 H         1 UNK         0.0600 
    177 H177        6.9530  -15.5574  -47.0499 H         1 UNK         0.0600 
    178 H178        7.1468  -16.1132  -45.4018 H         1 UNK         0.0600 
    179 H179        3.4230  -15.2634  -46.6258 H         1 UNK         0.3000 
    180 H180        3.2920  -13.1359  -49.4036 H         1 UNK         0.0600 
    181 H181        3.5867  -16.1799  -49.6415 H         1 UNK         0.0600 
    182 H182        4.5193  -14.9909  -50.5422 H         1 UNK         0.0600 
    183 H183        2.7885  -15.1222  -50.8067 H         1 UNK         0.0600 
    184 H184        1.5621  -15.2453  -48.6013 H         1 UNK         0.3000 
    185 H185       -0.4126  -14.7183  -47.7664 H         1 UNK         0.0600 
    186 H186        0.6864  -15.4390  -45.6454 H         1 UNK         0.0600 
    187 H187        0.3724  -13.8641  -44.9287 H         1 UNK         0.0600 
    188 H188       -0.9682  -14.9301  -45.3511 H         1 UNK         0.0600 
    189 H189       -1.2846  -12.4986  -46.1817 H         1 UNK         0.3000 
    190 H190       -3.5497  -22.7502  -42.8226 H         1 UNK         0.3000 
    191 H191       -6.3070  -23.4904  -43.0541 H         1 UNK         0.0600 
    192 H192       -4.9917  -23.7933  -40.9692 H         1 UNK         0.0600 
    193 H193       -5.6193  -25.3399  -41.5153 H         1 UNK         0.0600 
    194 H194       -3.9250  -24.9427  -41.7772 H         1 UNK         0.0600 
    195 H195       -3.4488  -24.4704  -44.8245 H         1 UNK         0.3000 
    196 H196       -4.9158  -26.6360  -46.2662 H         1 UNK         0.0600 
    197 H197       -2.6636  -27.4586  -46.8719 H         1 UNK         0.0600 
    198 H198       -2.7941  -27.3598  -45.1244 H         1 UNK         0.0600 
    199 H199       -1.9003  -26.1263  -46.0112 H         1 UNK         0.0600 
    200 H200       -5.1429  -23.6442  -46.5196 H         1 UNK         0.3000 
    201 H201       -5.3586  -22.0477  -48.0164 H         1 UNK         0.0600 
    202 H202       -6.6876  -23.7290  -49.2496 H         1 UNK         0.0600 
    203 H203       -5.2496  -24.2970  -50.0916 H         1 UNK         0.0600 
    204 H204       -5.8530  -22.6757  -50.3763 H         1 UNK         0.0600 
    205 H205       -2.6981  -22.6285  -47.0880 H         1 UNK         0.3000 
    206 H206       -0.6223  -21.9086  -47.2442 H         1 UNK         0.0600 
    207 H207       -1.4937  -19.7317  -47.9499 H         1 UNK         0.0600 
    208 H208        0.0404  -20.0690  -48.7351 H         1 UNK         0.0600 
    209 H209       -1.4570  -20.2141  -49.6445 H         1 UNK         0.0600 
    210 H210       -1.2755  -24.3483  -48.1197 H         1 UNK         0.3000 
    211 H211       -0.5829  -26.1941  -49.1070 H         1 UNK         0.0600 
    212 H212        1.7549  -25.4808  -48.5919 H         1 UNK         0.0600 
    213 H213        1.8576  -24.6524  -50.1444 H         1 UNK         0.0600 
    214 H214        1.6678  -26.3970  -50.0887 H         1 UNK         0.0600 
    215 H215       -2.6075  -25.2516  -50.1702 H         1 UNK         0.3000 
    216 H216       -4.0274  -25.2291  -51.8249 H         1 UNK         0.0600 
    217 H217       -3.5821  -26.2915  -53.9972 H         1 UNK         0.0600 
    218 H218       -2.9404  -27.2807  -52.6949 H         1 UNK         0.0600 
    219 H219       -1.8543  -26.3087  -53.6874 H         1 UNK         0.0600 
    220 H220       -0.9530  -23.8293  -52.8626 H         1 UNK         0.3000 
    221 H221       -0.3325  -22.0121  -54.0165 H         1 UNK         0.0600 
    222 H222       -2.6298  -20.7639  -52.4279 H         1 UNK         0.0600 
    223 H223       -0.9983  -21.0539  -51.8373 H         1 UNK         0.0600 
    224 H224       -1.2665  -19.8940  -53.1252 H         1 UNK         0.0600 
    225 H225       -1.6100  -23.5060  -55.7287 H         1 UNK         0.3000 
    226 H226       -2.4657  -23.7110  -57.7306 H         1 UNK         0.0600 
    227 H227       -1.2446  -21.6563  -58.3878 H         1 UNK         0.0600 
    228 H228       -2.7703  -21.7833  -59.2492 H         1 UNK         0.0600 
    229 H229       -2.6150  -20.6555  -57.9123 H         1 UNK         0.0600 
    230 H230       -4.2901  -21.1550  -56.0634 H         1 UNK         0.3000 
    231 H231       -6.7398  -22.6673  -55.9578 H         1 UNK         0.0600 
    232 H232       -6.6733  -20.1979  -57.7879 H         1 UNK         0.0600 
    233 H233       -8.1305  -21.0417  -57.2725 H         1 UNK         0.0600 
    234 H234       -6.9723  -21.8549  -58.3092 H         1 UNK         0.0600 
    235 H235       -5.2271  -21.9788  -53.9272 H         1 UNK         0.3000 
    236 H236       -5.0613  -20.9740  -51.9821 H         1 UNK         0.0600 
    237 H237       -7.4719  -21.7148  -51.8771 H         1 UNK         0.0600 
    238 H238       -7.1501  -20.3157  -50.8643 H         1 UNK         0.0600 
    239 H239       -7.9732  -20.1119  -52.4058 H         1 UNK         0.0600 
    240 H240       -3.9418  -19.4658  -54.0078 H         1 UNK         0.3000 
    241 H241       -3.0254  -17.5450  -54.4890 H         1 UNK         0.0600 
    242 H242       -6.5507  -16.5018  -55.8307 H         1 UNK         0.3800 
    243 H243       -6.2215  -18.0215  -55.0416 H         1 UNK         0.3800 
    244 H244       -2.9732  -15.5841  -52.9527 H         1 UNK         0.0800 
    245 H245       -4.1790  -16.3169  -51.9318 H         1 UNK         0.0800 
    246 H246       -0.4801  -16.3168  -50.2309 H         1 UNK         0.0800 
    247 H247       -1.3793  -15.1316  -51.1364 H         1 UNK         0.0800 
@<TRIPOS>BOND
     1    1    2 1    
     2    1  127 1    
     3    1  128 1    
     4    1  129 1    
     5    2    3 2    
     6    2    4 am   BACKBONE|DICT|INTERRES
     7    4    5 1    
     8    4  130 1    
     9    5    6 1    
    10    5   65 1    
    11    5  131 1    
    12    6    7 1    
    13    6  132 1    
    14    6  133 1    
    15    7    8 1    
    16    8    9 1    
    17    8  134 1    
    18    8  135 1    
    19    9   10 ar   
    20    9   14 ar   
    21   10   11 ar   
    22   10  136 1    
    23   11   12 ar   
    24   11  126 1    
    25   12   13 ar   
    26   12  137 1    
    27   13   14 ar   
    28   13   15 1    
    29   14  138 1    
    30   15   16 1    
    31   15  139 1    
    32   15  140 1    
    33   16   17 1    
    34   17   18 1    
    35   17  141 1    
    36   17  142 1    
    37   18   19 1    
    38   18   67 1    
    39   18  143 1    
    40   19   20 am   BACKBONE|DICT|INTERRES
    41   19  144 1    
    42   20   21 2    
    43   20   22 1    
    44   22   23 1    
    45   22   24 1    
    46   22  145 1    
    47   23  146 1    
    48   23  147 1    
    49   23  148 1    
    50   24   25 am   BACKBONE|DICT|INTERRES
    51   24  149 1    
    52   25   26 2    
    53   25   27 1    
    54   27   28 1    
    55   27   29 1    
    56   27  150 1    
    57   28  151 1    
    58   28  152 1    
    59   28  153 1    
    60   29   30 am   BACKBONE|DICT|INTERRES
    61   29  154 1    
    62   30   31 2    
    63   30   32 1    
    64   32   33 1    
    65   32   34 1    
    66   32  155 1    
    67   33  156 1    
    68   33  157 1    
    69   33  158 1    
    70   34   35 am   BACKBONE|DICT|INTERRES
    71   34  159 1    
    72   35   36 2    
    73   35   37 1    
    74   37   38 1    
    75   37   39 1    
    76   37  160 1    
    77   38  161 1    
    78   38  162 1    
    79   38  163 1    
    80   39   40 am   BACKBONE|DICT|INTERRES
    81   39  164 1    
    82   40   41 2    
    83   40   42 1    
    84   42   43 1    
    85   42   44 1    
    86   42  165 1    
    87   43  166 1    
    88   43  167 1    
    89   43  168 1    
    90   44   45 am   BACKBONE|DICT|INTERRES
    91   44  169 1    
    92   45   46 2    
    93   45   47 1    
    94   47   48 1    
    95   47   49 1    
    96   47  170 1    
    97   48  171 1    
    98   48  172 1    
    99   48  173 1    
   100   49   50 am   BACKBONE|DICT|INTERRES
   101   49  174 1    
   102   50   51 2    
   103   50   52 1    
   104   52   53 1    
   105   52   54 1    
   106   52  175 1    
   107   53  176 1    
   108   53  177 1    
   109   53  178 1    
   110   54   55 am   BACKBONE|DICT|INTERRES
   111   54  179 1    
   112   55   56 2    
   113   55   57 1    
   114   57   58 1    
   115   57   59 1    
   116   57  180 1    
   117   58  181 1    
   118   58  182 1    
   119   58  183 1    
   120   59   60 am   BACKBONE|DICT|INTERRES
   121   59  184 1    
   122   60   61 2    
   123   60   62 1    
   124   62   63 1    
   125   62   64 1    
   126   62  185 1    
   127   63  186 1    
   128   63  187 1    
   129   63  188 1    
   130   64   65 am   BACKBONE|DICT|INTERRES
   131   64  189 1    
   132   65   66 2    
   133   67   68 2    
   134   67   69 am   BACKBONE|DICT|INTERRES
   135   69   70 1    
   136   69  190 1    
   137   70   71 1    
   138   70   72 1    
   139   70  191 1    
   140   71  192 1    
   141   71  193 1    
   142   71  194 1    
   143   72   73 2    
   144   72   74 am   BACKBONE|DICT|INTERRES
   145   74   75 1    
   146   74  195 1    
   147   75   76 1    
   148   75   77 1    
   149   75  196 1    
   150   76  197 1    
   151   76  198 1    
   152   76  199 1    
   153   77   78 2    
   154   77   79 am   BACKBONE|DICT|INTERRES
   155   79   80 1    
   156   79  200 1    
   157   80   81 1    
   158   80   82 1    
   159   80  201 1    
   160   81  202 1    
   161   81  203 1    
   162   81  204 1    
   163   82   83 2    
   164   82   84 am   BACKBONE|DICT|INTERRES
   165   84   85 1    
   166   84  205 1    
   167   85   86 1    
   168   85   87 1    
   169   85  206 1    
   170   86  207 1    
   171   86  208 1    
   172   86  209 1    
   173   87   88 2    
   174   87   89 am   BACKBONE|DICT|INTERRES
   175   89   90 1    
   176   89  210 1    
   177   90   91 1    
   178   90   92 1    
   179   90  211 1    
   180   91  212 1    
   181   91  213 1    
   182   91  214 1    
   183   92   93 2    
   184   92   94 am   BACKBONE|DICT|INTERRES
   185   94   95 1    
   186   94  215 1    
   187   95   96 1    
   188   95   97 1    
   189   95  216 1    
   190   96  217 1    
   191   96  218 1    
   192   96  219 1    
   193   97   98 2    
   194   97   99 am   BACKBONE|DICT|INTERRES
   195   99  100 1    
   196   99  220 1    
   197  100  101 1    
   198  100  102 1    
   199  100  221 1    
   200  101  222 1    
   201  101  223 1    
   202  101  224 1    
   203  102  103 2    
   204  102  104 am   BACKBONE|DICT|INTERRES
   205  104  105 1    
   206  104  225 1    
   207  105  106 1    
   208  105  107 1    
   209  105  226 1    
   210  106  227 1    
   211  106  228 1    
   212  106  229 1    
   213  107  108 2    
   214  107  109 am   BACKBONE|DICT|INTERRES
   215  109  110 1    
   216  109  230 1    
   217  110  111 1    
   218  110  112 1    
   219  110  231 1    
   220  111  232 1    
   221  111  233 1    
   222  111  234 1    
   223  112  113 2    
   224  112  114 am   BACKBONE|DICT|INTERRES
   225  114  115 1    
   226  114  235 1    
   227  115  116 1    
   228  115  117 1    
   229  115  236 1    
   230  116  237 1    
   231  116  238 1    
   232  116  239 1    
   233  117  118 2    
   234  117  119 am   BACKBONE|DICT|INTERRES
   235  119  120 1    
   236  119  240 1    
   237  120  121 1    
   238  120  124 1    
   239  120  241 1    
   240  121  122 am   BACKBONE|DICT|INTERRES
   241  121  123 2    
   242  122  242 1    
   243  122  243 1    
   244  124  125 1    
   245  124  244 1    
   246  124  245 1    
   247  125  126 1    
   248  126  246 1    
   249  126  247 1    
@<TRIPOS>SUBSTRUCTURE
     1 UNK         1 GROUP             0       ****    0 ROOT    
