@<TRIPOS>MOLECULE
3R540
247   249    1
SMALL
USER_CHARGES


@<TRIPOS>ATOM
      1 CA         -1.0568   -8.9612  -46.1658 C.3       0 UNK        -0.1800 
      2 C          -0.7300  -10.3693  -45.6926 C.2       0 UNK         0.5000 
      3 O           0.4301  -10.6693  -45.4085 O.2       0 UNK        -0.5000 
      4 N          -1.7454  -11.2373  -45.5814 N.am      1 UNK        -0.5000 
      5 CA         -1.5939  -12.6400  -45.1682 C.3       1 UNK         0.1400 
      6 C6         -2.8744  -13.4756  -45.4412 C.3       23 UNK        -0.0398 
      7 S7         -2.4964  -15.0911  -46.2015 S.3       23 UNK        -0.2404 
      8 C8         -2.2987  -14.5767  -47.9402 C.3       23 UNK        -0.0205 
      9 C9         -1.8268  -15.6810  -48.8829 C.ar      23 UNK        -0.0193 
     10 C10        -2.3281  -15.7178  -50.1889 C.ar      23 UNK        -0.1150 
     11 C11        -1.8453  -16.6403  -51.1216 C.ar      23 UNK        -0.0193 
     12 C12        -0.8568  -17.5474  -50.7248 C.ar      23 UNK        -0.1150 
     13 C13        -0.3641  -17.5473  -49.4172 C.ar      23 UNK        -0.0193 
     14 C14        -0.8410  -16.6017  -48.5051 C.ar      23 UNK        -0.1150 
     15 C15         0.7213  -18.5377  -49.0143 C.3       23 UNK        -0.0205 
     16 S16         0.0838  -19.9496  -48.0527 S.3       23 UNK        -0.2404 
     17 C17        -1.0945  -20.7421  -49.2049 C.3       23 UNK        -0.0398 
     18 CA         -2.4068  -21.1726  -48.5079 C.3       11 UNK         0.1400 
     19 N          -2.9874  -20.0788  -47.7150 N.am      11 UNK        -0.5000 
     20 C          -3.9832  -20.1834  -46.8257 C.2       10 UNK         0.5000 
     21 O          -4.6849  -21.1882  -46.7089 O.2       10 UNK        -0.5000 
     22 CA         -4.2200  -18.9586  -45.9200 C.3       10 UNK         0.1400 
     23 CB         -5.1047  -19.2839  -44.6989 C.3       10 UNK        -0.1800 
     24 N          -2.9690  -18.3171  -45.4978 N.am      10 UNK        -0.5000 
     25 C          -1.9599  -18.8771  -44.8138 C.2       9 UNK         0.5000 
     26 O          -1.9457  -20.0429  -44.4108 O.2       9 UNK        -0.5000 
     27 CA         -0.7733  -17.9553  -44.5132 C.3       9 UNK         0.1400 
     28 CB         -1.0601  -17.0933  -43.2757 C.3       9 UNK        -0.1800 
     29 N           0.4277  -18.7527  -44.2817 N.am      9 UNK        -0.5000 
     30 C           1.6162  -18.5225  -44.8461 C.2       8 UNK         0.5000 
     31 O           1.8416  -17.5886  -45.6176 O.2       8 UNK        -0.5000 
     32 CA          2.7382  -19.5150  -44.5125 C.3       8 UNK         0.1400 
     33 CB          2.7877  -20.6337  -45.5723 C.3       8 UNK        -0.1800 
     34 N           4.0059  -18.7893  -44.4538 N.am      8 UNK        -0.5000 
     35 C           5.1783  -19.2778  -44.0284 C.2       7 UNK         0.5000 
     36 O           5.3321  -20.4250  -43.6075 O.2       7 UNK        -0.5000 
     37 CA          6.3781  -18.3167  -44.0496 C.3       7 UNK         0.1400 
     38 CB          6.6631  -17.7978  -45.4697 C.3       7 UNK        -0.1800 
     39 N           6.1120  -17.1894  -43.1632 N.am      7 UNK        -0.5000 
     40 C           6.6366  -17.0181  -41.9423 C.2       6 UNK         0.5000 
     41 O           7.5165  -17.7369  -41.4664 O.2       6 UNK        -0.5000 
     42 CA          6.0697  -15.8582  -41.0934 C.3       6 UNK         0.1400 
     43 CB          6.9212  -14.5926  -41.2733 C.3       6 UNK        -0.1800 
     44 N           4.6759  -15.5386  -41.4085 N.am      6 UNK        -0.5000 
     45 C           3.6427  -16.3790  -41.2541 C.2       5 UNK         0.5000 
     46 O           3.7310  -17.4651  -40.6804 O.2       5 UNK        -0.5000 
     47 CA          2.2886  -15.9670  -41.8658 C.3       5 UNK         0.1400 
     48 CB          1.3450  -15.4714  -40.7585 C.3       5 UNK        -0.1800 
     49 N           2.3421  -14.9529  -42.9258 N.am      5 UNK        -0.5000 
     50 C           3.0991  -14.9589  -44.0345 C.2       4 UNK         0.5000 
     51 O           3.9141  -15.8395  -44.3081 O.2       4 UNK        -0.5000 
     52 CA          2.9653  -13.7463  -44.9748 C.3       4 UNK         0.1400 
     53 CB          1.9547  -14.0534  -46.0903 C.3       4 UNK        -0.1800 
     54 N           2.5838  -12.5109  -44.2809 N.am      4 UNK        -0.5000 
     55 C           3.3158  -11.9050  -43.3315 C.2       3 UNK         0.5000 
     56 O           4.4161  -12.3101  -42.9536 O.2       3 UNK        -0.5000 
     57 CA          2.6967  -10.6650  -42.6639 C.3       3 UNK         0.1400 
     58 CB          2.9866   -9.3969  -43.4817 C.3       3 UNK        -0.1800 
     59 N           1.2521  -10.8256  -42.4926 N.am      3 UNK        -0.5000 
     60 C           0.6854  -11.4578  -41.4540 C.2       2 UNK         0.5000 
     61 O           1.3186  -11.8753  -40.4846 O.2       2 UNK        -0.5000 
     62 CA         -0.8407  -11.6807  -41.5050 C.3       2 UNK         0.1400 
     63 CB         -1.5746  -10.5458  -40.7751 C.3       2 UNK        -0.1800 
     64 N          -1.3677  -11.7922  -42.8665 N.am      2 UNK        -0.5000 
     65 C          -1.0835  -12.7897  -43.7165 C.2       1 UNK         0.5000 
     66 O          -0.3900  -13.7577  -43.4109 O.2       1 UNK        -0.5000 
     67 C          -3.3796  -21.8228  -49.5171 C.2       11 UNK         0.5000 
     68 O          -3.0737  -22.8883  -50.0512 O.2       11 UNK        -0.5000 
     69 N          -4.5378  -21.1950  -49.7561 N.am      12 UNK        -0.5000 
     70 CA         -5.6506  -21.7809  -50.5000 C.3       12 UNK         0.1400 
     71 CB         -6.6362  -20.6679  -50.8807 C.3       12 UNK        -0.1800 
     72 C          -6.3804  -22.8868  -49.7112 C.2       12 UNK         0.5000 
     73 O          -6.9407  -23.7925  -50.3274 O.2       12 UNK        -0.5000 
     74 N          -6.3690  -22.7891  -48.3753 N.am      13 UNK        -0.5000 
     75 CA         -7.0362  -23.7102  -47.4581 C.3       13 UNK         0.1400 
     76 CB         -7.9102  -22.9024  -46.4856 C.3       13 UNK        -0.1800 
     77 C          -6.0190  -24.5596  -46.6824 C.2       13 UNK         0.5000 
     78 O          -6.2398  -25.7597  -46.5209 O.2       13 UNK        -0.5000 
     79 N          -4.9232  -23.9361  -46.2248 N.am      14 UNK        -0.5000 
     80 CA         -3.8391  -24.5569  -45.4634 C.3       14 UNK         0.1400 
     81 CB         -2.9111  -23.4601  -44.9155 C.3       14 UNK        -0.1800 
     82 C          -3.0748  -25.5773  -46.3243 C.2       14 UNK         0.5000 
     83 O          -2.2398  -25.1894  -47.1440 O.2       14 UNK        -0.5000 
     84 N          -3.4502  -26.8570  -46.1774 N.am      15 UNK        -0.5000 
     85 CA         -2.9735  -28.0343  -46.9191 C.3       15 UNK         0.1400 
     86 CB         -1.4872  -28.2987  -46.6010 C.3       15 UNK        -0.1800 
     87 C          -3.2314  -27.9803  -48.4432 C.2       15 UNK         0.5000 
     88 O          -2.6833  -28.8039  -49.1771 O.2       15 UNK        -0.5000 
     89 N          -4.0326  -26.9996  -48.8918 N.am      16 UNK        -0.5000 
     90 CA         -4.2506  -26.5845  -50.2823 C.3       16 UNK         0.1400 
     91 CB         -5.0779  -27.6463  -51.0354 C.3       16 UNK        -0.1800 
     92 C          -2.9393  -26.2091  -51.0143 C.2       16 UNK         0.5000 
     93 O          -2.8445  -26.3849  -52.2302 O.2       16 UNK        -0.5000 
     94 N          -1.9500  -25.7119  -50.2547 N.am      17 UNK        -0.5000 
     95 CA         -0.5579  -25.4981  -50.6577 C.3       17 UNK         0.1400 
     96 CB          0.2198  -24.9300  -49.4606 C.3       17 UNK        -0.1800 
     97 C          -0.3475  -24.6146  -51.9015 C.2       17 UNK         0.5000 
     98 O           0.6029  -24.8522  -52.6485 O.2       17 UNK        -0.5000 
     99 N          -1.2277  -23.6288  -52.1069 N.am      18 UNK        -0.5000 
    100 CA        -1.2062  -22.7208  -53.2538 C.3       18 UNK         0.1400 
    101 CB        -0.6530  -21.3565  -52.8103 C.3       18 UNK        -0.1800 
    102 C         -2.5961  -22.5881  -53.8985 C.2       18 UNK         0.5000 
    103 O         -2.8343  -21.6165  -54.6159 O.2       18 UNK        -0.5000 
    104 N         -3.4974  -23.5515  -53.6520 N.am      19 UNK        -0.5000 
    105 CA        -4.9051  -23.5218  -54.0728 C.3       19 UNK         0.1400 
    106 CB        -5.6206  -24.7640  -53.5284 C.3       19 UNK        -0.1800 
    107 C         -5.1351  -23.3909  -55.5899 C.2       19 UNK         0.5000 
    108 O         -6.1497  -22.8249  -55.9975 O.2       19 UNK        -0.5000 
    109 N         -4.1755  -23.8667  -56.3942 N.am      20 UNK        -0.5000 
    110 CA        -4.1647  -23.7378  -57.8527 C.3       20 UNK         0.1400 
    111 CB        -3.0110  -24.5820  -58.4155 C.3       20 UNK        -0.1800 
    112 C         -4.0588  -22.2807  -58.3521 C.2       20 UNK         0.5000 
    113 O         -4.4868  -22.0026  -59.4734 O.2       20 UNK        -0.5000 
    114 N         -3.4984  -21.3875  -57.5252 N.am      21 UNK        -0.5000 
    115 CA        -3.3521  -19.9609  -57.8093 C.3       21 UNK         0.1400 
    116 CB        -1.8777  -19.5642  -57.6267 C.3       21 UNK        -0.1800 
    117 C         -4.2500  -19.1161  -56.8915 C.2       21 UNK         0.5000 
    118 O         -4.9045  -18.1880  -57.3686 O.2       21 UNK        -0.5000 
    119 N         -4.2503  -19.4394  -55.5938 N.am      22 UNK        -0.5000 
    120 CA        -4.9044  -18.6639  -54.5288 C.3       22 UNK         0.1400 
    121 C         -6.3975  -19.0286  -54.2955 C.2       22 UNK         0.5000 
    122 N         -6.9309  -20.0970  -54.8755 N.am      22 UNK        -0.7600 
    123 O         -7.0946  -18.3146  -53.5807 O.2       22 UNK        -0.5000 
    124 C124       -4.0937  -18.7292  -53.2057 C.3       23 UNK        -0.0398 
    125 S125       -2.3691  -18.1739  -53.4386 S.3       23 UNK        -0.2404 
    126 C126       -2.3336  -16.5697  -52.5686 C.3       23 UNK        -0.0205 
    127 H127       -0.5125   -8.7402  -47.0839 H         1 UNK         0.0600 
    128 H128       -0.7611   -8.2343  -45.4095 H         1 UNK         0.0600 
    129 H129       -2.1218   -8.8362  -46.3619 H         1 UNK         0.0600 
    130 H130       -2.6814  -10.9367  -45.8144 H         1 UNK         0.3000 
    131 H131       -0.7965  -13.0279  -45.8024 H         1 UNK         0.0600 
    132 H132       -3.4532  -13.6421  -44.5306 H         1 UNK         0.0800 
    133 H133       -3.5505  -12.9468  -46.1145 H         1 UNK         0.0800 
    134 H134       -1.5775  -13.7604  -47.9941 H         1 UNK         0.0800 
    135 H135       -3.2516  -14.1716  -48.2850 H         1 UNK         0.0800 
    136 H136       -3.0679  -14.9918  -50.4963 H         1 UNK         0.1150 
    137 H137       -0.4517  -18.2494  -51.4394 H         1 UNK         0.1150 
    138 H138       -0.4187  -16.5681  -47.5117 H         1 UNK         0.1150 
    139 H139        1.2432  -18.9149  -49.8951 H         1 UNK         0.0800 
    140 H140        1.4737  -18.0219  -48.4154 H         1 UNK         0.0800 
    141 H141       -0.5971  -21.6026  -49.6552 H         1 UNK         0.0800 
    142 H142       -1.3223  -20.0615  -50.0214 H         1 UNK         0.0800 
    143 H143       -2.1480  -21.9635  -47.8023 H         1 UNK         0.0600 
    144 H144       -2.4623  -19.2161  -47.7332 H         1 UNK         0.3000 
    145 H145       -4.7522  -18.2267  -46.5292 H         1 UNK         0.0600 
    146 H146       -6.0872  -19.6402  -45.0111 H         1 UNK         0.0600 
    147 H147       -4.6614  -20.0586  -44.0725 H         1 UNK         0.0600 
    148 H148       -5.2623  -18.4008  -44.0797 H         1 UNK         0.0600 
    149 H149       -2.8752  -17.3447  -45.7656 H         1 UNK         0.3000 
    150 H150       -0.6337  -17.3000  -45.3732 H         1 UNK         0.0600 
    151 H151       -1.9940  -16.5402  -43.3825 H         1 UNK         0.0600 
    152 H152       -0.2724  -16.3574  -43.1374 H         1 UNK         0.0600 
    153 H153       -1.1306  -17.6932  -42.3679 H         1 UNK         0.0600 
    154 H154        0.2784  -19.5943  -43.7410 H         1 UNK         0.3000 
    155 H155        2.5446  -19.9503  -43.5300 H         1 UNK         0.0600 
    156 H156        3.0307  -20.2371  -46.5590 H         1 UNK         0.0600 
    157 H157        1.8239  -21.1383  -45.6514 H         1 UNK         0.0600 
    158 H158        3.5264  -21.3956  -45.3256 H         1 UNK         0.0600 
    159 H159        3.9401  -17.8142  -44.7375 H         1 UNK         0.3000 
    160 H160        7.2578  -18.8698  -43.7137 H         1 UNK         0.0600 
    161 H161        5.8409  -17.1976  -45.8610 H         1 UNK         0.0600 
    162 H162        6.8259  -18.6250  -46.1616 H         1 UNK         0.0600 
    163 H163        7.5605  -17.1792  -45.4854 H         1 UNK         0.0600 
    164 H164        5.3614  -16.5697  -43.4607 H         1 UNK         0.3000 
    165 H165        6.1172  -16.1604  -40.0453 H         1 UNK         0.0600 
    166 H166        6.5768  -13.7892  -40.6217 H         1 UNK         0.0600 
    167 H167        7.9663  -14.7855  -41.0274 H         1 UNK         0.0600 
    168 H168        6.8859  -14.2281  -42.3009 H         1 UNK         0.0600 
    169 H169        4.5110  -14.6650  -41.8903 H         1 UNK         0.3000 
    170 H170        1.8606  -16.8674  -42.3074 H         1 UNK         0.0600 
    171 H171        1.2068  -16.2341  -39.9911 H         1 UNK         0.0600 
    172 H172        1.7408  -14.5815  -40.2683 H         1 UNK         0.0600 
    173 H173        0.3581  -15.2242  -41.1489 H         1 UNK         0.0600 
    174 H174        1.6575  -14.2102  -42.8512 H         1 UNK         0.3000 
    175 H175        3.9399  -13.5731  -45.4352 H         1 UNK         0.0600 
    176 H176        1.7628  -13.1806  -46.7146 H         1 UNK         0.0600 
    177 H177        1.0053  -14.4031  -45.6858 H         1 UNK         0.0600 
    178 H178        2.3302  -14.8453  -46.7398 H         1 UNK         0.0600 
    179 H179        1.7134  -12.0772  -44.5660 H         1 UNK         0.3000 
    180 H180        3.1653  -10.5417  -41.6851 H         1 UNK         0.0600 
    181 H181        2.5613   -8.5143  -43.0037 H         1 UNK         0.0600 
    182 H182        2.5813   -9.4591  -44.4916 H         1 UNK         0.0600 
    183 H183        4.0609   -9.2318  -43.5719 H         1 UNK         0.0600 
    184 H184        0.6747  -10.5490  -43.2765 H         1 UNK         0.3000 
    185 H185       -1.0528  -12.6169  -40.9841 H         1 UNK         0.0600 
    186 H186       -2.6481  -10.7313  -40.7352 H         1 UNK         0.0600 
    187 H187       -1.2239  -10.4521  -39.7464 H         1 UNK         0.0600 
    188 H188       -1.4167   -9.5839  -41.2646 H         1 UNK         0.0600 
    189 H189       -1.9322  -11.0244  -43.1998 H         1 UNK         0.3000 
    190 H190       -4.7102  -20.3183  -49.2872 H         1 UNK         0.3000 
    191 H191       -5.2537  -22.2241  -51.4129 H         1 UNK         0.0600 
    192 H192       -7.4221  -21.0495  -51.5338 H         1 UNK         0.0600 
    193 H193       -6.1364  -19.8601  -51.4117 H         1 UNK         0.0600 
    194 H194       -7.1181  -20.2376  -50.0019 H         1 UNK         0.0600 
    195 H195       -5.8345  -22.0427  -47.9411 H         1 UNK         0.3000 
    196 H196       -7.6878  -24.3936  -48.0066 H         1 UNK         0.0600 
    197 H197       -7.3201  -22.1916  -45.9053 H         1 UNK         0.0600 
    198 H198       -8.6761  -22.3412  -47.0210 H         1 UNK         0.0600 
    199 H199       -8.4214  -23.5595  -45.7808 H         1 UNK         0.0600 
    200 H200       -4.8225  -22.9389  -46.4015 H         1 UNK         0.3000 
    201 H201       -4.2778  -25.0763  -44.6090 H         1 UNK         0.0600 
    202 H202       -3.4552  -22.7650  -44.2757 H         1 UNK         0.0600 
    203 H203       -2.4491  -22.8793  -45.7129 H         1 UNK         0.0600 
    204 H204       -2.1071  -23.8917  -44.3186 H         1 UNK         0.0600 
    205 H205       -4.2082  -27.0437  -45.5343 H         1 UNK         0.3000 
    206 H206       -3.5496  -28.8822  -46.5464 H         1 UNK         0.0600 
    207 H207       -1.3161  -28.3460  -45.5256 H         1 UNK         0.0600 
    208 H208       -1.1579  -29.2496  -47.0213 H         1 UNK         0.0600 
    209 H209       -0.8414  -27.5211  -47.0098 H         1 UNK         0.0600 
    210 H210       -4.4467  -26.4024  -48.1897 H         1 UNK         0.3000 
    211 H211       -4.8422  -25.6697  -50.2364 H         1 UNK         0.0600 
    212 H212       -5.3565  -27.2998  -52.0302 H         1 UNK         0.0600 
    213 H213       -6.0020  -27.8736  -50.5040 H         1 UNK         0.0600 
    214 H214       -4.5242  -28.5772  -51.1596 H         1 UNK         0.0600 
    215 H215       -2.1450  -25.5515  -49.2725 H         1 UNK         0.3000 
    216 H216       -0.1444  -26.4807  -50.8931 H         1 UNK         0.0600 
    217 H217       -0.2081  -23.9877  -49.1167 H         1 UNK         0.0600 
    218 H218        1.2637  -24.7458  -49.7176 H         1 UNK         0.0600 
    219 H219        0.2104  -25.6246  -48.6204 H         1 UNK         0.0600 
    220 H220       -1.9684  -23.4859  -51.4219 H         1 UNK         0.3000 
    221 H221       -0.5531  -23.1141  -54.0350 H         1 UNK         0.0600 
    222 H222        0.2919  -21.4596  -52.2767 H         1 UNK         0.0600 
    223 H223       -1.3576  -20.8392  -52.1610 H         1 UNK         0.0600 
    224 H224       -0.4711  -20.7110  -53.6704 H         1 UNK         0.0600 
    225 H225       -3.2035  -24.3555  -53.1104 H         1 UNK         0.3000 
    226 H226       -5.3612  -22.6399  -53.6214 H         1 UNK         0.0600 
    227 H227       -5.1845  -25.6821  -53.9240 H         1 UNK         0.0600 
    228 H228       -5.5630  -24.8037  -52.4419 H         1 UNK         0.0600 
    229 H229       -6.6783  -24.7583  -53.7950 H         1 UNK         0.0600 
    230 H230       -3.3751  -24.3124  -55.9704 H         1 UNK         0.3000 
    231 H231       -5.1043  -24.1453  -58.2315 H         1 UNK         0.0600 
    232 H232       -2.0435  -24.2334  -58.0519 H         1 UNK         0.0600 
    233 H233       -2.9881  -24.5360  -59.5052 H         1 UNK         0.0600 
    234 H234       -3.1171  -25.6311  -58.1386 H         1 UNK         0.0600 
    235 H235       -3.2047  -21.6935  -56.6044 H         1 UNK         0.3000 
    236 H236       -3.6338  -19.7396  -58.8408 H         1 UNK         0.0600 
    237 H237       -1.5270  -19.7646  -56.6131 H         1 UNK         0.0600 
    238 H238       -1.2358  -20.1120  -58.3166 H         1 UNK         0.0600 
    239 H239       -1.7321  -18.5007  -57.8205 H         1 UNK         0.0600 
    240 H240       -3.6736  -20.2144  -55.2724 H         1 UNK         0.3000 
    241 H241       -4.9119  -17.6166  -54.8376 H         1 UNK         0.0600 
    242 H242       -7.9045  -20.3030  -54.7198 H         1 UNK         0.3800 
    243 H243       -6.3857  -20.7092  -55.4668 H         1 UNK         0.3800 
    244 H244       -4.0686  -19.7522  -52.8268 H         1 UNK         0.0800 
    245 H245       -4.5648  -18.1270  -52.4271 H         1 UNK         0.0800 
    246 H246       -1.6576  -15.9090  -53.1125 H         1 UNK         0.0800 
    247 H247       -3.3189  -16.1043  -52.6231 H         1 UNK         0.0800 
@<TRIPOS>BOND
     1    1    2 1    
     2    1  127 1    
     3    1  128 1    
     4    1  129 1    
     5    2    3 2    
     6    2    4 am   BACKBONE|DICT|INTERRES
     7    4    5 1    
     8    4  130 1    
     9    5    6 1    
    10    5   65 1    
    11    5  131 1    
    12    6    7 1    
    13    6  132 1    
    14    6  133 1    
    15    7    8 1    
    16    8    9 1    
    17    8  134 1    
    18    8  135 1    
    19    9   10 ar   
    20    9   14 ar   
    21   10   11 ar   
    22   10  136 1    
    23   11   12 ar   
    24   11  126 1    
    25   12   13 ar   
    26   12  137 1    
    27   13   14 ar   
    28   13   15 1    
    29   14  138 1    
    30   15   16 1    
    31   15  139 1    
    32   15  140 1    
    33   16   17 1    
    34   17   18 1    
    35   17  141 1    
    36   17  142 1    
    37   18   19 1    
    38   18   67 1    
    39   18  143 1    
    40   19   20 am   BACKBONE|DICT|INTERRES
    41   19  144 1    
    42   20   21 2    
    43   20   22 1    
    44   22   23 1    
    45   22   24 1    
    46   22  145 1    
    47   23  146 1    
    48   23  147 1    
    49   23  148 1    
    50   24   25 am   BACKBONE|DICT|INTERRES
    51   24  149 1    
    52   25   26 2    
    53   25   27 1    
    54   27   28 1    
    55   27   29 1    
    56   27  150 1    
    57   28  151 1    
    58   28  152 1    
    59   28  153 1    
    60   29   30 am   BACKBONE|DICT|INTERRES
    61   29  154 1    
    62   30   31 2    
    63   30   32 1    
    64   32   33 1    
    65   32   34 1    
    66   32  155 1    
    67   33  156 1    
    68   33  157 1    
    69   33  158 1    
    70   34   35 am   BACKBONE|DICT|INTERRES
    71   34  159 1    
    72   35   36 2    
    73   35   37 1    
    74   37   38 1    
    75   37   39 1    
    76   37  160 1    
    77   38  161 1    
    78   38  162 1    
    79   38  163 1    
    80   39   40 am   BACKBONE|DICT|INTERRES
    81   39  164 1    
    82   40   41 2    
    83   40   42 1    
    84   42   43 1    
    85   42   44 1    
    86   42  165 1    
    87   43  166 1    
    88   43  167 1    
    89   43  168 1    
    90   44   45 am   BACKBONE|DICT|INTERRES
    91   44  169 1    
    92   45   46 2    
    93   45   47 1    
    94   47   48 1    
    95   47   49 1    
    96   47  170 1    
    97   48  171 1    
    98   48  172 1    
    99   48  173 1    
   100   49   50 am   BACKBONE|DICT|INTERRES
   101   49  174 1    
   102   50   51 2    
   103   50   52 1    
   104   52   53 1    
   105   52   54 1    
   106   52  175 1    
   107   53  176 1    
   108   53  177 1    
   109   53  178 1    
   110   54   55 am   BACKBONE|DICT|INTERRES
   111   54  179 1    
   112   55   56 2    
   113   55   57 1    
   114   57   58 1    
   115   57   59 1    
   116   57  180 1    
   117   58  181 1    
   118   58  182 1    
   119   58  183 1    
   120   59   60 am   BACKBONE|DICT|INTERRES
   121   59  184 1    
   122   60   61 2    
   123   60   62 1    
   124   62   63 1    
   125   62   64 1    
   126   62  185 1    
   127   63  186 1    
   128   63  187 1    
   129   63  188 1    
   130   64   65 am   BACKBONE|DICT|INTERRES
   131   64  189 1    
   132   65   66 2    
   133   67   68 2    
   134   67   69 am   BACKBONE|DICT|INTERRES
   135   69   70 1    
   136   69  190 1    
   137   70   71 1    
   138   70   72 1    
   139   70  191 1    
   140   71  192 1    
   141   71  193 1    
   142   71  194 1    
   143   72   73 2    
   144   72   74 am   BACKBONE|DICT|INTERRES
   145   74   75 1    
   146   74  195 1    
   147   75   76 1    
   148   75   77 1    
   149   75  196 1    
   150   76  197 1    
   151   76  198 1    
   152   76  199 1    
   153   77   78 2    
   154   77   79 am   BACKBONE|DICT|INTERRES
   155   79   80 1    
   156   79  200 1    
   157   80   81 1    
   158   80   82 1    
   159   80  201 1    
   160   81  202 1    
   161   81  203 1    
   162   81  204 1    
   163   82   83 2    
   164   82   84 am   BACKBONE|DICT|INTERRES
   165   84   85 1    
   166   84  205 1    
   167   85   86 1    
   168   85   87 1    
   169   85  206 1    
   170   86  207 1    
   171   86  208 1    
   172   86  209 1    
   173   87   88 2    
   174   87   89 am   BACKBONE|DICT|INTERRES
   175   89   90 1    
   176   89  210 1    
   177   90   91 1    
   178   90   92 1    
   179   90  211 1    
   180   91  212 1    
   181   91  213 1    
   182   91  214 1    
   183   92   93 2    
   184   92   94 am   BACKBONE|DICT|INTERRES
   185   94   95 1    
   186   94  215 1    
   187   95   96 1    
   188   95   97 1    
   189   95  216 1    
   190   96  217 1    
   191   96  218 1    
   192   96  219 1    
   193   97   98 2    
   194   97   99 am   BACKBONE|DICT|INTERRES
   195   99  100 1    
   196   99  220 1    
   197  100  101 1    
   198  100  102 1    
   199  100  221 1    
   200  101  222 1    
   201  101  223 1    
   202  101  224 1    
   203  102  103 2    
   204  102  104 am   BACKBONE|DICT|INTERRES
   205  104  105 1    
   206  104  225 1    
   207  105  106 1    
   208  105  107 1    
   209  105  226 1    
   210  106  227 1    
   211  106  228 1    
   212  106  229 1    
   213  107  108 2    
   214  107  109 am   BACKBONE|DICT|INTERRES
   215  109  110 1    
   216  109  230 1    
   217  110  111 1    
   218  110  112 1    
   219  110  231 1    
   220  111  232 1    
   221  111  233 1    
   222  111  234 1    
   223  112  113 2    
   224  112  114 am   BACKBONE|DICT|INTERRES
   225  114  115 1    
   226  114  235 1    
   227  115  116 1    
   228  115  117 1    
   229  115  236 1    
   230  116  237 1    
   231  116  238 1    
   232  116  239 1    
   233  117  118 2    
   234  117  119 am   BACKBONE|DICT|INTERRES
   235  119  120 1    
   236  119  240 1    
   237  120  121 1    
   238  120  124 1    
   239  120  241 1    
   240  121  122 am   BACKBONE|DICT|INTERRES
   241  121  123 2    
   242  122  242 1    
   243  122  243 1    
   244  124  125 1    
   245  124  244 1    
   246  124  245 1    
   247  125  126 1    
   248  126  246 1    
   249  126  247 1    
@<TRIPOS>SUBSTRUCTURE
     1 UNK         1 GROUP             0       ****    0 ROOT    
