@<TRIPOS>MOLECULE
3R540
247   249    1
SMALL
USER_CHARGES


@<TRIPOS>ATOM
      1 CA         -4.1294  -18.8173  -46.1370 C.3       0 UNK        -0.1800 
      2 C          -4.5223  -17.3520  -46.2652 C.2       0 UNK         0.5000 
      3 O          -5.6177  -16.9720  -45.8523 O.2       0 UNK        -0.5000 
      4 N          -3.6413  -16.5393  -46.8614 N.am      1 UNK        -0.5000 
      5 CA         -3.8293  -15.1039  -47.0994 C.3       1 UNK         0.1400 
      6 C6         -2.7292  -14.5171  -48.0205 C.3       23 UNK        -0.0398 
      7 S7         -2.5928  -15.4038  -49.6100 S.3       23 UNK        -0.2404 
      8 C8         -0.9881  -16.2312  -49.4027 C.3       23 UNK        -0.0205 
      9 C9         -0.8016  -17.3196  -50.4437 C.ar      23 UNK        -0.0193 
     10 C10        -0.1291  -17.0478  -51.6362 C.ar      23 UNK        -0.1150 
     11 C11         0.0449  -18.0507  -52.5922 C.ar      23 UNK        -0.0193 
     12 C12        -0.4541  -19.3326  -52.3416 C.ar      23 UNK        -0.1150 
     13 C13        -1.1225  -19.6276  -51.1491 C.ar      23 UNK        -0.0193 
     14 C14        -1.2994  -18.6034  -50.2079 C.ar      23 UNK        -0.1150 
     15 C15        -1.6076  -21.0658  -50.9336 C.3       23 UNK        -0.0205 
     16 S16        -2.5332  -21.3950  -49.3910 S.3       23 UNK        -0.2404 
     17 C17        -1.2123  -21.2455  -48.1417 C.3       23 UNK        -0.0398 
     18 CA         -0.8811  -22.5638  -47.4090 C.3       11 UNK         0.1400 
     19 N           0.3469  -22.4369  -46.6234 N.am      11 UNK        -0.5000 
     20 C           0.9607  -23.4362  -45.9758 C.2       10 UNK         0.5000 
     21 O           0.5855  -24.6075  -46.0111 O.2       10 UNK        -0.5000 
     22 CA          2.1647  -23.0493  -45.0979 C.3       10 UNK         0.1400 
     23 CB          3.4279  -22.8618  -45.9511 C.3       10 UNK        -0.1800 
     24 N           1.9147  -21.8384  -44.3136 N.am      10 UNK        -0.5000 
     25 C           0.9738  -21.7335  -43.3634 C.2       9 UNK         0.5000 
     26 O           0.2575  -22.6694  -43.0055 O.2       9 UNK        -0.5000 
     27 CA          0.7608  -20.3368  -42.7497 C.3       9 UNK         0.1400 
     28 CB          1.8349  -20.0246  -41.6974 C.3       9 UNK        -0.1800 
     29 N           0.7412  -19.2778  -43.7595 N.am      9 UNK        -0.5000 
     30 C          -0.1718  -19.1731  -44.7340 C.2       8 UNK         0.5000 
     31 O          -1.1281  -19.9336  -44.8617 O.2       8 UNK        -0.5000 
     32 CA          0.0438  -18.0660  -45.7771 C.3       8 UNK         0.1400 
     33 CB         -0.4915  -16.7207  -45.2672 C.3       8 UNK        -0.1800 
     34 N           1.4483  -17.9370  -46.1627 N.am      8 UNK        -0.5000 
     35 C           2.1288  -18.8655  -46.8506 C.2       7 UNK         0.5000 
     36 O           1.6304  -19.9129  -47.2587 O.2       7 UNK        -0.5000 
     37 CA          3.6268  -18.5994  -47.0810 C.3       7 UNK         0.1400 
     38 CB          3.8270  -17.6546  -48.2756 C.3       7 UNK        -0.1800 
     39 N           4.2824  -18.0393  -45.8983 N.am      7 UNK        -0.5000 
     40 C           4.4405  -18.6911  -44.7365 C.2       6 UNK         0.5000 
     41 O           4.1046  -19.8619  -44.5578 O.2       6 UNK        -0.5000 
     42 CA          5.0118  -17.8736  -43.5596 C.3       6 UNK         0.1400 
     43 CB          6.5472  -17.9048  -43.5745 C.3       6 UNK        -0.1800 
     44 N           4.5511  -16.4794  -43.5434 N.am      6 UNK        -0.5000 
     45 C           3.2654  -16.1103  -43.4638 C.2       5 UNK         0.5000 
     46 O           2.3399  -16.9200  -43.3754 O.2       5 UNK        -0.5000 
     47 CA          2.9698  -14.6005  -43.5733 C.3       5 UNK         0.1400 
     48 CB          3.3156  -14.0838  -44.9807 C.3       5 UNK        -0.1800 
     49 N           1.5629  -14.2940  -43.3156 N.am      5 UNK        -0.5000 
     50 C           0.9564  -14.3536  -42.1230 C.2       4 UNK         0.5000 
     51 O           1.5489  -14.5885  -41.0677 O.2       4 UNK        -0.5000 
     52 CA         -0.5710  -14.1130  -42.1265 C.3       4 UNK         0.1400 
     53 CB         -1.1207  -13.7125  -40.7417 C.3       4 UNK        -0.1800 
     54 N          -1.0214  -13.1639  -43.1544 N.am      4 UNK        -0.5000 
     55 C          -0.6619  -11.8738  -43.2762 C.2       3 UNK         0.5000 
     56 O           0.1514  -11.3128  -42.5411 O.2       3 UNK        -0.5000 
     57 CA         -1.3190  -11.0634  -44.4136 C.3       3 UNK         0.1400 
     58 CB         -0.3939  -11.0262  -45.6404 C.3       3 UNK        -0.1800 
     59 N          -2.6257  -11.5786  -44.8256 N.am      3 UNK        -0.5000 
     60 C          -3.7228  -11.6218  -44.0562 C.2       2 UNK         0.5000 
     61 O          -3.7837  -11.1275  -42.9298 O.2       2 UNK        -0.5000 
     62 CA         -4.9569  -12.3540  -44.6264 C.3       2 UNK         0.1400 
     63 CB         -6.0449  -11.3424  -45.0201 C.3       2 UNK        -0.1800 
     64 N          -4.6932  -13.2308  -45.7757 N.am      2 UNK        -0.5000 
     65 C          -3.8930  -14.3065  -45.7785 C.2       1 UNK         0.5000 
     66 O          -3.1868  -14.6366  -44.8215 O.2       1 UNK        -0.5000 
     67 C          -2.0606  -23.0577  -46.5466 C.2       11 UNK         0.5000 
     68 O          -2.7422  -24.0012  -46.9485 O.2       11 UNK        -0.5000 
     69 N          -2.2575  -22.4468  -45.3688 N.am      12 UNK        -0.5000 
     70 CA         -3.2826  -22.8068  -44.3864 C.3       12 UNK         0.1400 
     71 CB         -3.2606  -21.8101  -43.2183 C.3       12 UNK        -0.1800 
     72 C          -3.1528  -24.2489  -43.8702 C.2       12 UNK         0.5000 
     73 O          -4.1668  -24.9309  -43.7199 O.2       12 UNK        -0.5000 
     74 N          -1.9103  -24.6931  -43.6390 N.am      13 UNK        -0.5000 
     75 CA         -1.5869  -26.0697  -43.2686 C.3       13 UNK         0.1400 
     76 CB         -0.1258  -26.1408  -42.7991 C.3       13 UNK        -0.1800 
     77 C          -1.8454  -27.0693  -44.4130 C.2       13 UNK         0.5000 
     78 O          -2.2919  -28.1864  -44.1487 O.2       13 UNK        -0.5000 
     79 N          -1.5602  -26.6549  -45.6551 N.am      14 UNK        -0.5000 
     80 CA         -1.7338  -27.4615  -46.8604 C.3       14 UNK         0.1400 
     81 CB         -0.9259  -26.8491  -48.0162 C.3       14 UNK        -0.1800 
     82 C          -3.2091  -27.6492  -47.2574 C.2       14 UNK         0.5000 
     83 O          -3.6367  -28.7899  -47.4438 O.2       14 UNK        -0.5000 
     84 N          -3.9536  -26.5432  -47.4011 N.am      15 UNK        -0.5000 
     85 CA         -5.3303  -26.5517  -47.9141 C.3       15 UNK         0.1400 
     86 CB         -5.3201  -26.8137  -49.4351 C.3       15 UNK        -0.1800 
     87 C          -6.1343  -25.2713  -47.6222 C.2       15 UNK         0.5000 
     88 O          -7.3624  -25.3204  -47.6981 O.2       15 UNK        -0.5000 
     89 N          -5.4550  -24.1489  -47.3417 N.am      16 UNK        -0.5000 
     90 CA         -6.0035  -22.7944  -47.1781 C.3       16 UNK         0.1400 
     91 CB         -6.9812  -22.7167  -45.9863 C.3       16 UNK        -0.1800 
     92 C          -6.5943  -22.2030  -48.4766 C.2       16 UNK         0.5000 
     93 O          -7.4078  -21.2788  -48.4195 O.2       16 UNK        -0.5000 
     94 N          -6.1493  -22.7153  -49.6315 N.am      17 UNK        -0.5000 
     95 CA         -6.5056  -22.2463  -50.9699 C.3       17 UNK         0.1400 
     96 CB         -6.3124  -23.4087  -51.9608 C.3       17 UNK        -0.1800 
     97 C          -5.6699  -21.0047  -51.3376 C.2       17 UNK         0.5000 
     98 O          -4.7921  -21.0840  -52.1958 O.2       17 UNK        -0.5000 
     99 N          -5.9222  -19.9019  -50.6215 N.am      18 UNK        -0.5000 
    100 CA        -5.1685  -18.6481  -50.6521 C.3       18 UNK         0.1400 
    101 CB        -5.8682  -17.6437  -49.7246 C.3       18 UNK        -0.1800 
    102 C         -4.9949  -18.0405  -52.0580 C.2       18 UNK         0.5000 
    103 O         -5.9303  -18.0737  -52.8615 O.2       18 UNK        -0.5000 
    104 N         -3.8104  -17.4586  -52.2938 N.am      19 UNK        -0.5000 
    105 CA        -3.3941  -16.7539  -53.5103 C.3       19 UNK         0.1400 
    106 CB        -4.2142  -15.4609  -53.7000 C.3       19 UNK        -0.1800 
    107 C         -3.3697  -17.6502  -54.7671 C.2       19 UNK         0.5000 
    108 O         -3.7275  -17.1975  -55.8567 O.2       19 UNK        -0.5000 
    109 N         -2.9194  -18.9031  -54.6069 N.am      20 UNK        -0.5000 
    110 CA        -2.7820  -19.9143  -55.6624 C.3       20 UNK         0.1400 
    111 CB        -2.7159  -21.3099  -55.0167 C.3       20 UNK        -0.1800 
    112 C         -1.5918  -19.6501  -56.6146 C.2       20 UNK         0.5000 
    113 O         -0.7255  -20.5111  -56.7816 O.2       20 UNK        -0.5000 
    114 N         -1.5767  -18.4555  -57.2190 N.am      21 UNK        -0.5000 
    115 CA        -0.6423  -17.9132  -58.2120 C.3       21 UNK         0.1400 
    116 CB        -0.6601  -18.7447  -59.5093 C.3       21 UNK        -0.1800 
    117 C          0.7979  -17.6968  -57.7077 C.2       21 UNK         0.5000 
    118 O          1.3052  -16.5799  -57.8136 O.2       21 UNK        -0.5000 
    119 N          1.4306  -18.7567  -57.1879 N.am      22 UNK        -0.5000 
    120 CA         2.8371  -18.8101  -56.7419 C.3       22 UNK         0.1400 
    121 C          3.8860  -18.5872  -57.8793 C.2       22 UNK         0.5000 
    122 N          3.5359  -18.7756  -59.1462 N.am      22 UNK        -0.7600 
    123 O          5.0448  -18.2742  -57.6184 O.2       22 UNK        -0.5000 
    124 C124        3.1049  -17.9330  -55.4837 C.3       23 UNK        -0.0398 
    125 S125        2.3591  -18.6318  -53.9734 S.3       23 UNK        -0.2404 
    126 C126        0.7712  -17.7514  -53.8940 C.3       23 UNK        -0.0205 
    127 H127       -3.2138  -19.0389  -46.6836 H         1 UNK         0.0600 
    128 H128       -4.9198  -19.4577  -46.5288 H         1 UNK         0.0600 
    129 H129       -3.9698  -19.0690  -45.0894 H         1 UNK         0.0600 
    130 H130       -2.7634  -16.9145  -47.1797 H         1 UNK         0.3000 
    131 H131       -4.7900  -14.9905  -47.6066 H         1 UNK         0.0600 
    132 H132       -1.7604  -14.5133  -47.5179 H         1 UNK         0.0800 
    133 H133       -2.9486  -13.4733  -48.2520 H         1 UNK         0.0800 
    134 H134       -0.1876  -15.4929  -49.4738 H         1 UNK         0.0800 
    135 H135       -0.9160  -16.6665  -48.4066 H         1 UNK         0.0800 
    136 H136        0.2562  -16.0544  -51.8192 H         1 UNK         0.1150 
    137 H137       -0.3006  -20.1100  -53.0769 H         1 UNK         0.1150 
    138 H138       -1.8167  -18.7889  -49.2796 H         1 UNK         0.1150 
    139 H139       -2.2448  -21.3444  -51.7727 H         1 UNK         0.0800 
    140 H140       -0.7487  -21.7372  -50.9723 H         1 UNK         0.0800 
    141 H141       -1.4936  -20.4691  -47.4322 H         1 UNK         0.0800 
    142 H142       -0.3147  -20.8790  -48.6399 H         1 UNK         0.0800 
    143 H143       -0.6897  -23.3269  -48.1662 H         1 UNK         0.0600 
    144 H144        0.7595  -21.5094  -46.5848 H         1 UNK         0.3000 
    145 H145        2.3440  -23.8696  -44.3998 H         1 UNK         0.0600 
    146 H146        4.2985  -22.6633  -45.3258 H         1 UNK         0.0600 
    147 H147        3.6425  -23.7584  -46.5338 H         1 UNK         0.0600 
    148 H148        3.3239  -22.0315  -46.6501 H         1 UNK         0.0600 
    149 H149        2.4998  -21.0337  -44.5172 H         1 UNK         0.3000 
    150 H150       -0.2110  -20.3374  -42.2518 H         1 UNK         0.0600 
    151 H151        1.8324  -20.7733  -40.9044 H         1 UNK         0.0600 
    152 H152        1.6601  -19.0544  -41.2318 H         1 UNK         0.0600 
    153 H153        2.8343  -20.0105  -42.1321 H         1 UNK         0.0600 
    154 H154        1.4648  -18.5661  -43.6967 H         1 UNK         0.3000 
    155 H155       -0.5240  -18.3386  -46.6683 H         1 UNK         0.0600 
    156 H156       -1.5489  -16.7973  -45.0146 H         1 UNK         0.0600 
    157 H157       -0.3851  -15.9358  -46.0150 H         1 UNK         0.0600 
    158 H158        0.0227  -16.3970  -44.3651 H         1 UNK         0.0600 
    159 H159        1.9485  -17.1419  -45.7962 H         1 UNK         0.3000 
    160 H160        4.1034  -19.5539  -47.3143 H         1 UNK         0.0600 
    161 H161        3.3970  -16.6696  -48.0899 H         1 UNK         0.0600 
    162 H162        3.3531  -18.0551  -49.1731 H         1 UNK         0.0600 
    163 H163        4.8855  -17.5222  -48.5001 H         1 UNK         0.0600 
    164 H164        4.5933  -17.0813  -45.9578 H         1 UNK         0.3000 
    165 H165        4.6704  -18.3456  -42.6362 H         1 UNK         0.0600 
    166 H166        6.9604  -17.4068  -42.6971 H         1 UNK         0.0600 
    167 H167        6.9165  -18.9312  -43.5676 H         1 UNK         0.0600 
    168 H168        6.9524  -17.4158  -44.4612 H         1 UNK         0.0600 
    169 H169        5.2642  -15.7681  -43.6178 H         1 UNK         0.3000 
    170 H170        3.5830  -14.0756  -42.8379 H         1 UNK         0.0600 
    171 H171        4.3734  -14.2206  -45.2079 H         1 UNK         0.0600 
    172 H172        2.7437  -14.6008  -45.7527 H         1 UNK         0.0600 
    173 H173        3.1067  -13.0173  -45.0696 H         1 UNK         0.0600 
    174 H174        0.9913  -14.0972  -44.1223 H         1 UNK         0.3000 
    175 H175       -1.0214  -15.0715  -42.3887 H         1 UNK         0.0600 
    176 H176       -0.6695  -12.7886  -40.3787 H         1 UNK         0.0600 
    177 H177       -2.2007  -13.5678  -40.7742 H         1 UNK         0.0600 
    178 H178       -0.9205  -14.4875  -40.0010 H         1 UNK         0.0600 
    179 H179       -1.7098  -13.5299  -43.8043 H         1 UNK         0.3000 
    180 H180       -1.4575  -10.0419  -44.0535 H         1 UNK         0.0600 
    181 H181       -0.2396  -12.0214  -46.0594 H         1 UNK         0.0600 
    182 H182        0.5863  -10.6249  -45.3791 H         1 UNK         0.0600 
    183 H183       -0.8042  -10.3905  -46.4253 H         1 UNK         0.0600 
    184 H184       -2.6786  -11.9941  -45.7426 H         1 UNK         0.3000 
    185 H185       -5.3496  -12.9808  -43.8232 H         1 UNK         0.0600 
    186 H186       -6.2997  -10.6929  -44.1814 H         1 UNK         0.0600 
    187 H187       -5.7204  -10.7038  -45.8426 H         1 UNK         0.0600 
    188 H188       -6.9618  -11.8465  -45.3261 H         1 UNK         0.0600 
    189 H189       -5.2195  -13.0187  -46.6114 H         1 UNK         0.3000 
    190 H190       -1.6792  -21.6428  -45.1314 H         1 UNK         0.3000 
    191 H191       -4.2511  -22.7221  -44.8757 H         1 UNK         0.0600 
    192 H192       -3.4470  -20.7935  -43.5615 H         1 UNK         0.0600 
    193 H193       -4.0312  -22.0504  -42.4848 H         1 UNK         0.0600 
    194 H194       -2.3015  -21.8162  -42.7009 H         1 UNK         0.0600 
    195 H195       -1.1338  -24.0469  -43.7334 H         1 UNK         0.3000 
    196 H196       -2.2254  -26.3530  -42.4292 H         1 UNK         0.0600 
    197 H197        0.1350  -27.1523  -42.4856 H         1 UNK         0.0600 
    198 H198        0.0470  -25.4809  -41.9486 H         1 UNK         0.0600 
    199 H199        0.5672  -25.8528  -43.5900 H         1 UNK         0.0600 
    200 H200       -1.1466  -25.7374  -45.7787 H         1 UNK         0.3000 
    201 H201       -1.3187  -28.4520  -46.6618 H         1 UNK         0.0600 
    202 H202        0.1361  -26.8071  -47.7739 H         1 UNK         0.0600 
    203 H203       -1.2533  -25.8366  -48.2516 H         1 UNK         0.0600 
    204 H204       -1.0287  -27.4458  -48.9234 H         1 UNK         0.0600 
    205 H205       -3.5256  -25.6434  -47.1995 H         1 UNK         0.3000 
    206 H206       -5.8711  -27.3650  -47.4253 H         1 UNK         0.0600 
    207 H207       -4.9068  -27.7937  -49.6726 H         1 UNK         0.0600 
    208 H208       -6.3294  -26.7873  -49.8485 H         1 UNK         0.0600 
    209 H209       -4.7297  -26.0649  -49.9645 H         1 UNK         0.0600 
    210 H210       -4.4396  -24.1911  -47.2886 H         1 UNK         0.3000 
    211 H211       -5.1499  -22.1581  -46.9425 H         1 UNK         0.0600 
    212 H212       -7.9318  -23.2015  -46.2097 H         1 UNK         0.0600 
    213 H213       -7.1994  -21.6794  -45.7300 H         1 UNK         0.0600 
    214 H214       -6.5674  -23.1911  -45.0967 H         1 UNK         0.0600 
    215 H215       -5.4459  -23.4369  -49.5861 H         1 UNK         0.3000 
    216 H216       -7.5594  -21.9604  -50.9878 H         1 UNK         0.0600 
    217 H217       -6.5744  -23.1042  -52.9748 H         1 UNK         0.0600 
    218 H218       -6.9470  -24.2564  -51.7015 H         1 UNK         0.0600 
    219 H219       -5.2790  -23.7579  -51.9785 H         1 UNK         0.0600 
    220 H220       -6.6467  -19.9701  -49.9170 H         1 UNK         0.3000 
    221 H221       -4.1815  -18.8656  -50.2419 H         1 UNK         0.0600 
    222 H222       -6.8634  -17.3882  -50.0907 H         1 UNK         0.0600 
    223 H223       -5.9784  -18.0451  -48.7178 H         1 UNK         0.0600 
    224 H224       -5.3005  -16.7164  -49.6467 H         1 UNK         0.0600 
    225 H225       -3.1148  -17.4792  -51.5599 H         1 UNK         0.3000 
    226 H226       -2.3603  -16.4509  -53.3445 H         1 UNK         0.0600 
    227 H227       -4.1871  -14.8436  -52.8019 H         1 UNK         0.0600 
    228 H228       -3.8138  -14.8598  -54.5171 H         1 UNK         0.0600 
    229 H229       -5.2585  -15.6720  -53.9314 H         1 UNK         0.0600 
    230 H230       -2.6573  -19.1945  -53.6764 H         1 UNK         0.3000 
    231 H231       -3.6838  -19.8857  -56.2773 H         1 UNK         0.0600 
    232 H232       -3.6201  -21.5232  -54.4491 H         1 UNK         0.0600 
    233 H233       -1.8633  -21.4073  -54.3449 H         1 UNK         0.0600 
    234 H234       -2.6283  -22.0902  -55.7738 H         1 UNK         0.0600 
    235 H235       -2.3326  -17.8264  -56.9584 H         1 UNK         0.3000 
    236 H236       -1.0324  -16.9250  -58.4613 H         1 UNK         0.0600 
    237 H237       -1.6678  -18.8096  -59.9197 H         1 UNK         0.0600 
    238 H238       -0.0285  -18.2883  -60.2725 H         1 UNK         0.0600 
    239 H239       -0.2981  -19.7610  -59.3517 H         1 UNK         0.0600 
    240 H240        0.8969  -19.6182  -57.1029 H         1 UNK         0.3000 
    241 H241        3.0031  -19.8474  -56.4490 H         1 UNK         0.0600 
    242 H242        2.5979  -19.0554  -59.3833 H         1 UNK         0.3800 
    243 H243        4.2197  -18.6422  -59.8749 H         1 UNK         0.3800 
    244 H244        4.1737  -17.8666  -55.2758 H         1 UNK         0.0800 
    245 H245        2.7725  -16.9055  -55.6330 H         1 UNK         0.0800 
    246 H246        0.9439  -16.6794  -54.0014 H         1 UNK         0.0800 
    247 H247        0.1439  -18.0523  -54.7321 H         1 UNK         0.0800 
@<TRIPOS>BOND
     1    1    2 1    
     2    1  127 1    
     3    1  128 1    
     4    1  129 1    
     5    2    3 2    
     6    2    4 am   BACKBONE|DICT|INTERRES
     7    4    5 1    
     8    4  130 1    
     9    5    6 1    
    10    5   65 1    
    11    5  131 1    
    12    6    7 1    
    13    6  132 1    
    14    6  133 1    
    15    7    8 1    
    16    8    9 1    
    17    8  134 1    
    18    8  135 1    
    19    9   10 ar   
    20    9   14 ar   
    21   10   11 ar   
    22   10  136 1    
    23   11   12 ar   
    24   11  126 1    
    25   12   13 ar   
    26   12  137 1    
    27   13   14 ar   
    28   13   15 1    
    29   14  138 1    
    30   15   16 1    
    31   15  139 1    
    32   15  140 1    
    33   16   17 1    
    34   17   18 1    
    35   17  141 1    
    36   17  142 1    
    37   18   19 1    
    38   18   67 1    
    39   18  143 1    
    40   19   20 am   BACKBONE|DICT|INTERRES
    41   19  144 1    
    42   20   21 2    
    43   20   22 1    
    44   22   23 1    
    45   22   24 1    
    46   22  145 1    
    47   23  146 1    
    48   23  147 1    
    49   23  148 1    
    50   24   25 am   BACKBONE|DICT|INTERRES
    51   24  149 1    
    52   25   26 2    
    53   25   27 1    
    54   27   28 1    
    55   27   29 1    
    56   27  150 1    
    57   28  151 1    
    58   28  152 1    
    59   28  153 1    
    60   29   30 am   BACKBONE|DICT|INTERRES
    61   29  154 1    
    62   30   31 2    
    63   30   32 1    
    64   32   33 1    
    65   32   34 1    
    66   32  155 1    
    67   33  156 1    
    68   33  157 1    
    69   33  158 1    
    70   34   35 am   BACKBONE|DICT|INTERRES
    71   34  159 1    
    72   35   36 2    
    73   35   37 1    
    74   37   38 1    
    75   37   39 1    
    76   37  160 1    
    77   38  161 1    
    78   38  162 1    
    79   38  163 1    
    80   39   40 am   BACKBONE|DICT|INTERRES
    81   39  164 1    
    82   40   41 2    
    83   40   42 1    
    84   42   43 1    
    85   42   44 1    
    86   42  165 1    
    87   43  166 1    
    88   43  167 1    
    89   43  168 1    
    90   44   45 am   BACKBONE|DICT|INTERRES
    91   44  169 1    
    92   45   46 2    
    93   45   47 1    
    94   47   48 1    
    95   47   49 1    
    96   47  170 1    
    97   48  171 1    
    98   48  172 1    
    99   48  173 1    
   100   49   50 am   BACKBONE|DICT|INTERRES
   101   49  174 1    
   102   50   51 2    
   103   50   52 1    
   104   52   53 1    
   105   52   54 1    
   106   52  175 1    
   107   53  176 1    
   108   53  177 1    
   109   53  178 1    
   110   54   55 am   BACKBONE|DICT|INTERRES
   111   54  179 1    
   112   55   56 2    
   113   55   57 1    
   114   57   58 1    
   115   57   59 1    
   116   57  180 1    
   117   58  181 1    
   118   58  182 1    
   119   58  183 1    
   120   59   60 am   BACKBONE|DICT|INTERRES
   121   59  184 1    
   122   60   61 2    
   123   60   62 1    
   124   62   63 1    
   125   62   64 1    
   126   62  185 1    
   127   63  186 1    
   128   63  187 1    
   129   63  188 1    
   130   64   65 am   BACKBONE|DICT|INTERRES
   131   64  189 1    
   132   65   66 2    
   133   67   68 2    
   134   67   69 am   BACKBONE|DICT|INTERRES
   135   69   70 1    
   136   69  190 1    
   137   70   71 1    
   138   70   72 1    
   139   70  191 1    
   140   71  192 1    
   141   71  193 1    
   142   71  194 1    
   143   72   73 2    
   144   72   74 am   BACKBONE|DICT|INTERRES
   145   74   75 1    
   146   74  195 1    
   147   75   76 1    
   148   75   77 1    
   149   75  196 1    
   150   76  197 1    
   151   76  198 1    
   152   76  199 1    
   153   77   78 2    
   154   77   79 am   BACKBONE|DICT|INTERRES
   155   79   80 1    
   156   79  200 1    
   157   80   81 1    
   158   80   82 1    
   159   80  201 1    
   160   81  202 1    
   161   81  203 1    
   162   81  204 1    
   163   82   83 2    
   164   82   84 am   BACKBONE|DICT|INTERRES
   165   84   85 1    
   166   84  205 1    
   167   85   86 1    
   168   85   87 1    
   169   85  206 1    
   170   86  207 1    
   171   86  208 1    
   172   86  209 1    
   173   87   88 2    
   174   87   89 am   BACKBONE|DICT|INTERRES
   175   89   90 1    
   176   89  210 1    
   177   90   91 1    
   178   90   92 1    
   179   90  211 1    
   180   91  212 1    
   181   91  213 1    
   182   91  214 1    
   183   92   93 2    
   184   92   94 am   BACKBONE|DICT|INTERRES
   185   94   95 1    
   186   94  215 1    
   187   95   96 1    
   188   95   97 1    
   189   95  216 1    
   190   96  217 1    
   191   96  218 1    
   192   96  219 1    
   193   97   98 2    
   194   97   99 am   BACKBONE|DICT|INTERRES
   195   99  100 1    
   196   99  220 1    
   197  100  101 1    
   198  100  102 1    
   199  100  221 1    
   200  101  222 1    
   201  101  223 1    
   202  101  224 1    
   203  102  103 2    
   204  102  104 am   BACKBONE|DICT|INTERRES
   205  104  105 1    
   206  104  225 1    
   207  105  106 1    
   208  105  107 1    
   209  105  226 1    
   210  106  227 1    
   211  106  228 1    
   212  106  229 1    
   213  107  108 2    
   214  107  109 am   BACKBONE|DICT|INTERRES
   215  109  110 1    
   216  109  230 1    
   217  110  111 1    
   218  110  112 1    
   219  110  231 1    
   220  111  232 1    
   221  111  233 1    
   222  111  234 1    
   223  112  113 2    
   224  112  114 am   BACKBONE|DICT|INTERRES
   225  114  115 1    
   226  114  235 1    
   227  115  116 1    
   228  115  117 1    
   229  115  236 1    
   230  116  237 1    
   231  116  238 1    
   232  116  239 1    
   233  117  118 2    
   234  117  119 am   BACKBONE|DICT|INTERRES
   235  119  120 1    
   236  119  240 1    
   237  120  121 1    
   238  120  124 1    
   239  120  241 1    
   240  121  122 am   BACKBONE|DICT|INTERRES
   241  121  123 2    
   242  122  242 1    
   243  122  243 1    
   244  124  125 1    
   245  124  244 1    
   246  124  245 1    
   247  125  126 1    
   248  126  246 1    
   249  126  247 1    
@<TRIPOS>SUBSTRUCTURE
     1 UNK         1 GROUP             0       ****    0 ROOT    
