@<TRIPOS>MOLECULE
3R540
247   249    1
SMALL
USER_CHARGES


@<TRIPOS>ATOM
      1 CA         -2.0375  -13.7158  -50.0411 C.3       0 UNK        -0.1800 
      2 C          -0.9591  -12.7935  -49.4908 C.2       0 UNK         0.5000 
      3 O          -0.8896  -11.6266  -49.8774 O.2       0 UNK        -0.5000 
      4 N          -0.1183  -13.3142  -48.5905 N.am      1 UNK        -0.5000 
      5 CA          0.9489  -12.5815  -47.9074 C.3       1 UNK         0.1400 
      6 C6          2.0526  -13.5224  -47.3545 C.3       23 UNK        -0.0398 
      7 S7          2.8882  -14.4868  -48.6561 S.3       23 UNK        -0.2404 
      8 C8          1.9916  -16.0683  -48.5280 C.3       23 UNK        -0.0205 
      9 C9          2.3371  -17.0404  -49.6457 C.ar      23 UNK        -0.0193 
     10 C10         2.2686  -16.6353  -50.9822 C.ar      23 UNK        -0.1150 
     11 C11         2.5553  -17.5287  -52.0170 C.ar      23 UNK        -0.0193 
     12 C12         2.9056  -18.8454  -51.7039 C.ar      23 UNK        -0.1150 
     13 C13         2.9432  -19.2746  -50.3739 C.ar      23 UNK        -0.0193 
     14 C14         2.6720  -18.3643  -49.3477 C.ar      23 UNK        -0.1150 
     15 C15         3.2621  -20.7268  -50.0536 C.3       23 UNK        -0.0205 
     16 S16         1.7469  -21.7379  -49.9902 S.3       23 UNK        -0.2404 
     17 C17         1.0770  -21.2962  -48.3494 C.3       23 UNK        -0.0398 
     18 CA          0.4404  -22.4912  -47.6009 C.3       11 UNK         0.1400 
     19 N           0.2791  -22.1985  -46.1737 N.am      11 UNK        -0.5000 
     20 C          -0.1141  -23.0813  -45.2449 C.2       10 UNK         0.5000 
     21 O          -0.3538  -24.2642  -45.4813 O.2       10 UNK        -0.5000 
     22 CA         -0.3209  -22.5432  -43.8186 C.3       10 UNK         0.1400 
     23 CB          1.0248  -22.3732  -43.0984 C.3       10 UNK        -0.1800 
     24 N          -1.0644  -21.2826  -43.7937 N.am      10 UNK        -0.5000 
     25 C          -2.3274  -21.1426  -44.2229 C.2       9 UNK         0.5000 
     26 O          -3.0099  -22.0715  -44.6519 O.2       9 UNK        -0.5000 
     27 CA         -2.9183  -19.7225  -44.2155 C.3       9 UNK         0.1400 
     28 CB         -3.3805  -19.3307  -42.8043 C.3       9 UNK        -0.1800 
     29 N          -1.9893  -18.7167  -44.7289 N.am      9 UNK        -0.5000 
     30 C          -1.4801  -18.7079  -45.9693 C.2       8 UNK         0.5000 
     31 O          -1.7515  -19.5424  -46.8316 O.2       8 UNK        -0.5000 
     32 CA         -0.4396  -17.6175  -46.2763 C.3       8 UNK         0.1400 
     33 CB         -1.1117  -16.2466  -46.4553 C.3       8 UNK        -0.1800 
     34 N           0.5892  -17.5388  -45.2387 N.am      8 UNK        -0.5000 
     35 C           1.4199  -18.5432  -44.9202 C.2       7 UNK         0.5000 
     36 O           1.4627  -19.6159  -45.5218 O.2       7 UNK        -0.5000 
     37 CA          2.3141  -18.3344  -43.6888 C.3       7 UNK         0.1400 
     38 CB          3.5919  -17.5691  -44.0648 C.3       7 UNK        -0.1800 
     39 N           1.6002  -17.6345  -42.6197 N.am      7 UNK        -0.5000 
     40 C           0.6274  -18.1879  -41.8800 C.2       6 UNK         0.5000 
     41 O           0.2625  -19.3568  -42.0000 O.2       6 UNK        -0.5000 
     42 CA         -0.0850  -17.2761  -40.8632 C.3       6 UNK         0.1400 
     43 CB          0.7023  -17.2162  -39.5459 C.3       6 UNK        -0.1800 
     44 N          -0.2902  -15.9183  -41.3677 N.am      6 UNK        -0.5000 
     45 C          -1.0942  -15.6038  -42.3931 C.2       5 UNK         0.5000 
     46 O          -1.7975  -16.4230  -42.9827 O.2       5 UNK        -0.5000 
     47 CA         -1.0662  -14.1409  -42.8768 C.3       5 UNK         0.1400 
     48 CB         -2.1413  -13.3113  -42.1605 C.3       5 UNK        -0.1800 
     49 N           0.2367  -13.4879  -42.7152 N.am      5 UNK        -0.5000 
     50 C           1.3748  -13.9068  -43.2844 C.2       4 UNK         0.5000 
     51 O           1.4575  -14.9277  -43.9705 O.2       4 UNK        -0.5000 
     52 CA          2.6037  -13.0173  -43.0580 C.3       4 UNK         0.1400 
     53 CB          3.8924  -13.5937  -43.6768 C.3       4 UNK        -0.1800 
     54 N           2.3397  -11.6854  -43.5985 N.am      4 UNK        -0.5000 
     55 C           2.8771  -10.5516  -43.1278 C.2       3 UNK         0.5000 
     56 O           3.6070  -10.5146  -42.1359 O.2       3 UNK        -0.5000 
     57 CA          2.5891   -9.2381  -43.8856 C.3       3 UNK         0.1400 
     58 CB          3.8845   -8.6767  -44.4952 C.3       3 UNK        -0.1800 
     59 N           1.6061   -9.3869  -44.9589 N.am      3 UNK        -0.5000 
     60 C           0.2785   -9.2977  -44.8080 C.2       2 UNK         0.5000 
     61 O          -0.2749   -9.0571  -43.7348 O.2       2 UNK        -0.5000 
     62 CA         -0.5737   -9.5427  -46.0711 C.3       2 UNK         0.1400 
     63 CB         -0.8861   -8.2141  -46.7759 C.3       2 UNK        -0.1800 
     64 N           0.0440  -10.4637  -47.0340 N.am      2 UNK        -0.5000 
     65 C           0.3239  -11.7473  -46.7751 C.2       1 UNK         0.5000 
     66 O           0.0972  -12.2788  -45.6893 O.2       1 UNK        -0.5000 
     67 C          -0.8925  -22.9309  -48.2433 C.2       11 UNK         0.5000 
     68 O          -0.9356  -23.9633  -48.9160 O.2       11 UNK        -0.5000 
     69 N          -1.9626  -22.1674  -47.9754 N.am      12 UNK        -0.5000 
     70 CA         -3.3237  -22.4507  -48.4257 C.3       12 UNK         0.1400 
     71 CB         -4.2512  -21.2918  -48.0309 C.3       12 UNK        -0.1800 
     72 C          -3.8633  -23.7921  -47.9006 C.2       12 UNK         0.5000 
     73 O          -4.4483  -24.5480  -48.6737 O.2       12 UNK        -0.5000 
     74 N          -3.6282  -24.0824  -46.6137 N.am      13 UNK        -0.5000 
     75 CA         -4.0053  -25.3384  -45.9662 C.3       13 UNK         0.1400 
     76 CB         -3.8310  -25.2090  -44.4455 C.3       13 UNK        -0.1800 
     77 C          -3.2213  -26.5505  -46.5002 C.2       13 UNK         0.5000 
     78 O          -3.8208  -27.6034  -46.7186 O.2       13 UNK        -0.5000 
     79 N          -1.9071  -26.3831  -46.7076 N.am      14 UNK        -0.5000 
     80 CA         -1.0051  -27.4224  -47.2072 C.3       14 UNK         0.1400 
     81 CB          0.4522  -26.9537  -47.0748 C.3       14 UNK        -0.1800 
     82 C          -1.3120  -27.8370  -48.6560 C.2       14 UNK         0.5000 
     83 O          -1.3561  -29.0328  -48.9486 O.2       14 UNK        -0.5000 
     84 N          -1.5311  -26.8467  -49.5310 N.am      15 UNK        -0.5000 
     85 CA         -1.8957  -27.0640  -50.9327 C.3       15 UNK         0.1400 
     86 CB         -1.5189  -25.8158  -51.7383 C.3       15 UNK        -0.1800 
     87 C          -3.3850  -27.4160  -51.1229 C.2       15 UNK         0.5000 
     88 O          -3.7410  -27.9930  -52.1511 O.2       15 UNK        -0.5000 
     89 N          -4.2235  -27.0555  -50.1414 N.am      16 UNK        -0.5000 
     90 CA         -5.6678  -27.2785  -50.0010 C.3       16 UNK         0.1400 
     91 CB         -6.0111  -28.7799  -50.0102 C.3       16 UNK        -0.1800 
     92 C          -6.5379  -26.4955  -51.0027 C.2       16 UNK         0.5000 
     93 O          -7.5040  -25.8512  -50.5929 O.2       16 UNK        -0.5000 
     94 N          -6.1896  -26.5613  -52.2918 N.am      17 UNK        -0.5000 
     95 CA         -6.8977  -25.9034  -53.3917 C.3       17 UNK         0.1400 
     96 CB         -6.6610  -26.7161  -54.6744 C.3       17 UNK        -0.1800 
     97 C          -6.4692  -24.4377  -53.6005 C.2       17 UNK         0.5000 
     98 O          -7.1458  -23.7081  -54.3277 O.2       17 UNK        -0.5000 
     99 N          -5.3468  -24.0336  -52.9925 N.am      18 UNK        -0.5000 
    100 CA        -4.7337  -22.7164  -53.1414 C.3       18 UNK         0.1400 
    101 CB        -3.2408  -22.8275  -52.8053 C.3       18 UNK        -0.1800 
    102 C         -5.4400  -21.6540  -52.2808 C.2       18 UNK         0.5000 
    103 O         -4.9215  -21.2538  -51.2361 O.2       18 UNK        -0.5000 
    104 N         -6.6186  -21.2122  -52.7345 N.am      19 UNK        -0.5000 
    105 CA        -7.3626  -20.0912  -52.1617 C.3       19 UNK         0.1400 
    106 CB        -8.7034  -19.9419  -52.8974 C.3       19 UNK        -0.1800 
    107 C         -6.5331  -18.7938  -52.2358 C.2       19 UNK         0.5000 
    108 O         -6.1693  -18.3711  -53.3350 O.2       19 UNK        -0.5000 
    109 N         -6.2259  -18.2253  -51.0618 N.am      20 UNK        -0.5000 
    110 CA        -5.3231  -17.0886  -50.8412 C.3       20 UNK         0.1400 
    111 CB        -5.8509  -15.8043  -51.5168 C.3       20 UNK        -0.1800 
    112 C         -3.8470  -17.3988  -51.1834 C.2       20 UNK         0.5000 
    113 O         -3.1142  -16.4964  -51.5904 O.2       20 UNK        -0.5000 
    114 N         -3.4355  -18.6583  -50.9657 N.am      21 UNK        -0.5000 
    115 CA        -2.0820  -19.1981  -51.1372 C.3       21 UNK         0.1400 
    116 CB        -1.0768  -18.4574  -50.2252 C.3       21 UNK        -0.1800 
    117 C         -1.6269  -19.2544  -52.6125 C.2       21 UNK         0.5000 
    118 O         -2.4525  -19.1601  -53.5237 O.2       21 UNK        -0.5000 
    119 N         -0.3180  -19.4561  -52.8143 N.am      22 UNK        -0.5000 
    120 CA         0.3615  -19.5226  -54.1210 C.3       22 UNK         0.1400 
    121 C         -0.0052  -20.7697  -54.9803 C.2       22 UNK         0.5000 
    122 N         -0.3341  -21.9006  -54.3693 N.am      22 UNK        -0.7600 
    123 O          0.0378  -20.7315  -56.2073 O.2       22 UNK        -0.5000 
    124 C124        0.3041  -18.1899  -54.9213 C.3       23 UNK        -0.0398 
    125 S125        0.7833  -16.6930  -53.9857 S.3       23 UNK        -0.2404 
    126 C126        2.4934  -17.0530  -53.4629 C.3       23 UNK        -0.0205 
    127 H127       -1.9700  -14.7185  -49.6181 H         1 UNK         0.0600 
    128 H128       -1.9430  -13.8011  -51.1237 H         1 UNK         0.0600 
    129 H129       -3.0263  -13.3177  -49.8149 H         1 UNK         0.0600 
    130 H130       -0.2490  -14.2676  -48.2935 H         1 UNK         0.3000 
    131 H131        1.4212  -11.9001  -48.6188 H         1 UNK         0.0600 
    132 H132        2.8202  -12.9339  -46.8495 H         1 UNK         0.0800 
    133 H133        1.6576  -14.2046  -46.6002 H         1 UNK         0.0800 
    134 H134        0.9194  -15.8859  -48.5725 H         1 UNK         0.0800 
    135 H135        2.2007  -16.5092  -47.5519 H         1 UNK         0.0800 
    136 H136        1.9890  -15.6185  -51.2206 H         1 UNK         0.1150 
    137 H137        3.1424  -19.5447  -52.4925 H         1 UNK         0.1150 
    138 H138        2.7037  -18.6917  -48.3180 H         1 UNK         0.1150 
    139 H139        3.9225  -21.1361  -50.8196 H         1 UNK         0.0800 
    140 H140        3.8105  -20.8030  -49.1135 H         1 UNK         0.0800 
    141 H141        0.3718  -20.4707  -48.4481 H         1 UNK         0.0800 
    142 H142        1.9018  -20.9103  -47.7509 H         1 UNK         0.0800 
    143 H143        1.1286  -23.3367  -47.6678 H         1 UNK         0.0600 
    144 H144        0.4831  -21.2457  -45.8845 H         1 UNK         0.3000 
    145 H145       -0.9063  -23.2829  -43.2685 H         1 UNK         0.0600 
    146 H146        0.8804  -22.0810  -42.0583 H         1 UNK         0.0600 
    147 H147        1.5882  -23.3071  -43.0981 H         1 UNK         0.0600 
    148 H148        1.6453  -21.6151  -43.5762 H         1 UNK         0.0600 
    149 H149       -0.5835  -20.4781  -43.4036 H         1 UNK         0.3000 
    150 H150       -3.7927  -19.7254  -44.8692 H         1 UNK         0.0600 
    151 H151       -4.0869  -20.0609  -42.4075 H         1 UNK         0.0600 
    152 H152       -3.8814  -18.3626  -42.8089 H         1 UNK         0.0600 
    153 H153       -2.5435  -19.2702  -42.1083 H         1 UNK         0.0600 
    154 H154       -1.7406  -17.9651  -44.0910 H         1 UNK         0.3000 
    155 H155        0.0565  -17.8840  -47.2114 H         1 UNK         0.0600 
    156 H156       -1.7510  -15.9925  -45.6103 H         1 UNK         0.0600 
    157 H157       -0.3765  -15.4502  -46.5550 H         1 UNK         0.0600 
    158 H158       -1.7371  -16.2371  -47.3488 H         1 UNK         0.0600 
    159 H159        0.6519  -16.6769  -44.7072 H         1 UNK         0.3000 
    160 H160        2.6092  -19.3172  -43.3153 H         1 UNK         0.0600 
    161 H161        4.1839  -18.1380  -44.7826 H         1 UNK         0.0600 
    162 H162        3.3718  -16.6048  -44.5223 H         1 UNK         0.0600 
    163 H163        4.2205  -17.3932  -43.1918 H         1 UNK         0.0600 
    164 H164        1.7852  -16.6456  -42.5268 H         1 UNK         0.3000 
    165 H165       -1.0646  -17.7116  -40.6554 H         1 UNK         0.0600 
    166 H166        0.1681  -16.6360  -38.7933 H         1 UNK         0.0600 
    167 H167        0.8536  -18.2161  -39.1367 H         1 UNK         0.0600 
    168 H168        1.6859  -16.7652  -39.6829 H         1 UNK         0.0600 
    169 H169        0.2513  -15.1823  -40.9393 H         1 UNK         0.3000 
    170 H170       -1.2965  -14.1466  -43.9441 H         1 UNK         0.0600 
    171 H171       -3.1277  -13.7605  -42.2841 H         1 UNK         0.0600 
    172 H172       -1.9455  -13.2359  -41.0902 H         1 UNK         0.0600 
    173 H173       -2.1928  -12.3005  -42.5660 H         1 UNK         0.0600 
    174 H174        0.2476  -12.6257  -42.1902 H         1 UNK         0.3000 
    175 H175        2.7437  -12.9533  -41.9770 H         1 UNK         0.0600 
    176 H176        3.8055  -13.7101  -44.7570 H         1 UNK         0.0600 
    177 H177        4.7500  -12.9512  -43.4775 H         1 UNK         0.0600 
    178 H178        4.1206  -14.5737  -43.2569 H         1 UNK         0.0600 
    179 H179        1.6811  -11.6474  -44.3683 H         1 UNK         0.3000 
    180 H180        2.2186   -8.5159  -43.1550 H         1 UNK         0.0600 
    181 H181        4.3161   -9.3625  -45.2254 H         1 UNK         0.0600 
    182 H182        4.6374   -8.5006  -43.7257 H         1 UNK         0.0600 
    183 H183        3.7052   -7.7238  -44.9936 H         1 UNK         0.0600 
    184 H184        1.9695   -9.5822  -45.8802 H         1 UNK         0.3000 
    185 H185       -1.5171   -9.9863  -45.7458 H         1 UNK         0.0600 
    186 H186       -1.5603   -8.3640  -47.6195 H         1 UNK         0.0600 
    187 H187       -1.3715   -7.5144  -46.0941 H         1 UNK         0.0600 
    188 H188        0.0192   -7.7341  -47.1497 H         1 UNK         0.0600 
    189 H189        0.2046  -10.1069  -47.9660 H         1 UNK         0.3000 
    190 H190       -1.8411  -21.3217  -47.4227 H         1 UNK         0.3000 
    191 H191       -3.2993  -22.5099  -49.5139 H         1 UNK         0.0600 
    192 H192       -4.2926  -21.1573  -46.9501 H         1 UNK         0.0600 
    193 H193       -5.2683  -21.4707  -48.3817 H         1 UNK         0.0600 
    194 H194       -3.9164  -20.3532  -48.4726 H         1 UNK         0.0600 
    195 H195       -3.1848  -23.3829  -46.0236 H         1 UNK         0.3000 
    196 H196       -5.0638  -25.5140  -46.1698 H         1 UNK         0.0600 
    197 H197       -4.1107  -26.1334  -43.9387 H         1 UNK         0.0600 
    198 H198       -4.4605  -24.4149  -44.0438 H         1 UNK         0.0600 
    199 H199       -2.7982  -24.9848  -44.1765 H         1 UNK         0.0600 
    200 H200       -1.4779  -25.4968  -46.4548 H         1 UNK         0.3000 
    201 H201       -1.1326  -28.3050  -46.5771 H         1 UNK         0.0600 
    202 H202        0.7125  -26.7700  -46.0324 H         1 UNK         0.0600 
    203 H203        0.6315  -26.0330  -47.6313 H         1 UNK         0.0600 
    204 H204        1.1431  -27.7081  -47.4533 H         1 UNK         0.0600 
    205 H205       -1.4379  -25.8825  -49.2225 H         1 UNK         0.3000 
    206 H206       -1.3149  -27.9015  -51.3251 H         1 UNK         0.0600 
    207 H207       -0.4395  -25.6634  -51.7437 H         1 UNK         0.0600 
    208 H208       -1.8440  -25.8955  -52.7764 H         1 UNK         0.0600 
    209 H209       -1.9738  -24.9269  -51.3077 H         1 UNK         0.0600 
    210 H210       -3.8305  -26.5002  -49.3912 H         1 UNK         0.3000 
    211 H211       -5.9202  -26.8989  -49.0096 H         1 UNK         0.0600 
    212 H212       -5.8001  -29.2440  -50.9738 H         1 UNK         0.0600 
    213 H213       -7.0695  -28.9368  -49.7991 H         1 UNK         0.0600 
    214 H214       -5.4446  -29.3155  -49.2481 H         1 UNK         0.0600 
    215 H215       -5.3724  -27.1187  -52.5282 H         1 UNK         0.3000 
    216 H216       -7.9692  -25.9049  -53.1811 H         1 UNK         0.0600 
    217 H217       -7.1942  -26.2798  -55.5201 H         1 UNK         0.0600 
    218 H218       -7.0156  -27.7409  -54.5623 H         1 UNK         0.0600 
    219 H219       -5.6028  -26.7540  -54.9363 H         1 UNK         0.0600 
    220 H220       -4.8828  -24.6833  -52.3761 H         1 UNK         0.3000 
    221 H221       -4.8108  -22.4056  -54.1857 H         1 UNK         0.0600 
    222 H222       -3.0832  -23.0839  -51.7595 H         1 UNK         0.0600 
    223 H223       -2.7472  -23.5765  -53.4241 H         1 UNK         0.0600 
    224 H224       -2.7419  -21.8777  -52.9846 H         1 UNK         0.0600 
    225 H225       -6.9934  -21.6312  -53.5764 H         1 UNK         0.3000 
    226 H226       -7.5720  -20.3268  -51.1161 H         1 UNK         0.0600 
    227 H227       -9.3067  -20.8453  -52.8050 H         1 UNK         0.0600 
    228 H228       -9.2852  -19.1178  -52.4829 H         1 UNK         0.0600 
    229 H229       -8.5604  -19.7415  -53.9601 H         1 UNK         0.0600 
    230 H230       -6.5709  -18.6657  -50.2201 H         1 UNK         0.3000 
    231 H231       -5.3372  -16.9084  -49.7653 H         1 UNK         0.0600 
    232 H232       -5.2746  -14.9338  -51.2013 H         1 UNK         0.0600 
    233 H233       -6.8912  -15.6167  -51.2513 H         1 UNK         0.0600 
    234 H234       -5.7848  -15.8590  -52.6035 H         1 UNK         0.0600 
    235 H235       -4.1381  -19.3542  -50.7430 H         1 UNK         0.3000 
    236 H236       -2.1359  -20.2332  -50.7958 H         1 UNK         0.0600 
    237 H237       -0.1305  -18.9916  -50.1587 H         1 UNK         0.0600 
    238 H238       -1.4634  -18.3616  -49.2119 H         1 UNK         0.0600 
    239 H239       -0.8542  -17.4550  -50.5928 H         1 UNK         0.0600 
    240 H240        0.2892  -19.5197  -52.0102 H         1 UNK         0.3000 
    241 H241        1.4095  -19.6953  -53.8917 H         1 UNK         0.0600 
    242 H242       -0.5546  -22.7122  -54.9238 H         1 UNK         0.3800 
    243 H243       -0.3423  -21.9593  -53.3645 H         1 UNK         0.3800 
    244 H244        0.9502  -18.2491  -55.7986 H         1 UNK         0.0800 
    245 H245       -0.7045  -18.0301  -55.3050 H         1 UNK         0.0800 
    246 H246        2.9528  -17.7757  -54.1386 H         1 UNK         0.0800 
    247 H247        3.0826  -16.1395  -53.5543 H         1 UNK         0.0800 
@<TRIPOS>BOND
     1    1    2 1    
     2    1  127 1    
     3    1  128 1    
     4    1  129 1    
     5    2    3 2    
     6    2    4 am   BACKBONE|DICT|INTERRES
     7    4    5 1    
     8    4  130 1    
     9    5    6 1    
    10    5   65 1    
    11    5  131 1    
    12    6    7 1    
    13    6  132 1    
    14    6  133 1    
    15    7    8 1    
    16    8    9 1    
    17    8  134 1    
    18    8  135 1    
    19    9   10 ar   
    20    9   14 ar   
    21   10   11 ar   
    22   10  136 1    
    23   11   12 ar   
    24   11  126 1    
    25   12   13 ar   
    26   12  137 1    
    27   13   14 ar   
    28   13   15 1    
    29   14  138 1    
    30   15   16 1    
    31   15  139 1    
    32   15  140 1    
    33   16   17 1    
    34   17   18 1    
    35   17  141 1    
    36   17  142 1    
    37   18   19 1    
    38   18   67 1    
    39   18  143 1    
    40   19   20 am   BACKBONE|DICT|INTERRES
    41   19  144 1    
    42   20   21 2    
    43   20   22 1    
    44   22   23 1    
    45   22   24 1    
    46   22  145 1    
    47   23  146 1    
    48   23  147 1    
    49   23  148 1    
    50   24   25 am   BACKBONE|DICT|INTERRES
    51   24  149 1    
    52   25   26 2    
    53   25   27 1    
    54   27   28 1    
    55   27   29 1    
    56   27  150 1    
    57   28  151 1    
    58   28  152 1    
    59   28  153 1    
    60   29   30 am   BACKBONE|DICT|INTERRES
    61   29  154 1    
    62   30   31 2    
    63   30   32 1    
    64   32   33 1    
    65   32   34 1    
    66   32  155 1    
    67   33  156 1    
    68   33  157 1    
    69   33  158 1    
    70   34   35 am   BACKBONE|DICT|INTERRES
    71   34  159 1    
    72   35   36 2    
    73   35   37 1    
    74   37   38 1    
    75   37   39 1    
    76   37  160 1    
    77   38  161 1    
    78   38  162 1    
    79   38  163 1    
    80   39   40 am   BACKBONE|DICT|INTERRES
    81   39  164 1    
    82   40   41 2    
    83   40   42 1    
    84   42   43 1    
    85   42   44 1    
    86   42  165 1    
    87   43  166 1    
    88   43  167 1    
    89   43  168 1    
    90   44   45 am   BACKBONE|DICT|INTERRES
    91   44  169 1    
    92   45   46 2    
    93   45   47 1    
    94   47   48 1    
    95   47   49 1    
    96   47  170 1    
    97   48  171 1    
    98   48  172 1    
    99   48  173 1    
   100   49   50 am   BACKBONE|DICT|INTERRES
   101   49  174 1    
   102   50   51 2    
   103   50   52 1    
   104   52   53 1    
   105   52   54 1    
   106   52  175 1    
   107   53  176 1    
   108   53  177 1    
   109   53  178 1    
   110   54   55 am   BACKBONE|DICT|INTERRES
   111   54  179 1    
   112   55   56 2    
   113   55   57 1    
   114   57   58 1    
   115   57   59 1    
   116   57  180 1    
   117   58  181 1    
   118   58  182 1    
   119   58  183 1    
   120   59   60 am   BACKBONE|DICT|INTERRES
   121   59  184 1    
   122   60   61 2    
   123   60   62 1    
   124   62   63 1    
   125   62   64 1    
   126   62  185 1    
   127   63  186 1    
   128   63  187 1    
   129   63  188 1    
   130   64   65 am   BACKBONE|DICT|INTERRES
   131   64  189 1    
   132   65   66 2    
   133   67   68 2    
   134   67   69 am   BACKBONE|DICT|INTERRES
   135   69   70 1    
   136   69  190 1    
   137   70   71 1    
   138   70   72 1    
   139   70  191 1    
   140   71  192 1    
   141   71  193 1    
   142   71  194 1    
   143   72   73 2    
   144   72   74 am   BACKBONE|DICT|INTERRES
   145   74   75 1    
   146   74  195 1    
   147   75   76 1    
   148   75   77 1    
   149   75  196 1    
   150   76  197 1    
   151   76  198 1    
   152   76  199 1    
   153   77   78 2    
   154   77   79 am   BACKBONE|DICT|INTERRES
   155   79   80 1    
   156   79  200 1    
   157   80   81 1    
   158   80   82 1    
   159   80  201 1    
   160   81  202 1    
   161   81  203 1    
   162   81  204 1    
   163   82   83 2    
   164   82   84 am   BACKBONE|DICT|INTERRES
   165   84   85 1    
   166   84  205 1    
   167   85   86 1    
   168   85   87 1    
   169   85  206 1    
   170   86  207 1    
   171   86  208 1    
   172   86  209 1    
   173   87   88 2    
   174   87   89 am   BACKBONE|DICT|INTERRES
   175   89   90 1    
   176   89  210 1    
   177   90   91 1    
   178   90   92 1    
   179   90  211 1    
   180   91  212 1    
   181   91  213 1    
   182   91  214 1    
   183   92   93 2    
   184   92   94 am   BACKBONE|DICT|INTERRES
   185   94   95 1    
   186   94  215 1    
   187   95   96 1    
   188   95   97 1    
   189   95  216 1    
   190   96  217 1    
   191   96  218 1    
   192   96  219 1    
   193   97   98 2    
   194   97   99 am   BACKBONE|DICT|INTERRES
   195   99  100 1    
   196   99  220 1    
   197  100  101 1    
   198  100  102 1    
   199  100  221 1    
   200  101  222 1    
   201  101  223 1    
   202  101  224 1    
   203  102  103 2    
   204  102  104 am   BACKBONE|DICT|INTERRES
   205  104  105 1    
   206  104  225 1    
   207  105  106 1    
   208  105  107 1    
   209  105  226 1    
   210  106  227 1    
   211  106  228 1    
   212  106  229 1    
   213  107  108 2    
   214  107  109 am   BACKBONE|DICT|INTERRES
   215  109  110 1    
   216  109  230 1    
   217  110  111 1    
   218  110  112 1    
   219  110  231 1    
   220  111  232 1    
   221  111  233 1    
   222  111  234 1    
   223  112  113 2    
   224  112  114 am   BACKBONE|DICT|INTERRES
   225  114  115 1    
   226  114  235 1    
   227  115  116 1    
   228  115  117 1    
   229  115  236 1    
   230  116  237 1    
   231  116  238 1    
   232  116  239 1    
   233  117  118 2    
   234  117  119 am   BACKBONE|DICT|INTERRES
   235  119  120 1    
   236  119  240 1    
   237  120  121 1    
   238  120  124 1    
   239  120  241 1    
   240  121  122 am   BACKBONE|DICT|INTERRES
   241  121  123 2    
   242  122  242 1    
   243  122  243 1    
   244  124  125 1    
   245  124  244 1    
   246  124  245 1    
   247  125  126 1    
   248  126  246 1    
   249  126  247 1    
@<TRIPOS>SUBSTRUCTURE
     1 UNK         1 GROUP             0       ****    0 ROOT    
