@<TRIPOS>MOLECULE
3R540
247   249    1
SMALL
USER_CHARGES


@<TRIPOS>ATOM
      1 CA          8.6816   -9.7758  -49.5533 C.3       0 UNK        -0.1800 
      2 C           8.0190  -11.1443  -49.4783 C.2       0 UNK         0.5000 
      3 O           8.6781  -12.1558  -49.7182 O.2       0 UNK        -0.5000 
      4 N           6.7205  -11.1737  -49.1506 N.am      1 UNK        -0.5000 
      5 CA          5.9135  -12.3897  -48.9873 C.3       1 UNK         0.1400 
      6 C6          4.3891  -12.0955  -48.9231 C.3       23 UNK        -0.0398 
      7 S7          3.4158  -13.2431  -49.9534 S.3       23 UNK        -0.2404 
      8 C8          2.7681  -14.3913  -48.7035 C.3       23 UNK        -0.0205 
      9 C9          1.8907  -15.4543  -49.3459 C.ar      23 UNK        -0.0193 
     10 C10         0.5494  -15.1793  -49.6265 C.ar      23 UNK        -0.1150 
     11 C11        -0.2613  -16.1432  -50.2329 C.ar      23 UNK        -0.0193 
     12 C12         0.2780  -17.3908  -50.5563 C.ar      23 UNK        -0.1150 
     13 C13         1.6151  -17.6818  -50.2736 C.ar      23 UNK        -0.0193 
     14 C14         2.4171  -16.7093  -49.6676 C.ar      23 UNK        -0.1150 
     15 C15         2.2001  -19.0365  -50.6449 C.3       23 UNK        -0.0205 
     16 S16         2.0947  -20.2285  -49.2738 S.3       23 UNK        -0.2404 
     17 C17         0.3306  -20.6919  -49.3300 C.3       23 UNK        -0.0398 
     18 CA          0.0286  -21.9135  -48.4311 C.3       11 UNK         0.1400 
     19 N           0.1062  -21.5912  -47.0043 N.am      11 UNK        -0.5000 
     20 C           0.0674  -22.4893  -46.0111 C.2       10 UNK         0.5000 
     21 O           0.0010  -23.7056  -46.1915 O.2       10 UNK        -0.5000 
     22 CA          0.0547  -21.9354  -44.5742 C.3       10 UNK         0.1400 
     23 CB          1.4596  -21.4909  -44.1409 C.3       10 UNK        -0.1800 
     24 N          -0.8914  -20.8310  -44.4032 N.am      10 UNK        -0.5000 
     25 C          -2.2205  -20.9491  -44.5374 C.2       9 UNK         0.5000 
     26 O          -2.7895  -22.0111  -44.7864 O.2       9 UNK        -0.5000 
     27 CA         -3.0559  -19.6626  -44.4116 C.3       9 UNK         0.1400 
     28 CB         -3.2829  -19.2971  -42.9373 C.3       9 UNK        -0.1800 
     29 N          -2.4532  -18.5303  -45.1118 N.am      9 UNK        -0.5000 
     30 C          -2.2613  -18.4713  -46.4372 C.2       8 UNK         0.5000 
     31 O          -2.6219  -19.3459  -47.2226 O.2       8 UNK        -0.5000 
     32 CA         -1.4801  -17.2579  -46.9666 C.3       8 UNK         0.1400 
     33 CB         -2.3802  -16.0166  -47.0586 C.3       8 UNK        -0.1800 
     34 N          -0.3001  -16.9596  -46.1543 N.am      8 UNK        -0.5000 
     35 C           0.7375  -17.7954  -46.0020 C.2       7 UNK         0.5000 
     36 O           0.8121  -18.8969  -46.5387 O.2       7 UNK        -0.5000 
     37 CA          1.8515  -17.3565  -45.0397 C.3       7 UNK         0.1400 
     38 CB          2.8669  -16.4614  -45.7618 C.3       7 UNK        -0.1800 
     39 N           1.3231  -16.6687  -43.8620 N.am      7 UNK        -0.5000 
     40 C           0.5781  -17.2647  -42.9201 C.2       6 UNK         0.5000 
     41 O           0.2913  -18.4627  -42.9329 O.2       6 UNK        -0.5000 
     42 CA          0.0209  -16.3623  -41.8058 C.3       6 UNK         0.1400 
     43 CB          1.1216  -15.9769  -40.8069 C.3       6 UNK        -0.1800 
     44 N          -0.6129  -15.1484  -42.3212 N.am      6 UNK        -0.5000 
     45 C          -1.6986  -15.1113  -43.1029 C.2       5 UNK         0.5000 
     46 O          -2.2830  -16.1204  -43.4953 O.2       5 UNK        -0.5000 
     47 CA         -2.2090  -13.7274  -43.5547 C.3       5 UNK         0.1400 
     48 CB         -3.1016  -13.0804  -42.4787 C.3       5 UNK        -0.1800 
     49 N          -1.1512  -12.8161  -44.0146 N.am      5 UNK        -0.5000 
     50 C          -0.1748  -12.2369  -43.3033 C.2       4 UNK         0.5000 
     51 O          -0.0561  -12.3309  -42.0790 O.2       4 UNK        -0.5000 
     52 CA          0.8731  -11.4499  -44.1142 C.3       4 UNK         0.1400 
     53 CB          0.6105   -9.9399  -44.0150 C.3       4 UNK        -0.1800 
     54 N           2.2486  -11.7257  -43.6915 N.am      4 UNK        -0.5000 
     55 C           2.8074  -12.9380  -43.5794 C.2       3 UNK         0.5000 
     56 O           2.2241  -13.9905  -43.8439 O.2       3 UNK        -0.5000 
     57 CA          4.2847  -12.9666  -43.1515 C.3       3 UNK         0.1400 
     58 CB          4.6831  -14.3019  -42.4980 C.3       3 UNK        -0.1800 
     59 N           5.1431  -12.7323  -44.3110 N.am      3 UNK        -0.5000 
     60 C           5.4319  -11.5258  -44.8186 C.2       2 UNK         0.5000 
     61 O           5.0049  -10.4743  -44.3395 O.2       2 UNK        -0.5000 
     62 CA          6.3414  -11.4670  -46.0616 C.3       2 UNK         0.1400 
     63 CB          7.6705  -10.7750  -45.7131 C.3       2 UNK        -0.1800 
     64 N           6.6311  -12.8032  -46.5988 N.am      2 UNK        -0.5000 
     65 C           6.3897  -13.3000  -47.8244 C.2       1 UNK         0.5000 
     66 O           6.5781  -14.4927  -48.0579 O.2       1 UNK        -0.5000 
     67 C          -1.3208  -22.5630  -48.7963 C.2       11 UNK         0.5000 
     68 O          -1.3240  -23.5706  -49.5043 O.2       11 UNK        -0.5000 
     69 N          -2.4305  -22.0259  -48.2667 N.am      12 UNK        -0.5000 
     70 CA         -3.7688  -22.5963  -48.4193 C.3       12 UNK         0.1400 
     71 CB         -4.8211  -21.6636  -47.8040 C.3       12 UNK        -0.1800 
     72 C          -3.8796  -24.0037  -47.8120 C.2       12 UNK         0.5000 
     73 O          -4.4082  -24.8973  -48.4691 O.2       12 UNK        -0.5000 
     74 N          -3.3504  -24.1917  -46.5944 N.am      13 UNK        -0.5000 
     75 CA         -3.3082  -25.4792  -45.8985 C.3       13 UNK         0.1400 
     76 CB         -2.7829  -25.2845  -44.4685 C.3       13 UNK        -0.1800 
     77 C          -2.4811  -26.5386  -46.6483 C.2       13 UNK         0.5000 
     78 O          -2.9302  -27.6788  -46.7695 O.2       13 UNK        -0.5000 
     79 N          -1.3207  -26.1363  -47.1868 N.am      14 UNK        -0.5000 
     80 CA         -0.4571  -26.9731  -48.0257 C.3       14 UNK         0.1400 
     81 CB          0.8586  -26.2307  -48.3033 C.3       14 UNK        -0.1800 
     82 C          -1.1290  -27.4063  -49.3448 C.2       14 UNK         0.5000 
     83 O          -0.9009  -28.5247  -49.8065 O.2       14 UNK        -0.5000 
     84 N          -1.9739  -26.5297  -49.9009 N.am      15 UNK        -0.5000 
     85 CA         -2.7995  -26.7726  -51.0844 C.3       15 UNK         0.1400 
     86 CB         -2.9997  -25.4342  -51.8106 C.3       15 UNK        -0.1800 
     87 C          -4.1571  -27.4352  -50.7602 C.2       15 UNK         0.5000 
     88 O          -4.9892  -27.5600  -51.6599 O.2       15 UNK        -0.5000 
     89 N          -4.3828  -27.8225  -49.4941 N.am      16 UNK        -0.5000 
     90 CA         -5.5955  -28.4549  -48.9567 C.3       16 UNK         0.1400 
     91 CB         -5.7419  -29.8880  -49.5086 C.3       16 UNK        -0.1800 
     92 C          -6.8744  -27.6073  -49.1469 C.2       16 UNK         0.5000 
     93 O          -7.9624  -28.1588  -49.3207 O.2       16 UNK        -0.5000 
     94 N          -6.7068  -26.2771  -49.1309 N.am      17 UNK        -0.5000 
     95 CA         -7.7015  -25.2228  -49.3501 C.3       17 UNK         0.1400 
     96 CB         -8.7829  -25.2502  -48.2508 C.3       17 UNK        -0.1800 
     97 C          -8.3049  -25.1922  -50.7720 C.2       17 UNK         0.5000 
     98 O          -9.2804  -24.4730  -50.9945 O.2       17 UNK        -0.5000 
     99 N          -7.7219  -25.9421  -51.7184 N.am      18 UNK        -0.5000 
    100 CA        -8.1728  -26.0073  -53.1101 C.3       18 UNK         0.1400 
    101 CB        -7.7259  -27.3465  -53.7164 C.3       18 UNK        -0.1800 
    102 C         -7.6541  -24.8333  -53.9619 C.2       18 UNK         0.5000 
    103 O         -8.2308  -24.5492  -55.0127 O.2       18 UNK        -0.5000 
    104 N         -6.5782  -24.1820  -53.5073 N.am      19 UNK        -0.5000 
    105 CA        -5.8823  -23.0842  -54.1688 C.3       19 UNK         0.1400 
    106 CB        -5.0837  -23.6240  -55.3758 C.3       19 UNK        -0.1800 
    107 C         -4.9638  -22.3959  -53.1441 C.2       19 UNK         0.5000 
    108 O         -4.9916  -22.7483  -51.9629 O.2       19 UNK        -0.5000 
    109 N         -4.1567  -21.4387  -53.6244 N.am      20 UNK        -0.5000 
    110 CA        -3.0267  -20.7932  -52.9387 C.3       20 UNK         0.1400 
    111 CB        -1.9369  -21.8326  -52.6122 C.3       20 UNK        -0.1800 
    112 C         -3.3912  -19.9264  -51.7136 C.2       20 UNK         0.5000 
    113 O         -2.4999  -19.5468  -50.9549 O.2       20 UNK        -0.5000 
    114 N         -4.6781  -19.5909  -51.5618 N.am      21 UNK        -0.5000 
    115 CA        -5.1918  -18.7106  -50.5098 C.3       21 UNK         0.1400 
    116 CB        -6.6353  -19.1291  -50.1872 C.3       21 UNK        -0.1800 
    117 C         -5.1301  -17.2179  -50.8917 C.2       21 UNK         0.5000 
    118 O         -5.3439  -16.3701  -50.0252 O.2       21 UNK        -0.5000 
    119 N         -4.8504  -16.9246  -52.1705 N.am      22 UNK        -0.5000 
    120 CA        -4.7806  -15.5794  -52.7750 C.3       22 UNK         0.1400 
    121 C         -6.1554  -14.8488  -52.8947 C.2       22 UNK         0.5000 
    122 N         -7.2851  -15.5316  -52.7533 N.am      22 UNK        -0.7600 
    123 O         -6.2068  -13.6493  -53.1542 O.2       22 UNK        -0.5000 
    124 C124       -3.6829  -14.6698  -52.1511 C.3       23 UNK        -0.0398 
    125 S125       -2.0009  -15.3775  -52.2461 S.3       23 UNK        -0.2404 
    126 C126       -1.7252  -15.8467  -50.5118 C.3       23 UNK        -0.0205 
    127 H127        7.9886   -8.9742  -49.2960 H         1 UNK         0.0600 
    128 H128        9.5246   -9.7292  -48.8638 H         1 UNK         0.0600 
    129 H129        9.0537   -9.5936  -50.5615 H         1 UNK         0.0600 
    130 H130        6.2428  -10.2999  -48.9843 H         1 UNK         0.3000 
    131 H131        6.0990  -12.9580  -49.9020 H         1 UNK         0.0600 
    132 H132        4.0061  -12.0901  -47.9011 H         1 UNK         0.0800 
    133 H133        4.1806  -11.0975  -49.3111 H         1 UNK         0.0800 
    134 H134        3.6031  -14.8559  -48.1771 H         1 UNK         0.0800 
    135 H135        2.1939  -13.8384  -47.9583 H         1 UNK         0.0800 
    136 H136        0.1393  -14.2106  -49.3780 H         1 UNK         0.1150 
    137 H137       -0.3460  -18.1363  -51.0275 H         1 UNK         0.1150 
    138 H138        3.4538  -16.9278  -49.4530 H         1 UNK         0.1150 
    139 H139        1.7007  -19.4403  -51.5270 H         1 UNK         0.0800 
    140 H140        3.2485  -18.9163  -50.9216 H         1 UNK         0.0800 
    141 H141        0.0819  -20.9084  -50.3685 H         1 UNK         0.0800 
    142 H142       -0.2814  -19.8368  -49.0372 H         1 UNK         0.0800 
    143 H143        0.7927  -22.6687  -48.6285 H         1 UNK         0.0600 
    144 H144        0.2196  -20.6048  -46.7758 H         1 UNK         0.3000 
    145 H145       -0.2599  -22.7444  -43.9117 H         1 UNK         0.0600 
    146 H146        1.4635  -21.1496  -43.1055 H         1 UNK         0.0600 
    147 H147        2.1688  -22.3160  -44.2153 H         1 UNK         0.0600 
    148 H148        1.8364  -20.6786  -44.7619 H         1 UNK         0.0600 
    149 H149       -0.5015  -19.9260  -44.1620 H         1 UNK         0.3000 
    150 H150       -4.0298  -19.8540  -44.8667 H         1 UNK         0.0600 
    151 H151       -3.7456  -20.1234  -42.3964 H         1 UNK         0.0600 
    152 H152       -3.9437  -18.4352  -42.8433 H         1 UNK         0.0600 
    153 H153       -2.3472  -19.0554  -42.4324 H         1 UNK         0.0600 
    154 H154       -2.1646  -17.7433  -44.5373 H         1 UNK         0.3000 
    155 H155       -1.1335  -17.5078  -47.9700 H         1 UNK         0.0600 
    156 H156       -1.8268  -15.1517  -47.4237 H         1 UNK         0.0600 
    157 H157       -2.8118  -15.7548  -46.0934 H         1 UNK         0.0600 
    158 H158       -3.2085  -16.1909  -47.7468 H         1 UNK         0.0600 
    159 H159       -0.2973  -16.0913  -45.6423 H         1 UNK         0.3000 
    160 H160        2.3738  -18.2538  -44.7023 H         1 UNK         0.0600 
    161 H161        2.4148  -15.5201  -46.0730 H         1 UNK         0.0600 
    162 H162        3.2569  -16.9537  -46.6536 H         1 UNK         0.0600 
    163 H163        3.7165  -16.2302  -45.1209 H         1 UNK         0.0600 
    164 H164        1.5341  -15.6751  -43.7821 H         1 UNK         0.3000 
    165 H165       -0.7403  -16.9330  -41.2697 H         1 UNK         0.0600 
    166 H166        1.8799  -15.3467  -41.2711 H         1 UNK         0.0600 
    167 H167        0.7088  -15.4317  -39.9580 H         1 UNK         0.0600 
    168 H168        1.6224  -16.8624  -40.4135 H         1 UNK         0.0600 
    169 H169       -0.1935  -14.2599  -42.0636 H         1 UNK         0.3000 
    170 H170       -2.8395  -13.9013  -44.4279 H         1 UNK         0.0600 
    171 H171       -3.9538  -13.7208  -42.2483 H         1 UNK         0.0600 
    172 H172       -2.5648  -12.9108  -41.5452 H         1 UNK         0.0600 
    173 H173       -3.4970  -12.1229  -42.8178 H         1 UNK         0.0600 
    174 H174       -1.1360  -12.6747  -45.0150 H         1 UNK         0.3000 
    175 H175        0.7972  -11.7443  -45.1629 H         1 UNK         0.0600 
    176 H176        1.3038   -9.3760  -44.6394 H         1 UNK         0.0600 
    177 H177       -0.3989   -9.6952  -44.3483 H         1 UNK         0.0600 
    178 H178        0.7137   -9.5818  -42.9898 H         1 UNK         0.0600 
    179 H179        2.8273  -10.9199  -43.4964 H         1 UNK         0.3000 
    180 H180        4.4433  -12.1781  -42.4125 H         1 UNK         0.0600 
    181 H181        4.5537  -15.1461  -43.1751 H         1 UNK         0.0600 
    182 H182        4.0796  -14.4951  -41.6112 H         1 UNK         0.0600 
    183 H183        5.7257  -14.2871  -42.1802 H         1 UNK         0.0600 
    184 H184        5.4710  -13.5548  -44.7935 H         1 UNK         0.3000 
    185 H185        5.8060  -10.8515  -46.7819 H         1 UNK         0.0600 
    186 H186        8.3227  -10.6995  -46.5819 H         1 UNK         0.0600 
    187 H187        7.5022   -9.7612  -45.3475 H         1 UNK         0.0600 
    188 H188        8.2137  -11.3174  -44.9383 H         1 UNK         0.0600 
    189 H189        7.0337  -13.4389  -45.9263 H         1 UNK         0.3000 
    190 H190       -2.3639  -21.1616  -47.7351 H         1 UNK         0.3000 
    191 H191       -3.9707  -22.6761  -49.4889 H         1 UNK         0.0600 
    192 H192       -4.7871  -20.6779  -48.2624 H         1 UNK         0.0600 
    193 H193       -5.8270  -22.0577  -47.9537 H         1 UNK         0.0600 
    194 H194       -4.6723  -21.5359  -46.7318 H         1 UNK         0.0600 
    195 H195       -2.9692  -23.3930  -46.0936 H         1 UNK         0.3000 
    196 H196       -4.3333  -25.8497  -45.8329 H         1 UNK         0.0600 
    197 H197       -2.7523  -26.2327  -43.9303 H         1 UNK         0.0600 
    198 H198       -3.4254  -24.6102  -43.9022 H         1 UNK         0.0600 
    199 H199       -1.7750  -24.8694  -44.4615 H         1 UNK         0.0600 
    200 H200       -1.0001  -25.1891  -47.0046 H         1 UNK         0.3000 
    201 H201       -0.2241  -27.8786  -47.4619 H         1 UNK         0.0600 
    202 H202        1.3756  -25.9847  -47.3756 H         1 UNK         0.0600 
    203 H203        0.6893  -25.3014  -48.8475 H         1 UNK         0.0600 
    204 H204        1.5349  -26.8433  -48.9007 H         1 UNK         0.0600 
    205 H205       -2.0683  -25.6147  -49.4737 H         1 UNK         0.3000 
    206 H206       -2.2701  -27.4461  -51.7610 H         1 UNK         0.0600 
    207 H207       -3.6018  -25.5492  -52.7126 H         1 UNK         0.0600 
    208 H208       -3.5008  -24.7127  -51.1658 H         1 UNK         0.0600 
    209 H209       -2.0447  -25.0033  -52.1112 H         1 UNK         0.0600 
    210 H210       -3.6586  -27.6397  -48.8100 H         1 UNK         0.3000 
    211 H211       -5.4441  -28.5305  -47.8792 H         1 UNK         0.0600 
    212 H212       -5.9559  -29.8895  -50.5779 H         1 UNK         0.0600 
    213 H213       -6.5543  -30.4192  -49.0115 H         1 UNK         0.0600 
    214 H214       -4.8323  -30.4666  -49.3476 H         1 UNK         0.0600 
    215 H215       -5.7628  -25.9259  -48.9667 H         1 UNK         0.3000 
    216 H216       -7.1559  -24.2838  -49.2454 H         1 UNK         0.0600 
    217 H217       -8.3344  -25.2494  -47.2573 H         1 UNK         0.0600 
    218 H218       -9.4213  -26.1302  -48.3314 H         1 UNK         0.0600 
    219 H219       -9.4283  -24.3734  -48.3134 H         1 UNK         0.0600 
    220 H220       -6.9156  -26.5065  -51.4757 H         1 UNK         0.3000 
    221 H221       -9.2642  -25.9767  -53.1318 H         1 UNK         0.0600 
    222 H222       -6.6395  -27.4188  -53.7768 H         1 UNK         0.0600 
    223 H223       -8.0863  -28.1886  -53.1252 H         1 UNK         0.0600 
    224 H224       -8.1176  -27.4665  -54.7273 H         1 UNK         0.0600 
    225 H225       -6.1961  -24.4246  -52.6017 H         1 UNK         0.3000 
    226 H226       -6.6166  -22.3515  -54.5088 H         1 UNK         0.0600 
    227 H227       -5.7293  -24.1393  -56.0868 H         1 UNK         0.0600 
    228 H228       -4.5932  -22.8209  -55.9259 H         1 UNK         0.0600 
    229 H229       -4.3116  -24.3269  -55.0600 H         1 UNK         0.0600 
    230 H230       -4.2469  -21.1995  -54.6021 H         1 UNK         0.3000 
    231 H231       -2.6014  -20.1008  -53.6665 H         1 UNK         0.0600 
    232 H232       -1.7160  -22.4624  -53.4739 H         1 UNK         0.0600 
    233 H233       -2.2389  -22.4819  -51.7910 H         1 UNK         0.0600 
    234 H234       -1.0060  -21.3455  -52.3255 H         1 UNK         0.0600 
    235 H235       -5.3498  -19.9681  -52.2136 H         1 UNK         0.3000 
    236 H236       -4.5880  -18.8320  -49.6082 H         1 UNK         0.0600 
    237 H237       -7.0404  -18.5363  -49.3661 H         1 UNK         0.0600 
    238 H238       -7.2951  -18.9971  -51.0455 H         1 UNK         0.0600 
    239 H239       -6.6847  -20.1757  -49.8860 H         1 UNK         0.0600 
    240 H240       -4.6888  -17.6935  -52.8031 H         1 UNK         0.3000 
    241 H241       -4.4873  -15.7539  -53.8107 H         1 UNK         0.0600 
    242 H242       -7.2683  -16.5184  -52.5546 H         1 UNK         0.3800 
    243 H243       -8.1677  -15.0529  -52.8441 H         1 UNK         0.3800 
    244 H244       -3.6412  -13.7165  -52.6801 H         1 UNK         0.0800 
    245 H245       -3.9317  -14.4186  -51.1196 H         1 UNK         0.0800 
    246 H246       -2.0703  -15.0435  -49.8601 H         1 UNK         0.0800 
    247 H247       -2.3266  -16.7239  -50.2711 H         1 UNK         0.0800 
@<TRIPOS>BOND
     1    1    2 1    
     2    1  127 1    
     3    1  128 1    
     4    1  129 1    
     5    2    3 2    
     6    2    4 am   BACKBONE|DICT|INTERRES
     7    4    5 1    
     8    4  130 1    
     9    5    6 1    
    10    5   65 1    
    11    5  131 1    
    12    6    7 1    
    13    6  132 1    
    14    6  133 1    
    15    7    8 1    
    16    8    9 1    
    17    8  134 1    
    18    8  135 1    
    19    9   10 ar   
    20    9   14 ar   
    21   10   11 ar   
    22   10  136 1    
    23   11   12 ar   
    24   11  126 1    
    25   12   13 ar   
    26   12  137 1    
    27   13   14 ar   
    28   13   15 1    
    29   14  138 1    
    30   15   16 1    
    31   15  139 1    
    32   15  140 1    
    33   16   17 1    
    34   17   18 1    
    35   17  141 1    
    36   17  142 1    
    37   18   19 1    
    38   18   67 1    
    39   18  143 1    
    40   19   20 am   BACKBONE|DICT|INTERRES
    41   19  144 1    
    42   20   21 2    
    43   20   22 1    
    44   22   23 1    
    45   22   24 1    
    46   22  145 1    
    47   23  146 1    
    48   23  147 1    
    49   23  148 1    
    50   24   25 am   BACKBONE|DICT|INTERRES
    51   24  149 1    
    52   25   26 2    
    53   25   27 1    
    54   27   28 1    
    55   27   29 1    
    56   27  150 1    
    57   28  151 1    
    58   28  152 1    
    59   28  153 1    
    60   29   30 am   BACKBONE|DICT|INTERRES
    61   29  154 1    
    62   30   31 2    
    63   30   32 1    
    64   32   33 1    
    65   32   34 1    
    66   32  155 1    
    67   33  156 1    
    68   33  157 1    
    69   33  158 1    
    70   34   35 am   BACKBONE|DICT|INTERRES
    71   34  159 1    
    72   35   36 2    
    73   35   37 1    
    74   37   38 1    
    75   37   39 1    
    76   37  160 1    
    77   38  161 1    
    78   38  162 1    
    79   38  163 1    
    80   39   40 am   BACKBONE|DICT|INTERRES
    81   39  164 1    
    82   40   41 2    
    83   40   42 1    
    84   42   43 1    
    85   42   44 1    
    86   42  165 1    
    87   43  166 1    
    88   43  167 1    
    89   43  168 1    
    90   44   45 am   BACKBONE|DICT|INTERRES
    91   44  169 1    
    92   45   46 2    
    93   45   47 1    
    94   47   48 1    
    95   47   49 1    
    96   47  170 1    
    97   48  171 1    
    98   48  172 1    
    99   48  173 1    
   100   49   50 am   BACKBONE|DICT|INTERRES
   101   49  174 1    
   102   50   51 2    
   103   50   52 1    
   104   52   53 1    
   105   52   54 1    
   106   52  175 1    
   107   53  176 1    
   108   53  177 1    
   109   53  178 1    
   110   54   55 am   BACKBONE|DICT|INTERRES
   111   54  179 1    
   112   55   56 2    
   113   55   57 1    
   114   57   58 1    
   115   57   59 1    
   116   57  180 1    
   117   58  181 1    
   118   58  182 1    
   119   58  183 1    
   120   59   60 am   BACKBONE|DICT|INTERRES
   121   59  184 1    
   122   60   61 2    
   123   60   62 1    
   124   62   63 1    
   125   62   64 1    
   126   62  185 1    
   127   63  186 1    
   128   63  187 1    
   129   63  188 1    
   130   64   65 am   BACKBONE|DICT|INTERRES
   131   64  189 1    
   132   65   66 2    
   133   67   68 2    
   134   67   69 am   BACKBONE|DICT|INTERRES
   135   69   70 1    
   136   69  190 1    
   137   70   71 1    
   138   70   72 1    
   139   70  191 1    
   140   71  192 1    
   141   71  193 1    
   142   71  194 1    
   143   72   73 2    
   144   72   74 am   BACKBONE|DICT|INTERRES
   145   74   75 1    
   146   74  195 1    
   147   75   76 1    
   148   75   77 1    
   149   75  196 1    
   150   76  197 1    
   151   76  198 1    
   152   76  199 1    
   153   77   78 2    
   154   77   79 am   BACKBONE|DICT|INTERRES
   155   79   80 1    
   156   79  200 1    
   157   80   81 1    
   158   80   82 1    
   159   80  201 1    
   160   81  202 1    
   161   81  203 1    
   162   81  204 1    
   163   82   83 2    
   164   82   84 am   BACKBONE|DICT|INTERRES
   165   84   85 1    
   166   84  205 1    
   167   85   86 1    
   168   85   87 1    
   169   85  206 1    
   170   86  207 1    
   171   86  208 1    
   172   86  209 1    
   173   87   88 2    
   174   87   89 am   BACKBONE|DICT|INTERRES
   175   89   90 1    
   176   89  210 1    
   177   90   91 1    
   178   90   92 1    
   179   90  211 1    
   180   91  212 1    
   181   91  213 1    
   182   91  214 1    
   183   92   93 2    
   184   92   94 am   BACKBONE|DICT|INTERRES
   185   94   95 1    
   186   94  215 1    
   187   95   96 1    
   188   95   97 1    
   189   95  216 1    
   190   96  217 1    
   191   96  218 1    
   192   96  219 1    
   193   97   98 2    
   194   97   99 am   BACKBONE|DICT|INTERRES
   195   99  100 1    
   196   99  220 1    
   197  100  101 1    
   198  100  102 1    
   199  100  221 1    
   200  101  222 1    
   201  101  223 1    
   202  101  224 1    
   203  102  103 2    
   204  102  104 am   BACKBONE|DICT|INTERRES
   205  104  105 1    
   206  104  225 1    
   207  105  106 1    
   208  105  107 1    
   209  105  226 1    
   210  106  227 1    
   211  106  228 1    
   212  106  229 1    
   213  107  108 2    
   214  107  109 am   BACKBONE|DICT|INTERRES
   215  109  110 1    
   216  109  230 1    
   217  110  111 1    
   218  110  112 1    
   219  110  231 1    
   220  111  232 1    
   221  111  233 1    
   222  111  234 1    
   223  112  113 2    
   224  112  114 am   BACKBONE|DICT|INTERRES
   225  114  115 1    
   226  114  235 1    
   227  115  116 1    
   228  115  117 1    
   229  115  236 1    
   230  116  237 1    
   231  116  238 1    
   232  116  239 1    
   233  117  118 2    
   234  117  119 am   BACKBONE|DICT|INTERRES
   235  119  120 1    
   236  119  240 1    
   237  120  121 1    
   238  120  124 1    
   239  120  241 1    
   240  121  122 am   BACKBONE|DICT|INTERRES
   241  121  123 2    
   242  122  242 1    
   243  122  243 1    
   244  124  125 1    
   245  124  244 1    
   246  124  245 1    
   247  125  126 1    
   248  126  246 1    
   249  126  247 1    
@<TRIPOS>SUBSTRUCTURE
     1 UNK         1 GROUP             0       ****    0 ROOT    
