@<TRIPOS>MOLECULE
3R540
247   249    1
SMALL
USER_CHARGES


@<TRIPOS>ATOM
      1 CA          6.7791  -11.3890  -50.9792 C.3       0 UNK        -0.1800 
      2 C           6.4832  -11.6544  -49.5100 C.2       0 UNK         0.5000 
      3 O           7.2537  -11.2382  -48.6447 O.2       0 UNK        -0.5000 
      4 N           5.3719  -12.3453  -49.2263 N.am      1 UNK        -0.5000 
      5 CA          4.9045  -12.6730  -47.8728 C.3       1 UNK         0.1400 
      6 C6          3.8772  -13.8326  -47.8923 C.3       23 UNK        -0.0398 
      7 S7          2.3633  -13.4564  -48.8453 S.3       23 UNK        -0.2404 
      8 C8          1.2261  -14.7291  -48.2251 C.3       23 UNK        -0.0205 
      9 C9          1.1857  -15.9382  -49.1458 C.ar      23 UNK        -0.0193 
     10 C10         0.1688  -16.0517  -50.0985 C.ar      23 UNK        -0.1150 
     11 C11         0.1040  -17.1641  -50.9422 C.ar      23 UNK        -0.0193 
     12 C12         1.0790  -18.1588  -50.8387 C.ar      23 UNK        -0.1150 
     13 C13         2.0948  -18.0639  -49.8830 C.ar      23 UNK        -0.0193 
     14 C14         2.1440  -16.9510  -49.0373 C.ar      23 UNK        -0.1150 
     15 C15         3.1319  -19.1716  -49.7667 C.3       23 UNK        -0.0205 
     16 S16         2.7838  -20.3038  -48.3831 S.3       23 UNK        -0.2404 
     17 C17         1.0888  -20.8570  -48.7719 C.3       23 UNK        -0.0398 
     18 CA          0.6759  -22.1185  -47.9791 C.3       11 UNK         0.1400 
     19 N           0.5904  -21.8902  -46.5338 N.am      11 UNK        -0.5000 
     20 C           0.4097  -22.8526  -45.6185 C.2       10 UNK         0.5000 
     21 O           0.3466  -24.0513  -45.8924 O.2       10 UNK        -0.5000 
     22 CA          0.2127  -22.4035  -44.1588 C.3       10 UNK         0.1400 
     23 CB          1.5579  -22.0864  -43.4890 C.3       10 UNK        -0.1800 
     24 N          -0.6896  -21.2567  -44.0413 N.am      10 UNK        -0.5000 
     25 C          -1.9906  -21.2877  -44.3658 C.2       9 UNK         0.5000 
     26 O          -2.5730  -22.3027  -44.7480 O.2       9 UNK        -0.5000 
     27 CA         -2.7652  -19.9587  -44.2916 C.3       9 UNK         0.1400 
     28 CB         -3.2049  -19.6629  -42.8502 C.3       9 UNK        -0.1800 
     29 N          -2.0067  -18.8227  -44.8131 N.am      9 UNK        -0.5000 
     30 C          -1.5651  -18.7145  -46.0742 C.2       8 UNK         0.5000 
     31 O          -1.7607  -19.5605  -46.9451 O.2       8 UNK        -0.5000 
     32 CA         -0.6879  -17.4896  -46.3919 C.3       8 UNK         0.1400 
     33 CB         -1.5405  -16.2144  -46.5024 C.3       8 UNK        -0.1800 
     34 N           0.3736  -17.2949  -45.4007 N.am      8 UNK        -0.5000 
     35 C           1.3042  -18.2119  -45.0945 C.2       7 UNK         0.5000 
     36 O           1.3904  -19.3086  -45.6387 O.2       7 UNK        -0.5000 
     37 CA          2.2526  -17.8830  -43.9329 C.3       7 UNK         0.1400 
     38 CB          3.4120  -16.9908  -44.4021 C.3       7 UNK        -0.1800 
     39 N           1.5322  -17.2569  -42.8244 N.am      7 UNK        -0.5000 
     40 C           0.6535  -17.9067  -42.0449 C.2       6 UNK         0.5000 
     41 O           0.4214  -19.1125  -42.1351 O.2       6 UNK        -0.5000 
     42 CA         -0.1315  -17.0584  -41.0269 C.3       6 UNK         0.1400 
     43 CB          0.6823  -16.8663  -39.7386 C.3       6 UNK        -0.1800 
     44 N          -0.5084  -15.7496  -41.5629 N.am      6 UNK        -0.5000 
     45 C          -1.3696  -15.5624  -42.5737 C.2       5 UNK         0.5000 
     46 O          -1.9994  -16.4749  -43.1067 O.2       5 UNK        -0.5000 
     47 CA         -1.5129  -14.1241  -43.1109 C.3       5 UNK         0.1400 
     48 CB         -2.6696  -13.3983  -42.4093 C.3       5 UNK        -0.1800 
     49 N          -0.2887  -13.3308  -42.9690 N.am      5 UNK        -0.5000 
     50 C           0.8826  -13.6068  -43.5546 C.2       4 UNK         0.5000 
     51 O           1.0372  -14.5423  -44.3423 O.2       4 UNK        -0.5000 
     52 CA          2.0728  -12.7094  -43.1540 C.3       4 UNK         0.1400 
     53 CB          3.4276  -13.3594  -43.4791 C.3       4 UNK        -0.1800 
     54 N           2.0123  -11.3783  -43.7622 N.am      4 UNK        -0.5000 
     55 C           1.1560  -10.4092  -43.4038 C.2       3 UNK         0.5000 
     56 O           0.3083  -10.5572  -42.5210 O.2       3 UNK        -0.5000 
     57 CA          1.2630   -9.0366  -44.1013 C.3       3 UNK         0.1400 
     58 CB          1.5481   -7.9276  -43.0743 C.3       3 UNK        -0.1800 
     59 N           2.2891   -8.9694  -45.1421 N.am      3 UNK        -0.5000 
     60 C           2.1423   -9.3864  -46.4051 C.2       2 UNK         0.5000 
     61 O           1.1198   -9.9262  -46.8297 O.2       2 UNK        -0.5000 
     62 CA          3.3329   -9.1631  -47.3637 C.3       2 UNK         0.1400 
     63 CB          4.4561   -8.2697  -46.7888 C.3       2 UNK        -0.1800 
     64 N           3.8912  -10.4271  -47.8465 N.am      2 UNK        -0.5000 
     65 C           4.3690  -11.4400  -47.1062 C.2       1 UNK         0.5000 
     66 O           4.4056  -11.4288  -45.8751 O.2       1 UNK        -0.5000 
     67 C          -0.6340  -22.7061  -48.5390 C.2       11 UNK         0.5000 
     68 O          -0.5735  -23.6676  -49.3025 O.2       11 UNK        -0.5000 
     69 N          -1.7886  -22.1629  -48.1245 N.am      12 UNK        -0.5000 
     70 CA         -3.1146  -22.6640  -48.4947 C.3       12 UNK         0.1400 
     71 CB         -4.2011  -21.7162  -47.9704 C.3       12 UNK        -0.1800 
     72 C          -3.3726  -24.0974  -48.0002 C.2       12 UNK         0.5000 
     73 O          -3.9238  -24.9029  -48.7506 O.2       12 UNK        -0.5000 
     74 N          -2.9462  -24.3997  -46.7659 N.am      13 UNK        -0.5000 
     75 CA         -3.0099  -25.7352  -46.1734 C.3       13 UNK         0.1400 
     76 CB         -2.6508  -25.6634  -44.6817 C.3       13 UNK        -0.1800 
     77 C          -2.1137  -26.7447  -46.9122 C.2       13 UNK         0.5000 
     78 O          -2.5769  -27.8395  -47.2323 O.2       13 UNK        -0.5000 
     79 N          -0.8700  -26.3447  -47.2155 N.am      14 UNK        -0.5000 
     80 CA          0.0963  -27.1326  -47.9867 C.3       14 UNK         0.1400 
     81 CB          1.4624  -26.4308  -47.9651 C.3       14 UNK        -0.1800 
     82 C          -0.3591  -27.3941  -49.4355 C.2       14 UNK         0.5000 
     83 O          -0.1498  -28.4918  -49.9527 O.2       14 UNK        -0.5000 
     84 N          -1.0065  -26.3941  -50.0471 N.am      15 UNK        -0.5000 
     85 CA         -1.6163  -26.4637  -51.3749 C.3       15 UNK         0.1400 
     86 CB         -1.8221  -25.0310  -51.8954 C.3       15 UNK        -0.1800 
     87 C          -2.9481  -27.2421  -51.4048 C.2       15 UNK         0.5000 
     88 O          -3.4727  -27.4724  -52.4932 O.2       15 UNK        -0.5000 
     89 N          -3.4885  -27.6080  -50.2322 N.am      16 UNK        -0.5000 
     90 CA         -4.7722  -28.2853  -50.0189 C.3       16 UNK         0.1400 
     91 CB         -4.7273  -29.7288  -50.5616 C.3       16 UNK        -0.1800 
     92 C          -5.9651  -27.4655  -50.5565 C.2       16 UNK         0.5000 
     93 O          -6.8403  -28.0058  -51.2350 O.2       16 UNK        -0.5000 
     94 N          -5.9512  -26.1606  -50.2490 N.am      17 UNK        -0.5000 
     95 CA         -6.9181  -25.1285  -50.6385 C.3       17 UNK         0.1400 
     96 CB         -8.3344  -25.4511  -50.1183 C.3       17 UNK        -0.1800 
     97 C          -6.8989  -24.7667  -52.1392 C.2       17 UNK         0.5000 
     98 O          -7.8169  -24.0922  -52.6093 O.2       17 UNK        -0.5000 
     99 N          -5.8413  -25.1642  -52.8610 N.am      18 UNK        -0.5000 
    100 CA        -5.5284  -24.6667  -54.2018 C.3       18 UNK         0.1400 
    101 CB        -4.6412  -25.6881  -54.9337 C.3       18 UNK        -0.1800 
    102 C         -4.8756  -23.2680  -54.1339 C.2       18 UNK         0.5000 
    103 O         -4.7738  -22.6787  -53.0537 O.2       18 UNK        -0.5000 
    104 N         -4.4798  -22.7371  -55.3009 N.am      19 UNK        -0.5000 
    105 CA        -3.9073  -21.3948  -55.4993 C.3       19 UNK         0.1400 
    106 CB        -2.5215  -21.2824  -54.8274 C.3       19 UNK        -0.1800 
    107 C         -4.8756  -20.2677  -55.0731 C.2       19 UNK         0.5000 
    108 O         -4.4445  -19.2324  -54.5653 O.2       19 UNK        -0.5000 
    109 N         -6.1790  -20.5224  -55.2681 N.am      20 UNK        -0.5000 
    110 CA        -7.3284  -19.7050  -54.8640 C.3       20 UNK         0.1400 
    111 CB        -7.3111  -18.3319  -55.5695 C.3       20 UNK        -0.1800 
    112 C         -7.5168  -19.5876  -53.3338 C.2       20 UNK         0.5000 
    113 O         -8.2573  -18.7069  -52.8945 O.2       20 UNK        -0.5000 
    114 N         -6.8818  -20.4870  -52.5613 N.am      21 UNK        -0.5000 
    115 CA        -6.9027  -20.5887  -51.0985 C.3       21 UNK         0.1400 
    116 CB        -8.2978  -21.0151  -50.5964 C.3       21 UNK        -0.1800 
    117 C         -6.3896  -19.2991  -50.4269 C.2       21 UNK         0.5000 
    118 O         -7.1846  -18.5059  -49.9187 O.2       21 UNK        -0.5000 
    119 N         -5.0641  -19.1163  -50.4875 N.am      22 UNK        -0.5000 
    120 CA        -4.2844  -17.9793  -49.9657 C.3       22 UNK         0.1400 
    121 C         -4.6991  -17.4828  -48.5479 C.2       22 UNK         0.5000 
    122 N         -4.8018  -16.1752  -48.3492 N.am      22 UNK        -0.7600 
    123 O         -4.8823  -18.2644  -47.6189 O.2       22 UNK        -0.5000 
    124 C124       -2.7711  -18.3107  -49.9673 C.3       23 UNK        -0.0398 
    125 S125       -2.1084  -18.7213  -51.6179 S.3       23 UNK        -0.2404 
    126 C126       -1.0235  -17.2952  -51.9589 C.3       23 UNK        -0.0205 
    127 H127        6.0173  -11.8184  -51.6304 H         1 UNK         0.0600 
    128 H128        7.7420  -11.8209  -51.2520 H         1 UNK         0.0600 
    129 H129        6.8203  -10.3159  -51.1656 H         1 UNK         0.0600 
    130 H130        4.7768  -12.6646  -49.9782 H         1 UNK         0.3000 
    131 H131        5.7708  -13.0271  -47.3096 H         1 UNK         0.0600 
    132 H132        4.3375  -14.7232  -48.3219 H         1 UNK         0.0800 
    133 H133        3.6037  -14.1039  -46.8718 H         1 UNK         0.0800 
    134 H134        0.2340  -14.2817  -48.1575 H         1 UNK         0.0800 
    135 H135        1.4907  -15.0311  -47.2105 H         1 UNK         0.0800 
    136 H136       -0.5785  -15.2746  -50.1770 H         1 UNK         0.1150 
    137 H137        1.0310  -19.0190  -51.4915 H         1 UNK         0.1150 
    138 H138        2.9233  -16.8776  -48.2921 H         1 UNK         0.1150 
    139 H139        3.1862  -19.7448  -50.6935 H         1 UNK         0.0800 
    140 H140        4.1197  -18.7316  -49.6232 H         1 UNK         0.0800 
    141 H141        1.0401  -21.0512  -49.8451 H         1 UNK         0.0800 
    142 H142        0.3978  -20.0360  -48.5730 H         1 UNK         0.0800 
    143 H143        1.4492  -22.8736  -48.1358 H         1 UNK         0.0600 
    144 H144        0.6931  -20.9261  -46.2224 H         1 UNK         0.3000 
    145 H145       -0.2409  -23.2359  -43.6170 H         1 UNK         0.0600 
    146 H146        1.4231  -21.8202  -42.4405 H         1 UNK         0.0600 
    147 H147        2.2219  -22.9509  -43.5232 H         1 UNK         0.0600 
    148 H148        2.0717  -21.2606  -43.9799 H         1 UNK         0.0600 
    149 H149       -0.2857  -20.3885  -43.7094 H         1 UNK         0.3000 
    150 H150       -3.6614  -20.0632  -44.9067 H         1 UNK         0.0600 
    151 H151       -3.7927  -20.4869  -42.4439 H         1 UNK         0.0600 
    152 H152       -3.8240  -18.7667  -42.8038 H         1 UNK         0.0600 
    153 H153       -2.3495  -19.5116  -42.1912 H         1 UNK         0.0600 
    154 H154       -1.8303  -18.0572  -44.1680 H         1 UNK         0.3000 
    155 H155       -0.2014  -17.6655  -47.3527 H         1 UNK         0.0600 
    156 H156       -2.2917  -16.1510  -45.7155 H         1 UNK         0.0600 
    157 H157       -0.9334  -15.3129  -46.4429 H         1 UNK         0.0600 
    158 H158       -2.0694  -16.1897  -47.4542 H         1 UNK         0.0600 
    159 H159        0.3995  -16.4032  -44.9184 H         1 UNK         0.3000 
    160 H160        2.6800  -18.8207  -43.5711 H         1 UNK         0.0600 
    161 H161        3.0607  -16.0612  -44.8477 H         1 UNK         0.0600 
    162 H162        4.0076  -17.5034  -45.1586 H         1 UNK         0.0600 
    163 H163        4.0797  -16.7416  -43.5775 H         1 UNK         0.0600 
    164 H164        1.6226  -16.2563  -42.7324 H         1 UNK         0.3000 
    165 H165       -1.0465  -17.5997  -40.7769 H         1 UNK         0.0600 
    166 H166        0.1062  -16.3295  -38.9848 H         1 UNK         0.0600 
    167 H167        0.9621  -17.8287  -39.3078 H         1 UNK         0.0600 
    168 H168        1.6016  -16.3081  -39.9201 H         1 UNK         0.0600 
    169 H169       -0.0460  -14.9430  -41.1708 H         1 UNK         0.3000 
    170 H170       -1.7453  -14.1905  -44.1753 H         1 UNK         0.0600 
    171 H171       -3.6027  -13.9525  -42.5199 H         1 UNK         0.0600 
    172 H172       -2.4818  -13.2794  -41.3415 H         1 UNK         0.0600 
    173 H173       -2.8285  -12.4071  -42.8346 H         1 UNK         0.0600 
    174 H174       -0.3452  -12.4886  -42.4060 H         1 UNK         0.3000 
    175 H175        2.0335  -12.5857  -42.0697 H         1 UNK         0.0600 
    176 H176        3.5339  -13.5614  -44.5442 H         1 UNK         0.0600 
    177 H177        4.2569  -12.7203  -43.1757 H         1 UNK         0.0600 
    178 H178        3.5401  -14.3072  -42.9522 H         1 UNK         0.0600 
    179 H179        2.6800  -11.1920  -44.5013 H         1 UNK         0.3000 
    180 H180        0.2903   -8.8332  -44.5538 H         1 UNK         0.0600 
    181 H181        0.7755   -7.8938  -42.3049 H         1 UNK         0.0600 
    182 H182        1.5706   -6.9464  -43.5489 H         1 UNK         0.0600 
    183 H183        2.5044   -8.0806  -42.5725 H         1 UNK         0.0600 
    184 H184        3.1760   -8.5693  -44.8717 H         1 UNK         0.3000 
    185 H185        2.9243   -8.6526  -48.2369 H         1 UNK         0.0600 
    186 H186        4.9440   -8.7210  -45.9242 H         1 UNK         0.0600 
    187 H187        5.2263   -8.0881  -47.5386 H         1 UNK         0.0600 
    188 H188        4.0705   -7.2951  -46.4868 H         1 UNK         0.0600 
    189 H189        3.8743  -10.5572  -48.8477 H         1 UNK         0.3000 
    190 H190       -1.7598  -21.3407  -47.5248 H         1 UNK         0.3000 
    191 H191       -3.1716  -22.6733  -49.5852 H         1 UNK         0.0600 
    192 H192       -4.1920  -21.6521  -46.8823 H         1 UNK         0.0600 
    193 H193       -5.1941  -22.0502  -48.2735 H         1 UNK         0.0600 
    194 H194       -4.0641  -20.7103  -48.3600 H         1 UNK         0.0600 
    195 H195       -2.5577  -23.6613  -46.1866 H         1 UNK         0.3000 
    196 H196       -4.0409  -26.0858  -46.2544 H         1 UNK         0.0600 
    197 H197       -2.7107  -26.6486  -44.2178 H         1 UNK         0.0600 
    198 H198       -3.3361  -25.0081  -44.1439 H         1 UNK         0.0600 
    199 H199       -1.6397  -25.2875  -44.5256 H         1 UNK         0.0600 
    200 H200       -0.5526  -25.4375  -46.8832 H         1 UNK         0.3000 
    201 H201        0.2037  -28.1010  -47.4940 H         1 UNK         0.0600 
    202 H202        1.8276  -26.3109  -46.9450 H         1 UNK         0.0600 
    203 H203        1.4133  -25.4412  -48.4204 H         1 UNK         0.0600 
    204 H204        2.2081  -27.0086  -48.5125 H         1 UNK         0.0600 
    205 H205       -1.0612  -25.4933  -49.5783 H         1 UNK         0.3000 
    206 H206       -0.9240  -26.9747  -52.0469 H         1 UNK         0.0600 
    207 H207       -0.8859  -24.4728  -51.8966 H         1 UNK         0.0600 
    208 H208       -2.1918  -25.0294  -52.9193 H         1 UNK         0.0600 
    209 H209       -2.5403  -24.4806  -51.2865 H         1 UNK         0.0600 
    210 H210       -2.9905  -27.3566  -49.3876 H         1 UNK         0.3000 
    211 H211       -4.9077  -28.3456  -48.9381 H         1 UNK         0.0600 
    212 H212       -4.6399  -29.7531  -51.6482 H         1 UNK         0.0600 
    213 H213       -5.6334  -30.2738  -50.2948 H         1 UNK         0.0600 
    214 H214       -3.8836  -30.2789  -50.1449 H         1 UNK         0.0600 
    215 H215       -5.1637  -25.8133  -49.7013 H         1 UNK         0.3000 
    216 H216       -6.5891  -24.2243  -50.1242 H         1 UNK         0.0600 
    217 H217       -9.0016  -24.5982  -50.2482 H         1 UNK         0.0600 
    218 H218       -8.3197  -25.6893  -49.0548 H         1 UNK         0.0600 
    219 H219       -8.7801  -26.2939  -50.6469 H         1 UNK         0.0600 
    220 H220       -5.1304  -25.7235  -52.4106 H         1 UNK         0.3000 
    221 H221       -6.4590  -24.5694  -54.7645 H         1 UNK         0.0600 
    222 H222       -3.6338  -25.7233  -54.5228 H         1 UNK         0.0600 
    223 H223       -5.0613  -26.6923  -54.8699 H         1 UNK         0.0600 
    224 H224       -4.5512  -25.4479  -55.9933 H         1 UNK         0.0600 
    225 H225       -4.6024  -23.2828  -56.1427 H         1 UNK         0.3000 
    226 H226       -3.7613  -21.2773  -56.5739 H         1 UNK         0.0600 
    227 H227       -1.8626  -22.0910  -55.1436 H         1 UNK         0.0600 
    228 H228       -2.0334  -20.3439  -55.0927 H         1 UNK         0.0600 
    229 H229       -2.5917  -21.3133  -53.7396 H         1 UNK         0.0600 
    230 H230       -6.4139  -21.4084  -55.6928 H         1 UNK         0.3000 
    231 H231       -8.2084  -20.2398  -55.2242 H         1 UNK         0.0600 
    232 H232       -8.2517  -17.8016  -55.4169 H         1 UNK         0.0600 
    233 H233       -7.1748  -18.4419  -56.6452 H         1 UNK         0.0600 
    234 H234       -6.5136  -17.6913  -55.1927 H         1 UNK         0.0600 
    235 H235       -6.2719  -21.1543  -53.0189 H         1 UNK         0.3000 
    236 H236       -6.2079  -21.3881  -50.8348 H         1 UNK         0.0600 
    237 H237       -8.2932  -21.1563  -49.5151 H         1 UNK         0.0600 
    238 H238       -9.0617  -20.2716  -50.8251 H         1 UNK         0.0600 
    239 H239       -8.6067  -21.9586  -51.0456 H         1 UNK         0.0600 
    240 H240       -4.5143  -19.8081  -50.9759 H         1 UNK         0.3000 
    241 H241       -4.4495  -17.1582  -50.6654 H         1 UNK         0.0600 
    242 H242       -5.0643  -15.8440  -47.4346 H         1 UNK         0.3800 
    243 H243       -4.6638  -15.5100  -49.0939 H         1 UNK         0.3800 
    244 H244       -2.2024  -17.4835  -49.5435 H         1 UNK         0.0800 
    245 H245       -2.5726  -19.1663  -49.3232 H         1 UNK         0.0800 
    246 H246       -1.6291  -16.3882  -51.9903 H         1 UNK         0.0800 
    247 H247       -0.5927  -17.4109  -52.9542 H         1 UNK         0.0800 
@<TRIPOS>BOND
     1    1    2 1    
     2    1  127 1    
     3    1  128 1    
     4    1  129 1    
     5    2    3 2    
     6    2    4 am   BACKBONE|DICT|INTERRES
     7    4    5 1    
     8    4  130 1    
     9    5    6 1    
    10    5   65 1    
    11    5  131 1    
    12    6    7 1    
    13    6  132 1    
    14    6  133 1    
    15    7    8 1    
    16    8    9 1    
    17    8  134 1    
    18    8  135 1    
    19    9   10 ar   
    20    9   14 ar   
    21   10   11 ar   
    22   10  136 1    
    23   11   12 ar   
    24   11  126 1    
    25   12   13 ar   
    26   12  137 1    
    27   13   14 ar   
    28   13   15 1    
    29   14  138 1    
    30   15   16 1    
    31   15  139 1    
    32   15  140 1    
    33   16   17 1    
    34   17   18 1    
    35   17  141 1    
    36   17  142 1    
    37   18   19 1    
    38   18   67 1    
    39   18  143 1    
    40   19   20 am   BACKBONE|DICT|INTERRES
    41   19  144 1    
    42   20   21 2    
    43   20   22 1    
    44   22   23 1    
    45   22   24 1    
    46   22  145 1    
    47   23  146 1    
    48   23  147 1    
    49   23  148 1    
    50   24   25 am   BACKBONE|DICT|INTERRES
    51   24  149 1    
    52   25   26 2    
    53   25   27 1    
    54   27   28 1    
    55   27   29 1    
    56   27  150 1    
    57   28  151 1    
    58   28  152 1    
    59   28  153 1    
    60   29   30 am   BACKBONE|DICT|INTERRES
    61   29  154 1    
    62   30   31 2    
    63   30   32 1    
    64   32   33 1    
    65   32   34 1    
    66   32  155 1    
    67   33  156 1    
    68   33  157 1    
    69   33  158 1    
    70   34   35 am   BACKBONE|DICT|INTERRES
    71   34  159 1    
    72   35   36 2    
    73   35   37 1    
    74   37   38 1    
    75   37   39 1    
    76   37  160 1    
    77   38  161 1    
    78   38  162 1    
    79   38  163 1    
    80   39   40 am   BACKBONE|DICT|INTERRES
    81   39  164 1    
    82   40   41 2    
    83   40   42 1    
    84   42   43 1    
    85   42   44 1    
    86   42  165 1    
    87   43  166 1    
    88   43  167 1    
    89   43  168 1    
    90   44   45 am   BACKBONE|DICT|INTERRES
    91   44  169 1    
    92   45   46 2    
    93   45   47 1    
    94   47   48 1    
    95   47   49 1    
    96   47  170 1    
    97   48  171 1    
    98   48  172 1    
    99   48  173 1    
   100   49   50 am   BACKBONE|DICT|INTERRES
   101   49  174 1    
   102   50   51 2    
   103   50   52 1    
   104   52   53 1    
   105   52   54 1    
   106   52  175 1    
   107   53  176 1    
   108   53  177 1    
   109   53  178 1    
   110   54   55 am   BACKBONE|DICT|INTERRES
   111   54  179 1    
   112   55   56 2    
   113   55   57 1    
   114   57   58 1    
   115   57   59 1    
   116   57  180 1    
   117   58  181 1    
   118   58  182 1    
   119   58  183 1    
   120   59   60 am   BACKBONE|DICT|INTERRES
   121   59  184 1    
   122   60   61 2    
   123   60   62 1    
   124   62   63 1    
   125   62   64 1    
   126   62  185 1    
   127   63  186 1    
   128   63  187 1    
   129   63  188 1    
   130   64   65 am   BACKBONE|DICT|INTERRES
   131   64  189 1    
   132   65   66 2    
   133   67   68 2    
   134   67   69 am   BACKBONE|DICT|INTERRES
   135   69   70 1    
   136   69  190 1    
   137   70   71 1    
   138   70   72 1    
   139   70  191 1    
   140   71  192 1    
   141   71  193 1    
   142   71  194 1    
   143   72   73 2    
   144   72   74 am   BACKBONE|DICT|INTERRES
   145   74   75 1    
   146   74  195 1    
   147   75   76 1    
   148   75   77 1    
   149   75  196 1    
   150   76  197 1    
   151   76  198 1    
   152   76  199 1    
   153   77   78 2    
   154   77   79 am   BACKBONE|DICT|INTERRES
   155   79   80 1    
   156   79  200 1    
   157   80   81 1    
   158   80   82 1    
   159   80  201 1    
   160   81  202 1    
   161   81  203 1    
   162   81  204 1    
   163   82   83 2    
   164   82   84 am   BACKBONE|DICT|INTERRES
   165   84   85 1    
   166   84  205 1    
   167   85   86 1    
   168   85   87 1    
   169   85  206 1    
   170   86  207 1    
   171   86  208 1    
   172   86  209 1    
   173   87   88 2    
   174   87   89 am   BACKBONE|DICT|INTERRES
   175   89   90 1    
   176   89  210 1    
   177   90   91 1    
   178   90   92 1    
   179   90  211 1    
   180   91  212 1    
   181   91  213 1    
   182   91  214 1    
   183   92   93 2    
   184   92   94 am   BACKBONE|DICT|INTERRES
   185   94   95 1    
   186   94  215 1    
   187   95   96 1    
   188   95   97 1    
   189   95  216 1    
   190   96  217 1    
   191   96  218 1    
   192   96  219 1    
   193   97   98 2    
   194   97   99 am   BACKBONE|DICT|INTERRES
   195   99  100 1    
   196   99  220 1    
   197  100  101 1    
   198  100  102 1    
   199  100  221 1    
   200  101  222 1    
   201  101  223 1    
   202  101  224 1    
   203  102  103 2    
   204  102  104 am   BACKBONE|DICT|INTERRES
   205  104  105 1    
   206  104  225 1    
   207  105  106 1    
   208  105  107 1    
   209  105  226 1    
   210  106  227 1    
   211  106  228 1    
   212  106  229 1    
   213  107  108 2    
   214  107  109 am   BACKBONE|DICT|INTERRES
   215  109  110 1    
   216  109  230 1    
   217  110  111 1    
   218  110  112 1    
   219  110  231 1    
   220  111  232 1    
   221  111  233 1    
   222  111  234 1    
   223  112  113 2    
   224  112  114 am   BACKBONE|DICT|INTERRES
   225  114  115 1    
   226  114  235 1    
   227  115  116 1    
   228  115  117 1    
   229  115  236 1    
   230  116  237 1    
   231  116  238 1    
   232  116  239 1    
   233  117  118 2    
   234  117  119 am   BACKBONE|DICT|INTERRES
   235  119  120 1    
   236  119  240 1    
   237  120  121 1    
   238  120  124 1    
   239  120  241 1    
   240  121  122 am   BACKBONE|DICT|INTERRES
   241  121  123 2    
   242  122  242 1    
   243  122  243 1    
   244  124  125 1    
   245  124  244 1    
   246  124  245 1    
   247  125  126 1    
   248  126  246 1    
   249  126  247 1    
@<TRIPOS>SUBSTRUCTURE
     1 UNK         1 GROUP             0       ****    0 ROOT    
