@<TRIPOS>MOLECULE
3R540
247   249    1
SMALL
USER_CHARGES


@<TRIPOS>ATOM
      1 CA          8.0503  -12.9708  -46.6600 C.3       0 UNK        -0.1800 
      2 C           6.6333  -13.5231  -46.5927 C.2       0 UNK         0.5000 
      3 O           5.6753  -12.7561  -46.6933 O.2       0 UNK        -0.5000 
      4 N           6.5028  -14.8480  -46.4311 N.am      1 UNK        -0.5000 
      5 CA          5.2423  -15.5883  -46.2794 C.3       1 UNK         0.1400 
      6 C6          4.2780  -15.3868  -47.4867 C.3       23 UNK        -0.0398 
      7 S7          3.2563  -16.8580  -47.8490 S.3       23 UNK        -0.2404 
      8 C8          3.8278  -17.2411  -49.5312 C.3       23 UNK        -0.0205 
      9 C9          3.0416  -18.3879  -50.1412 C.ar      23 UNK        -0.0193 
     10 C10         1.8692  -18.1336  -50.8577 C.ar      23 UNK        -0.1150 
     11 C11         1.1574  -19.1817  -51.4486 C.ar      23 UNK        -0.0193 
     12 C12         1.6261  -20.4928  -51.3157 C.ar      23 UNK        -0.1150 
     13 C13         2.8073  -20.7565  -50.6144 C.ar      23 UNK        -0.0193 
     14 C14         3.5054  -19.7001  -50.0225 C.ar      23 UNK        -0.1150 
     15 C15         3.3626  -22.1718  -50.5385 C.3       23 UNK        -0.0205 
     16 S16         3.3121  -22.8514  -48.8523 S.3       23 UNK        -0.2404 
     17 C17         1.5307  -23.1807  -48.6685 C.3       23 UNK        -0.0398 
     18 CA          1.1274  -23.4192  -47.1926 C.3       11 UNK         0.1400 
     19 N           1.2826  -22.2069  -46.3898 N.am      11 UNK        -0.5000 
     20 C           2.1905  -22.0074  -45.4257 C.2       10 UNK         0.5000 
     21 O           3.0017  -22.8584  -45.0602 O.2       10 UNK        -0.5000 
     22 CA          2.1914  -20.6222  -44.7436 C.3       10 UNK         0.1400 
     23 CB          3.2982  -19.7409  -45.3447 C.3       10 UNK        -0.1800 
     24 N           0.9128  -19.9169  -44.8599 N.am      10 UNK        -0.5000 
     25 C          -0.2433  -20.3199  -44.3136 C.2       9 UNK         0.5000 
     26 O          -0.3380  -21.2864  -43.5575 O.2       9 UNK        -0.5000 
     27 CA         -1.5161  -19.5579  -44.7325 C.3       9 UNK         0.1400 
     28 CB         -1.9410  -18.5636  -43.6447 C.3       9 UNK        -0.1800 
     29 N          -1.4010  -18.8542  -46.0154 N.am      9 UNK        -0.5000 
     30 C          -1.1674  -19.4194  -47.2074 C.2       8 UNK         0.5000 
     31 O          -1.0069  -20.6304  -47.3581 O.2       8 UNK        -0.5000 
     32 CA         -1.0287  -18.4920  -48.4310 C.3       8 UNK         0.1400 
     33 CB         -2.3694  -18.3424  -49.1719 C.3       8 UNK        -0.1800 
     34 N          -0.4106  -17.1817  -48.1679 N.am      8 UNK        -0.5000 
     35 C          -0.8852  -16.1484  -47.4557 C.2       7 UNK         0.5000 
     36 O          -1.9373  -16.1913  -46.8156 O.2       7 UNK        -0.5000 
     37 CA          0.0153  -14.8963  -47.3979 C.3       7 UNK         0.1400 
     38 CB          0.5582  -14.4762  -48.7831 C.3       7 UNK        -0.1800 
     39 N          -0.6135  -13.7649  -46.7085 N.am      7 UNK        -0.5000 
     40 C          -1.6339  -13.0008  -47.1292 C.2       6 UNK         0.5000 
     41 O          -2.1991  -13.1347  -48.2163 O.2       6 UNK        -0.5000 
     42 CA         -2.0655  -11.8719  -46.1676 C.3       6 UNK         0.1400 
     43 CB         -3.3892  -11.1873  -46.5703 C.3       6 UNK        -0.1800 
     44 N          -2.0886  -12.3039  -44.7672 N.am      6 UNK        -0.5000 
     45 C          -2.8924  -13.2229  -44.2076 C.2       5 UNK         0.5000 
     46 O          -3.8229  -13.7711  -44.7986 O.2       5 UNK        -0.5000 
     47 CA         -2.6098  -13.6090  -42.7407 C.3       5 UNK         0.1400 
     48 CB         -2.3789  -15.1237  -42.6168 C.3       5 UNK        -0.1800 
     49 N          -1.4332  -12.9212  -42.2070 N.am      5 UNK        -0.5000 
     50 C          -1.4557  -11.8275  -41.4342 C.2       4 UNK         0.5000 
     51 O          -2.4910  -11.2947  -41.0336 O.2       4 UNK        -0.5000 
     52 CA         -0.0927  -11.2117  -41.0522 C.3       4 UNK         0.1400 
     53 CB          0.3214  -11.6618  -39.6429 C.3       4 UNK        -0.1800 
     54 N           0.9870  -11.5371  -41.9890 N.am      4 UNK        -0.5000 
     55 C           1.0556  -11.1173  -43.2600 C.2       3 UNK         0.5000 
     56 O           0.2142  -10.3885  -43.7853 O.2       3 UNK        -0.5000 
     57 CA          2.2217  -11.6619  -44.1068 C.3       3 UNK         0.1400 
     58 CB          3.4575  -10.7605  -43.9736 C.3       3 UNK        -0.1800 
     59 N           2.5983  -13.0443  -43.7928 N.am      3 UNK        -0.5000 
     60 C           1.7835  -14.1054  -43.8476 C.2       2 UNK         0.5000 
     61 O           0.5814  -14.0214  -44.1034 O.2       2 UNK        -0.5000 
     62 CA          2.4376  -15.4849  -43.6380 C.3       2 UNK         0.1400 
     63 CB          1.4000  -16.6131  -43.5103 C.3       2 UNK        -0.1800 
     64 N           3.3263  -15.7878  -44.7581 N.am      2 UNK        -0.5000 
     65 C           4.5613  -15.2990  -44.9188 C.2       1 UNK         0.5000 
     66 O           5.1387  -14.6421  -44.0471 O.2       1 UNK        -0.5000 
     67 C          -0.3103  -23.9632  -47.0482 C.2       11 UNK         0.5000 
     68 O          -0.8225  -24.6110  -47.9643 O.2       11 UNK        -0.5000 
     69 N          -0.9419  -23.7335  -45.8853 N.am      12 UNK        -0.5000 
     70 CA         -2.2716  -24.2498  -45.5432 C.3       12 UNK         0.1400 
     71 CB         -2.7190  -23.6719  -44.1935 C.3       12 UNK        -0.1800 
     72 C          -2.3384  -25.7894  -45.5246 C.2       12 UNK         0.5000 
     73 O          -3.3608  -26.3564  -45.9080 O.2       12 UNK        -0.5000 
     74 N          -1.2247  -26.4372  -45.1526 N.am      13 UNK        -0.5000 
     75 CA         -1.0390  -27.8910  -45.1938 C.3       13 UNK         0.1400 
     76 CB          0.2647  -28.2456  -44.4628 C.3       13 UNK        -0.1800 
     77 C          -1.0301  -28.4736  -46.6236 C.2       13 UNK         0.5000 
     78 O          -1.3437  -29.6514  -46.7968 O.2       13 UNK        -0.5000 
     79 N          -0.6970  -27.6388  -47.6180 N.am      14 UNK        -0.5000 
     80 CA         -0.7473  -27.9570  -49.0467 C.3       14 UNK         0.1400 
     81 CB          0.4678  -27.3130  -49.7361 C.3       14 UNK        -0.1800 
     82 C          -2.0669  -27.4870  -49.6963 C.2       14 UNK         0.5000 
     83 O          -2.1985  -27.5736  -50.9175 O.2       14 UNK        -0.5000 
     84 N          -3.0084  -26.9876  -48.8790 N.am      15 UNK        -0.5000 
     85 CA         -4.3231  -26.4473  -49.2363 C.3       15 UNK         0.1400 
     86 CB         -5.2031  -27.5147  -49.9196 C.3       15 UNK        -0.1800 
     87 C          -4.2675  -25.1257  -50.0297 C.2       15 UNK         0.5000 
     88 O          -5.2698  -24.7456  -50.6374 O.2       15 UNK        -0.5000 
     89 N          -3.1346  -24.4067  -49.9794 N.am      16 UNK        -0.5000 
     90 CA         -2.9593  -23.1196  -50.6607 C.3       16 UNK         0.1400 
     91 CB         -1.4932  -22.6816  -50.5777 C.3       16 UNK        -0.1800 
     92 C          -3.8709  -22.0231  -50.0842 C.2       16 UNK         0.5000 
     93 O          -4.3838  -21.1967  -50.8364 O.2       16 UNK        -0.5000 
     94 N          -4.0889  -22.0683  -48.7635 N.am      17 UNK        -0.5000 
     95 CA         -4.9956  -21.1833  -48.0332 C.3       17 UNK         0.1400 
     96 CB         -4.7511  -21.3635  -46.5293 C.3       17 UNK        -0.1800 
     97 C          -6.4776  -21.4324  -48.3709 C.2       17 UNK         0.5000 
     98 O          -7.2664  -20.4878  -48.3608 O.2       17 UNK        -0.5000 
     99 N          -6.8237  -22.6926  -48.6718 N.am      18 UNK        -0.5000 
    100 CA        -8.1609  -23.1024  -49.1004 C.3       18 UNK         0.1400 
    101 CB        -8.3342  -24.6134  -48.8813 C.3       18 UNK        -0.1800 
    102 C         -8.4256  -22.7217  -50.5670 C.2       18 UNK         0.5000 
    103 O         -9.5299  -22.2808  -50.8878 O.2       18 UNK        -0.5000 
    104 N         -7.4027  -22.8733  -51.4219 N.am      19 UNK        -0.5000 
    105 CA        -7.4137  -22.4328  -52.8176 C.3       19 UNK         0.1400 
    106 CB        -6.1748  -22.9861  -53.5386 C.3       19 UNK        -0.1800 
    107 C         -7.4769  -20.8994  -52.9455 C.2       19 UNK         0.5000 
    108 O         -8.1897  -20.3913  -53.8114 O.2       19 UNK        -0.5000 
    109 N         -6.7287  -20.2003  -52.0787 N.am      20 UNK        -0.5000 
    110 CA        -6.6343  -18.7496  -51.8658 C.3       20 UNK         0.1400 
    111 CB        -7.9979  -18.1593  -51.4624 C.3       20 UNK        -0.1800 
    112 C         -6.0044  -17.9541  -53.0265 C.2       20 UNK         0.5000 
    113 O         -5.2747  -16.9953  -52.7734 O.2       20 UNK        -0.5000 
    114 N         -6.2764  -18.3636  -54.2705 N.am      21 UNK        -0.5000 
    115 CA        -5.7686  -17.7589  -55.5022 C.3       21 UNK         0.1400 
    116 CB        -6.5969  -18.2864  -56.6841 C.3       21 UNK        -0.1800 
    117 C         -4.2667  -18.0081  -55.7450 C.2       21 UNK         0.5000 
    118 O         -3.6579  -17.2697  -56.5202 O.2       21 UNK        -0.5000 
    119 N         -3.7001  -19.0346  -55.0920 N.am      22 UNK        -0.5000 
    120 CA        -2.2893  -19.4507  -55.2002 C.3       22 UNK         0.1400 
    121 C         -1.9140  -20.0909  -56.5768 C.2       22 UNK         0.5000 
    122 N         -2.8736  -20.5656  -57.3628 N.am      22 UNK        -0.7600 
    123 O         -0.7445  -20.1853  -56.9381 O.2       22 UNK        -0.5000 
    124 C124       -1.3162  -18.3246  -54.7405 C.3       23 UNK        -0.0398 
    125 S125        0.2487  -18.9429  -54.0334 S.3       23 UNK        -0.2404 
    126 C126       -0.1018  -18.8911  -52.2501 C.3       23 UNK        -0.0205 
    127 H127        8.2112  -12.2540  -45.8548 H         1 UNK         0.0600 
    128 H128        8.2092  -12.4600  -47.6097 H         1 UNK         0.0600 
    129 H129        8.7983  -13.7587  -46.5683 H         1 UNK         0.0600 
    130 H130        7.3385  -15.4069  -46.3308 H         1 UNK         0.3000 
    131 H131        5.5398  -16.6377  -46.2490 H         1 UNK         0.0600 
    132 H132        3.6242  -14.5248  -47.3387 H         1 UNK         0.0800 
    133 H133        4.8569  -15.1481  -48.3798 H         1 UNK         0.0800 
    134 H134        4.8911  -17.4855  -49.5055 H         1 UNK         0.0800 
    135 H135        3.7298  -16.3551  -50.1608 H         1 UNK         0.0800 
    136 H136        1.5192  -17.1170  -50.9690 H         1 UNK         0.1150 
    137 H137        1.0868  -21.3023  -51.7868 H         1 UNK         0.1150 
    138 H138        4.4197  -19.9004  -49.4815 H         1 UNK         0.1150 
    139 H139        4.3987  -22.1613  -50.8797 H         1 UNK         0.0800 
    140 H140        2.8270  -22.8400  -51.2148 H         1 UNK         0.0800 
    141 H141        1.2949  -24.0424  -49.2937 H         1 UNK         0.0800 
    142 H142        0.9768  -22.3344  -49.0736 H         1 UNK         0.0800 
    143 H143        1.7661  -24.2118  -46.7982 H         1 UNK         0.0600 
    144 H144        0.6213  -21.4681  -46.6088 H         1 UNK         0.3000 
    145 H145        2.4025  -20.7722  -43.6829 H         1 UNK         0.0600 
    146 H146        4.2741  -20.2172  -45.2431 H         1 UNK         0.0600 
    147 H147        3.3578  -18.7755  -44.8436 H         1 UNK         0.0600 
    148 H148        3.1333  -19.5619  -46.4081 H         1 UNK         0.0600 
    149 H149        0.8899  -19.1220  -45.4797 H         1 UNK         0.3000 
    150 H150       -2.3087  -20.2978  -44.8310 H         1 UNK         0.0600 
    151 H151       -1.1891  -17.7919  -43.4931 H         1 UNK         0.0600 
    152 H152       -2.0905  -19.0679  -42.6891 H         1 UNK         0.0600 
    153 H153       -2.8796  -18.0730  -43.9034 H         1 UNK         0.0600 
    154 H154       -1.5768  -17.8527  -46.0113 H         1 UNK         0.3000 
    155 H155       -0.3436  -19.0031  -49.1068 H         1 UNK         0.0600 
    156 H156       -3.1395  -17.9021  -48.5379 H         1 UNK         0.0600 
    157 H157       -2.7355  -19.3127  -49.5057 H         1 UNK         0.0600 
    158 H158       -2.2651  -17.7157  -50.0574 H         1 UNK         0.0600 
    159 H159        0.4975  -17.0632  -48.5949 H         1 UNK         0.3000 
    160 H160        0.8701  -15.1694  -46.7787 H         1 UNK         0.0600 
    161 H161       -0.2441  -14.2996  -49.4997 H         1 UNK         0.0600 
    162 H162        1.2056  -15.2392  -49.2128 H         1 UNK         0.0600 
    163 H163        1.1504  -13.5638  -48.7120 H         1 UNK         0.0600 
    164 H164       -0.2881  -13.6285  -45.7555 H         1 UNK         0.3000 
    165 H165       -1.2822  -11.1151  -46.2299 H         1 UNK         0.0600 
    166 H166       -3.3045  -10.7281  -47.5558 H         1 UNK         0.0600 
    167 H167       -4.2186  -11.8934  -46.6124 H         1 UNK         0.0600 
    168 H168       -3.6546  -10.3978  -45.8672 H         1 UNK         0.0600 
    169 H169       -1.3685  -11.8972  -44.1840 H         1 UNK         0.3000 
    170 H170       -3.4955  -13.3506  -42.1571 H         1 UNK         0.0600 
    171 H171       -2.1496  -15.4094  -41.5902 H         1 UNK         0.0600 
    172 H172       -1.5553  -15.4514  -43.2508 H         1 UNK         0.0600 
    173 H173       -3.2659  -15.6817  -42.9188 H         1 UNK         0.0600 
    174 H174       -0.5411  -13.2719  -42.5361 H         1 UNK         0.3000 
    175 H175       -0.2154  -10.1266  -41.0432 H         1 UNK         0.0600 
    176 H176       -0.4462  -11.4089  -38.9102 H         1 UNK         0.0600 
    177 H177        0.4783  -12.7402  -39.5950 H         1 UNK         0.0600 
    178 H178        1.2431  -11.1728  -39.3270 H         1 UNK         0.0600 
    179 H179        1.7169  -12.1450  -41.6470 H         1 UNK         0.3000 
    180 H180        1.8999  -11.6441  -45.1502 H         1 UNK         0.0600 
    181 H181        3.8538  -10.7683  -42.9575 H         1 UNK         0.0600 
    182 H182        3.2175   -9.7267  -44.2260 H         1 UNK         0.0600 
    183 H183        4.2531  -11.0819  -44.6466 H         1 UNK         0.0600 
    184 H184        3.5832  -13.2190  -43.6279 H         1 UNK         0.3000 
    185 H185        3.0121  -15.4481  -42.7101 H         1 UNK         0.0600 
    186 H186        1.8802  -17.5684  -43.3006 H         1 UNK         0.0600 
    187 H187        0.7114  -16.4144  -42.6883 H         1 UNK         0.0600 
    188 H188        0.8085  -16.7240  -44.4198 H         1 UNK         0.0600 
    189 H189        2.9234  -16.3102  -45.5236 H         1 UNK         0.3000 
    190 H190       -0.4714  -23.1841  -45.1788 H         1 UNK         0.3000 
    191 H191       -2.9681  -23.9049  -46.3093 H         1 UNK         0.0600 
    192 H192       -2.7899  -22.5859  -44.2332 H         1 UNK         0.0600 
    193 H193       -3.7036  -24.0483  -43.9128 H         1 UNK         0.0600 
    194 H194       -2.0253  -23.9328  -43.3934 H         1 UNK         0.0600 
    195 H195       -0.4327  -25.8896  -44.8499 H         1 UNK         0.3000 
    196 H196       -1.8704  -28.3528  -44.6570 H         1 UNK         0.0600 
    197 H197        0.4232  -29.3247  -44.4471 H         1 UNK         0.0600 
    198 H198        0.2410  -27.9076  -43.4266 H         1 UNK         0.0600 
    199 H199        1.1324  -27.7935  -44.9450 H         1 UNK         0.0600 
    200 H200       -0.4970  -26.6720  -47.3967 H         1 UNK         0.3000 
    201 H201       -0.6823  -29.0374  -49.1898 H         1 UNK         0.0600 
    202 H202        0.5280  -27.6124  -50.7830 H         1 UNK         0.0600 
    203 H203        1.4003  -27.6159  -49.2596 H         1 UNK         0.0600 
    204 H204        0.4151  -26.2251  -49.7118 H         1 UNK         0.0600 
    205 H205       -2.8010  -26.9594  -47.8883 H         1 UNK         0.3000 
    206 H206       -4.8032  -26.1962  -48.2898 H         1 UNK         0.0600 
    207 H207       -5.2280  -28.4364  -49.3383 H         1 UNK         0.0600 
    208 H208       -6.2325  -27.1698  -50.0196 H         1 UNK         0.0600 
    209 H209       -4.8458  -27.7572  -50.9205 H         1 UNK         0.0600 
    210 H210       -2.3515  -24.7478  -49.4328 H         1 UNK         0.3000 
    211 H211       -3.2169  -23.2582  -51.7127 H         1 UNK         0.0600 
    212 H212       -0.8176  -23.4720  -50.9051 H         1 UNK         0.0600 
    213 H213       -1.3142  -21.8131  -51.2106 H         1 UNK         0.0600 
    214 H214       -1.2267  -22.4019  -49.5593 H         1 UNK         0.0600 
    215 H215       -3.6021  -22.7699  -48.2276 H         1 UNK         0.3000 
    216 H216       -4.7568  -20.1523  -48.3017 H         1 UNK         0.0600 
    217 H217       -5.0525  -22.3535  -46.1846 H         1 UNK         0.0600 
    218 H218       -5.3108  -20.6276  -45.9508 H         1 UNK         0.0600 
    219 H219       -3.6969  -21.2357  -46.2931 H         1 UNK         0.0600 
    220 H220       -6.1052  -23.3998  -48.6927 H         1 UNK         0.3000 
    221 H221       -8.8981  -22.5868  -48.4810 H         1 UNK         0.0600 
    222 H222       -7.6426  -25.1949  -49.4901 H         1 UNK         0.0600 
    223 H223       -8.1713  -24.8825  -47.8376 H         1 UNK         0.0600 
    224 H224       -9.3443  -24.9294  -49.1445 H         1 UNK         0.0600 
    225 H225       -6.5539  -23.3219  -51.0916 H         1 UNK         0.3000 
    226 H226       -8.3029  -22.8472  -53.2972 H         1 UNK         0.0600 
    227 H227       -6.1463  -24.0750  -53.4926 H         1 UNK         0.0600 
    228 H228       -6.1775  -22.7040  -54.5922 H         1 UNK         0.0600 
    229 H229       -5.2501  -22.6104  -53.1001 H         1 UNK         0.0600 
    230 H230       -6.0912  -20.7342  -51.4933 H         1 UNK         0.3000 
    231 H231       -5.9634  -18.6303  -51.0133 H         1 UNK         0.0600 
    232 H232       -8.7274  -18.2282  -52.2697 H         1 UNK         0.0600 
    233 H233       -7.9027  -17.1055  -51.1982 H         1 UNK         0.0600 
    234 H234       -8.4072  -18.6769  -50.5944 H         1 UNK         0.0600 
    235 H235       -6.9329  -19.1337  -54.3686 H         1 UNK         0.3000 
    236 H236       -5.9140  -16.6786  -55.4363 H         1 UNK         0.0600 
    237 H237       -6.5120  -19.3693  -56.7832 H         1 UNK         0.0600 
    238 H238       -7.6529  -18.0432  -56.5643 H         1 UNK         0.0600 
    239 H239       -6.2671  -17.8424  -57.6243 H         1 UNK         0.0600 
    240 H240       -4.2826  -19.5871  -54.4803 H         1 UNK         0.3000 
    241 H241       -2.1971  -20.2688  -54.4851 H         1 UNK         0.0600 
    242 H242       -2.6272  -20.9837  -58.2464 H         1 UNK         0.3800 
    243 H243       -3.8407  -20.5076  -57.0884 H         1 UNK         0.3800 
    244 H244       -1.7969  -17.6948  -53.9907 H         1 UNK         0.0800 
    245 H245       -1.0825  -17.6567  -55.5712 H         1 UNK         0.0800 
    246 H246       -0.4985  -17.9102  -51.9837 H         1 UNK         0.0800 
    247 H247       -0.8789  -19.6162  -52.0070 H         1 UNK         0.0800 
@<TRIPOS>BOND
     1    1    2 1    
     2    1  127 1    
     3    1  128 1    
     4    1  129 1    
     5    2    3 2    
     6    2    4 am   BACKBONE|DICT|INTERRES
     7    4    5 1    
     8    4  130 1    
     9    5    6 1    
    10    5   65 1    
    11    5  131 1    
    12    6    7 1    
    13    6  132 1    
    14    6  133 1    
    15    7    8 1    
    16    8    9 1    
    17    8  134 1    
    18    8  135 1    
    19    9   10 ar   
    20    9   14 ar   
    21   10   11 ar   
    22   10  136 1    
    23   11   12 ar   
    24   11  126 1    
    25   12   13 ar   
    26   12  137 1    
    27   13   14 ar   
    28   13   15 1    
    29   14  138 1    
    30   15   16 1    
    31   15  139 1    
    32   15  140 1    
    33   16   17 1    
    34   17   18 1    
    35   17  141 1    
    36   17  142 1    
    37   18   19 1    
    38   18   67 1    
    39   18  143 1    
    40   19   20 am   BACKBONE|DICT|INTERRES
    41   19  144 1    
    42   20   21 2    
    43   20   22 1    
    44   22   23 1    
    45   22   24 1    
    46   22  145 1    
    47   23  146 1    
    48   23  147 1    
    49   23  148 1    
    50   24   25 am   BACKBONE|DICT|INTERRES
    51   24  149 1    
    52   25   26 2    
    53   25   27 1    
    54   27   28 1    
    55   27   29 1    
    56   27  150 1    
    57   28  151 1    
    58   28  152 1    
    59   28  153 1    
    60   29   30 am   BACKBONE|DICT|INTERRES
    61   29  154 1    
    62   30   31 2    
    63   30   32 1    
    64   32   33 1    
    65   32   34 1    
    66   32  155 1    
    67   33  156 1    
    68   33  157 1    
    69   33  158 1    
    70   34   35 am   BACKBONE|DICT|INTERRES
    71   34  159 1    
    72   35   36 2    
    73   35   37 1    
    74   37   38 1    
    75   37   39 1    
    76   37  160 1    
    77   38  161 1    
    78   38  162 1    
    79   38  163 1    
    80   39   40 am   BACKBONE|DICT|INTERRES
    81   39  164 1    
    82   40   41 2    
    83   40   42 1    
    84   42   43 1    
    85   42   44 1    
    86   42  165 1    
    87   43  166 1    
    88   43  167 1    
    89   43  168 1    
    90   44   45 am   BACKBONE|DICT|INTERRES
    91   44  169 1    
    92   45   46 2    
    93   45   47 1    
    94   47   48 1    
    95   47   49 1    
    96   47  170 1    
    97   48  171 1    
    98   48  172 1    
    99   48  173 1    
   100   49   50 am   BACKBONE|DICT|INTERRES
   101   49  174 1    
   102   50   51 2    
   103   50   52 1    
   104   52   53 1    
   105   52   54 1    
   106   52  175 1    
   107   53  176 1    
   108   53  177 1    
   109   53  178 1    
   110   54   55 am   BACKBONE|DICT|INTERRES
   111   54  179 1    
   112   55   56 2    
   113   55   57 1    
   114   57   58 1    
   115   57   59 1    
   116   57  180 1    
   117   58  181 1    
   118   58  182 1    
   119   58  183 1    
   120   59   60 am   BACKBONE|DICT|INTERRES
   121   59  184 1    
   122   60   61 2    
   123   60   62 1    
   124   62   63 1    
   125   62   64 1    
   126   62  185 1    
   127   63  186 1    
   128   63  187 1    
   129   63  188 1    
   130   64   65 am   BACKBONE|DICT|INTERRES
   131   64  189 1    
   132   65   66 2    
   133   67   68 2    
   134   67   69 am   BACKBONE|DICT|INTERRES
   135   69   70 1    
   136   69  190 1    
   137   70   71 1    
   138   70   72 1    
   139   70  191 1    
   140   71  192 1    
   141   71  193 1    
   142   71  194 1    
   143   72   73 2    
   144   72   74 am   BACKBONE|DICT|INTERRES
   145   74   75 1    
   146   74  195 1    
   147   75   76 1    
   148   75   77 1    
   149   75  196 1    
   150   76  197 1    
   151   76  198 1    
   152   76  199 1    
   153   77   78 2    
   154   77   79 am   BACKBONE|DICT|INTERRES
   155   79   80 1    
   156   79  200 1    
   157   80   81 1    
   158   80   82 1    
   159   80  201 1    
   160   81  202 1    
   161   81  203 1    
   162   81  204 1    
   163   82   83 2    
   164   82   84 am   BACKBONE|DICT|INTERRES
   165   84   85 1    
   166   84  205 1    
   167   85   86 1    
   168   85   87 1    
   169   85  206 1    
   170   86  207 1    
   171   86  208 1    
   172   86  209 1    
   173   87   88 2    
   174   87   89 am   BACKBONE|DICT|INTERRES
   175   89   90 1    
   176   89  210 1    
   177   90   91 1    
   178   90   92 1    
   179   90  211 1    
   180   91  212 1    
   181   91  213 1    
   182   91  214 1    
   183   92   93 2    
   184   92   94 am   BACKBONE|DICT|INTERRES
   185   94   95 1    
   186   94  215 1    
   187   95   96 1    
   188   95   97 1    
   189   95  216 1    
   190   96  217 1    
   191   96  218 1    
   192   96  219 1    
   193   97   98 2    
   194   97   99 am   BACKBONE|DICT|INTERRES
   195   99  100 1    
   196   99  220 1    
   197  100  101 1    
   198  100  102 1    
   199  100  221 1    
   200  101  222 1    
   201  101  223 1    
   202  101  224 1    
   203  102  103 2    
   204  102  104 am   BACKBONE|DICT|INTERRES
   205  104  105 1    
   206  104  225 1    
   207  105  106 1    
   208  105  107 1    
   209  105  226 1    
   210  106  227 1    
   211  106  228 1    
   212  106  229 1    
   213  107  108 2    
   214  107  109 am   BACKBONE|DICT|INTERRES
   215  109  110 1    
   216  109  230 1    
   217  110  111 1    
   218  110  112 1    
   219  110  231 1    
   220  111  232 1    
   221  111  233 1    
   222  111  234 1    
   223  112  113 2    
   224  112  114 am   BACKBONE|DICT|INTERRES
   225  114  115 1    
   226  114  235 1    
   227  115  116 1    
   228  115  117 1    
   229  115  236 1    
   230  116  237 1    
   231  116  238 1    
   232  116  239 1    
   233  117  118 2    
   234  117  119 am   BACKBONE|DICT|INTERRES
   235  119  120 1    
   236  119  240 1    
   237  120  121 1    
   238  120  124 1    
   239  120  241 1    
   240  121  122 am   BACKBONE|DICT|INTERRES
   241  121  123 2    
   242  122  242 1    
   243  122  243 1    
   244  124  125 1    
   245  124  244 1    
   246  124  245 1    
   247  125  126 1    
   248  126  246 1    
   249  126  247 1    
@<TRIPOS>SUBSTRUCTURE
     1 UNK         1 GROUP             0       ****    0 ROOT    
