@<TRIPOS>MOLECULE
3R540
247   249    1
SMALL
USER_CHARGES


@<TRIPOS>ATOM
      1 CA         -5.8857  -16.8763  -48.0424 C.3       0 UNK        -0.1800 
      2 C          -4.9999  -15.6741  -48.3312 C.2       0 UNK         0.5000 
      3 O          -5.4806  -14.5402  -48.3177 O.2       0 UNK        -0.5000 
      4 N          -3.7074  -15.9118  -48.5895 N.am      1 UNK        -0.5000 
      5 CA         -2.6943  -14.8833  -48.8401 C.3       1 UNK         0.1400 
      6 C6         -1.5130  -15.4430  -49.6688 C.3       23 UNK        -0.0398 
      7 S7         -0.5450  -14.1116  -50.4563 S.3       23 UNK        -0.2404 
      8 C8          1.1585  -14.6181  -50.0384 C.3       23 UNK        -0.0205 
      9 C9          1.6360  -15.9138  -50.6987 C.ar      23 UNK        -0.0193 
     10 C10         1.0632  -16.4144  -51.8764 C.ar      23 UNK        -0.1150 
     11 C11         1.5316  -17.5969  -52.4537 C.ar      23 UNK        -0.0193 
     12 C12         2.6021  -18.2719  -51.8632 C.ar      23 UNK        -0.1150 
     13 C13         3.1997  -17.7774  -50.7004 C.ar      23 UNK        -0.0193 
     14 C14         2.7056  -16.6052  -50.1205 C.ar      23 UNK        -0.1150 
     15 C15         4.4068  -18.4838  -50.0987 C.3       23 UNK        -0.0205 
     16 S16         4.0406  -20.1875  -49.5756 S.3       23 UNK        -0.2404 
     17 C17         3.0931  -19.9142  -48.0418 C.3       23 UNK        -0.0398 
     18 CA          2.1208  -21.0851  -47.7511 C.3       11 UNK         0.1400 
     19 N           1.9382  -21.3134  -46.3144 N.am      11 UNK        -0.5000 
     20 C           1.4286  -22.4371  -45.7885 C.2       10 UNK         0.5000 
     21 O           1.0910  -23.4146  -46.4564 O.2       10 UNK        -0.5000 
     22 CA          1.2412  -22.4718  -44.2612 C.3       10 UNK         0.1400 
     23 CB          2.5519  -22.8656  -43.5638 C.3       10 UNK        -0.1800 
     24 N           0.7535  -21.2037  -43.7176 N.am      10 UNK        -0.5000 
     25 C          -0.4487  -20.6749  -43.9865 C.2       9 UNK         0.5000 
     26 O          -1.2898  -21.2226  -44.6984 O.2       9 UNK        -0.5000 
     27 CA         -0.7407  -19.2770  -43.4097 C.3       9 UNK         0.1400 
     28 CB         -1.1229  -19.3605  -41.9247 C.3       9 UNK        -0.1800 
     29 N           0.3852  -18.3581  -43.5725 N.am      9 UNK        -0.5000 
     30 C           0.8886  -17.9704  -44.7531 C.2       8 UNK         0.5000 
     31 O           0.4341  -18.3181  -45.8416 O.2       8 UNK        -0.5000 
     32 CA          2.1472  -17.0901  -44.7046 C.3       8 UNK         0.1400 
     33 CB          1.7804  -15.6214  -44.4370 C.3       8 UNK        -0.1800 
     34 N           3.1009  -17.5608  -43.6982 N.am      8 UNK        -0.5000 
     35 C           3.7717  -18.7195  -43.7800 C.2       7 UNK         0.5000 
     36 O           3.6739  -19.4994  -44.7264 O.2       7 UNK        -0.5000 
     37 CA          4.6656  -19.0900  -42.5831 C.3       7 UNK         0.1400 
     38 CB          5.9994  -18.3306  -42.6435 C.3       7 UNK        -0.1800 
     39 N           4.0153  -18.8321  -41.2983 N.am      7 UNK        -0.5000 
     40 C           2.9252  -19.4762  -40.8575 C.2       6 UNK         0.5000 
     41 O           2.3735  -20.3872  -41.4721 O.2       6 UNK        -0.5000 
     42 CA          2.3172  -18.9833  -39.5315 C.3       6 UNK         0.1400 
     43 CB          2.9741  -19.6947  -38.3395 C.3       6 UNK        -0.1800 
     44 N           2.4152  -17.5323  -39.3475 N.am      6 UNK        -0.5000 
     45 C           1.8801  -16.6221  -40.1707 C.2       5 UNK         0.5000 
     46 O           1.2674  -16.9050  -41.2059 O.2       5 UNK        -0.5000 
     47 CA          2.1076  -15.1522  -39.7997 C.3       5 UNK         0.1400 
     48 CB          3.5074  -14.6895  -40.2360 C.3       5 UNK        -0.1800 
     49 N           1.1049  -14.3588  -40.4938 N.am      5 UNK        -0.5000 
     50 C           0.4067  -13.3407  -39.9852 C.2       4 UNK         0.5000 
     51 O           0.6020  -12.8670  -38.8650 O.2       4 UNK        -0.5000 
     52 CA         -0.7005  -12.7485  -40.8795 C.3       4 UNK         0.1400 
     53 CB         -0.2687  -11.3843  -41.4403 C.3       4 UNK        -0.1800 
     54 N          -1.0779  -13.6127  -42.0020 N.am      4 UNK        -0.5000 
     55 C          -1.8093  -14.7336  -41.9118 C.2       3 UNK         0.5000 
     56 O          -2.2062  -15.2021  -40.8442 O.2       3 UNK        -0.5000 
     57 CA         -2.1505  -15.4308  -43.2493 C.3       3 UNK         0.1400 
     58 CB         -3.3803  -16.3569  -43.1556 C.3       3 UNK        -0.1800 
     59 N          -2.2981  -14.4918  -44.3691 N.am      3 UNK        -0.5000 
     60 C          -3.1545  -13.4639  -44.4674 C.2       2 UNK         0.5000 
     61 O          -3.9907  -13.1771  -43.6105 O.2       2 UNK        -0.5000 
     62 CA         -3.0548  -12.5966  -45.7355 C.3       2 UNK         0.1400 
     63 CB         -1.8116  -11.6861  -45.6946 C.3       2 UNK        -0.1800 
     64 N          -3.1307  -13.3575  -46.9873 N.am      2 UNK        -0.5000 
     65 C          -2.2612  -14.2339  -47.5077 C.2       1 UNK         0.5000 
     66 O          -1.2058  -14.5655  -46.9631 O.2       1 UNK        -0.5000 
     67 C           0.7779  -20.9187  -48.4953 C.2       11 UNK         0.5000 
     68 O           0.6746  -21.3364  -49.6474 O.2       11 UNK        -0.5000 
     69 N          -0.2282  -20.3357  -47.8272 N.am      12 UNK        -0.5000 
     70 CA         -1.5910  -20.2114  -48.3410 C.3       12 UNK         0.1400 
     71 CB         -2.3342  -19.1132  -47.5665 C.3       12 UNK        -0.1800 
     72 C          -2.3727  -21.5366  -48.2952 C.2       12 UNK         0.5000 
     73 O          -3.1172  -21.8303  -49.2333 O.2       12 UNK        -0.5000 
     74 N          -2.1592  -22.3087  -47.2211 N.am      13 UNK        -0.5000 
     75 CA         -2.7344  -23.6202  -46.9142 C.3       13 UNK         0.1400 
     76 CB         -2.3406  -24.6564  -47.9885 C.3       13 UNK        -0.1800 
     77 C          -4.2569  -23.5917  -46.6618 C.2       13 UNK         0.5000 
     78 O          -4.8891  -22.5312  -46.6819 O.2       13 UNK        -0.5000 
     79 N          -4.8169  -24.7789  -46.3906 N.am      14 UNK        -0.5000 
     80 CA         -6.2409  -25.0091  -46.1490 C.3       14 UNK         0.1400 
     81 CB         -6.4606  -26.4888  -45.8004 C.3       14 UNK        -0.1800 
     82 C          -7.0979  -24.6062  -47.3613 C.2       14 UNK         0.5000 
     83 O          -6.7360  -24.9227  -48.4971 O.2       14 UNK        -0.5000 
     84 N          -8.1948  -23.8841  -47.0925 N.am      15 UNK        -0.5000 
     85 CA         -9.1526  -23.3339  -48.0630 C.3       15 UNK         0.1400 
     86 CB         -9.9414  -24.4747  -48.7400 C.3       15 UNK        -0.1800 
     87 C          -8.5279  -22.3646  -49.0946 C.2       15 UNK         0.5000 
     88 O          -9.1280  -22.1312  -50.1448 O.2       15 UNK        -0.5000 
     89 N          -7.3334  -21.8322  -48.7847 N.am      16 UNK        -0.5000 
     90 CA         -6.4790  -21.0017  -49.6397 C.3       16 UNK         0.1400 
     91 CB         -7.1613  -19.6508  -49.9425 C.3       16 UNK        -0.1800 
     92 C          -6.0081  -21.7273  -50.9209 C.2       16 UNK         0.5000 
     93 O          -5.7249  -21.0691  -51.9225 O.2       16 UNK        -0.5000 
     94 N          -5.9374  -23.0670  -50.8840 N.am      17 UNK        -0.5000 
     95 CA         -5.6434  -23.9126  -52.0422 C.3       17 UNK         0.1400 
     96 CB         -5.8270  -25.3873  -51.6558 C.3       17 UNK        -0.1800 
     97 C          -4.2472  -23.6805  -52.6451 C.2       17 UNK         0.5000 
     98 O          -4.1151  -23.6281  -53.8689 O.2       17 UNK        -0.5000 
     99 N          -3.2346  -23.5186  -51.7839 N.am      18 UNK        -0.5000 
    100 CA        -1.8610  -23.2551  -52.2085 C.3       18 UNK         0.1400 
    101 CB        -0.8745  -23.7317  -51.1371 C.3       18 UNK        -0.1800 
    102 C         -1.6458  -21.7791  -52.5858 C.2       18 UNK         0.5000 
    103 O         -0.8405  -21.5122  -53.4763 O.2       18 UNK        -0.5000 
    104 N         -2.4077  -20.8598  -51.9703 N.am      19 UNK        -0.5000 
    105 CA        -2.4800  -19.4481  -52.3625 C.3       19 UNK         0.1400 
    106 CB        -3.2831  -18.6300  -51.3350 C.3       19 UNK        -0.1800 
    107 C         -3.0658  -19.2636  -53.7739 C.2       19 UNK         0.5000 
    108 O         -2.5408  -18.4668  -54.5512 O.2       19 UNK        -0.5000 
    109 N         -4.1320  -20.0150  -54.0795 N.am      20 UNK        -0.5000 
    110 CA        -4.7856  -20.0371  -55.3867 C.3       20 UNK         0.1400 
    111 CB        -6.1103  -20.8082  -55.2802 C.3       20 UNK        -0.1800 
    112 C         -3.8926  -20.6321  -56.4913 C.2       20 UNK         0.5000 
    113 O         -3.8894  -20.1133  -57.6084 O.2       20 UNK        -0.5000 
    114 N         -3.1551  -21.7018  -56.1621 N.am      21 UNK        -0.5000 
    115 CA        -2.2205  -22.3686  -57.0671 C.3       21 UNK         0.1400 
    116 CB        -1.8917  -23.7689  -56.5230 C.3       21 UNK        -0.1800 
    117 C         -0.9428  -21.5399  -57.2966 C.2       21 UNK         0.5000 
    118 O         -0.6560  -21.1613  -58.4327 O.2       21 UNK        -0.5000 
    119 N         -0.2042  -21.2812  -56.2097 N.am      22 UNK        -0.5000 
    120 CA         1.0680  -20.5421  -56.1588 C.3       22 UNK         0.1400 
    121 C          2.2355  -21.1381  -57.0077 C.2       22 UNK         0.5000 
    122 N          2.2222  -22.4283  -57.3207 N.am      22 UNK        -0.7600 
    123 O          3.1788  -20.4400  -57.3696 O.2       22 UNK        -0.5000 
    124 C124        0.8625  -19.0096  -56.3397 C.3       23 UNK        -0.0398 
    125 S125        1.8864  -18.0339  -55.1828 S.3       23 UNK        -0.2404 
    126 C126        0.8555  -18.1661  -53.6904 C.3       23 UNK        -0.0205 
    127 H127       -5.3878  -17.8149  -48.2829 H         1 UNK         0.0600 
    128 H128       -6.7993  -16.8165  -48.6337 H         1 UNK         0.0600 
    129 H129       -6.1616  -16.8943  -46.9881 H         1 UNK         0.0600 
    130 H130       -3.3660  -16.8593  -48.5499 H         1 UNK         0.3000 
    131 H131       -3.1641  -14.1028  -49.4438 H         1 UNK         0.0600 
    132 H132       -1.8913  -16.0672  -50.4786 H         1 UNK         0.0800 
    133 H133       -0.8717  -16.0905  -49.0678 H         1 UNK         0.0800 
    134 H134        1.2342  -14.7038  -48.9528 H         1 UNK         0.0800 
    135 H135        1.8363  -13.8160  -50.3327 H         1 UNK         0.0800 
    136 H136        0.2448  -15.8930  -52.3505 H         1 UNK         0.1150 
    137 H137        2.9732  -19.1829  -52.3117 H         1 UNK         0.1150 
    138 H138        3.1675  -16.2173  -49.2232 H         1 UNK         0.1150 
    139 H139        5.1991  -18.5132  -50.8479 H         1 UNK         0.0800 
    140 H140        4.8095  -17.9261  -49.2516 H         1 UNK         0.0800 
    141 H141        2.5718  -18.9553  -48.0694 H         1 UNK         0.0800 
    142 H142        3.8342  -19.8298  -47.2479 H         1 UNK         0.0800 
    143 H143        2.5765  -21.9998  -48.1378 H         1 UNK         0.0600 
    144 H144        2.2490  -20.5752  -45.6911 H         1 UNK         0.3000 
    145 H145        0.4962  -23.2383  -44.0376 H         1 UNK         0.0600 
    146 H146        2.4040  -22.9920  -42.4913 H         1 UNK         0.0600 
    147 H147        2.9341  -23.8104  -43.9524 H         1 UNK         0.0600 
    148 H148        3.3270  -22.1122  -43.7081 H         1 UNK         0.0600 
    149 H149        1.3740  -20.7193  -43.0746 H         1 UNK         0.3000 
    150 H150       -1.5885  -18.8601  -43.9572 H         1 UNK         0.0600 
    151 H151       -2.0226  -19.9615  -41.7882 H         1 UNK         0.0600 
    152 H152       -1.3224  -18.3724  -41.5094 H         1 UNK         0.0600 
    153 H153       -0.3314  -19.8158  -41.3300 H         1 UNK         0.0600 
    154 H154        0.8117  -18.0012  -42.7217 H         1 UNK         0.3000 
    155 H155        2.6299  -17.1461  -45.6828 H         1 UNK         0.0600 
    156 H156        1.3001  -15.4903  -43.4681 H         1 UNK         0.0600 
    157 H157        1.0914  -15.2489  -45.1967 H         1 UNK         0.0600 
    158 H158        2.6645  -14.9843  -44.4612 H         1 UNK         0.0600 
    159 H159        3.1891  -17.0071  -42.8596 H         1 UNK         0.3000 
    160 H160        4.8786  -20.1593  -42.6458 H         1 UNK         0.0600 
    161 H161        5.8568  -17.2531  -42.5523 H         1 UNK         0.0600 
    162 H162        6.5106  -18.5156  -43.5892 H         1 UNK         0.0600 
    163 H163        6.6702  -18.6491  -41.8454 H         1 UNK         0.0600 
    164 H164        4.4022  -18.0955  -40.7275 H         1 UNK         0.3000 
    165 H165        1.2570  -19.2432  -39.5401 H         1 UNK         0.0600 
    166 H166        2.4888  -19.4236  -37.4017 H         1 UNK         0.0600 
    167 H167        2.8980  -20.7782  -38.4414 H         1 UNK         0.0600 
    168 H168        4.0328  -19.4464  -38.2547 H         1 UNK         0.0600 
    169 H169        2.9119  -17.2178  -38.5264 H         1 UNK         0.3000 
    170 H170        1.9995  -15.0455  -38.7183 H         1 UNK         0.0600 
    171 H171        4.2873  -15.2618  -39.7325 H         1 UNK         0.0600 
    172 H172        3.6537  -14.8055  -41.3109 H         1 UNK         0.0600 
    173 H173        3.6668  -13.6395  -39.9900 H         1 UNK         0.0600 
    174 H174        0.8172  -14.7406  -41.3839 H         1 UNK         0.3000 
    175 H175       -1.5812  -12.5978  -40.2517 H         1 UNK         0.0600 
    176 H176        0.6054  -11.4734  -42.0867 H         1 UNK         0.0600 
    177 H177       -1.0698  -10.9239  -42.0190 H         1 UNK         0.0600 
    178 H178       -0.0130  -10.6933  -40.6359 H         1 UNK         0.0600 
    179 H179       -0.8023  -13.2994  -42.9209 H         1 UNK         0.3000 
    180 H180       -1.2893  -16.0547  -43.4878 H         1 UNK         0.0600 
    181 H181       -3.5652  -16.8608  -44.1044 H         1 UNK         0.0600 
    182 H182       -4.2819  -15.8058  -42.8869 H         1 UNK         0.0600 
    183 H183       -3.2357  -17.1309  -42.4019 H         1 UNK         0.0600 
    184 H184       -1.6811  -14.6395  -45.1654 H         1 UNK         0.3000 
    185 H185       -3.9308  -11.9459  -45.7377 H         1 UNK         0.0600 
    186 H186       -1.7838  -11.0207  -46.5574 H         1 UNK         0.0600 
    187 H187       -1.8193  -11.0595  -44.8018 H         1 UNK         0.0600 
    188 H188       -0.8819  -12.2555  -45.6823 H         1 UNK         0.0600 
    189 H189       -4.0131  -13.2674  -47.4800 H         1 UNK         0.3000 
    190 H190       -0.0441  -19.9337  -46.9136 H         1 UNK         0.3000 
    191 H191       -1.5172  -19.9140  -49.3859 H         1 UNK         0.0600 
    192 H192       -3.3525  -19.0001  -47.9374 H         1 UNK         0.0600 
    193 H193       -1.8305  -18.1516  -47.6659 H         1 UNK         0.0600 
    194 H194       -2.3982  -19.3455  -46.5028 H         1 UNK         0.0600 
    195 H195       -1.6040  -21.9118  -46.4686 H         1 UNK         0.3000 
    196 H196       -2.2718  -23.9230  -45.9738 H         1 UNK         0.0600 
    197 H197       -2.8693  -24.4892  -48.9268 H         1 UNK         0.0600 
    198 H198       -1.2699  -24.6217  -48.1907 H         1 UNK         0.0600 
    199 H199       -2.5670  -25.6727  -47.6660 H         1 UNK         0.0600 
    200 H200       -4.2348  -25.6028  -46.4102 H         1 UNK         0.3000 
    201 H201       -6.5327  -24.4035  -45.2884 H         1 UNK         0.0600 
    202 H202       -6.1581  -27.1438  -46.6186 H         1 UNK         0.0600 
    203 H203       -7.5126  -26.6887  -45.5925 H         1 UNK         0.0600 
    204 H204       -5.8951  -26.7748  -44.9134 H         1 UNK         0.0600 
    205 H205       -8.3905  -23.6591  -46.1265 H         1 UNK         0.3000 
    206 H206       -9.8623  -22.7392  -47.4862 H         1 UNK         0.0600 
    207 H207      -10.3800  -25.1444  -48.0004 H         1 UNK         0.0600 
    208 H208      -10.7602  -24.0825  -49.3442 H         1 UNK         0.0600 
    209 H209       -9.3071  -25.0701  -49.3976 H         1 UNK         0.0600 
    210 H210       -6.9127  -22.1058  -47.9055 H         1 UNK         0.3000 
    211 H211       -5.5811  -20.7939  -49.0570 H         1 UNK         0.0600 
    212 H212       -6.4655  -18.9512  -50.4051 H         1 UNK         0.0600 
    213 H213       -7.5340  -19.1852  -49.0307 H         1 UNK         0.0600 
    214 H214       -8.0028  -19.7657  -50.6260 H         1 UNK         0.0600 
    215 H215       -6.1843  -23.5471  -50.0254 H         1 UNK         0.3000 
    216 H216       -6.3757  -23.6728  -52.8159 H         1 UNK         0.0600 
    217 H217       -5.1531  -25.6782  -50.8488 H         1 UNK         0.0600 
    218 H218       -5.6290  -26.0432  -52.5045 H         1 UNK         0.0600 
    219 H219       -6.8472  -25.5828  -51.3246 H         1 UNK         0.0600 
    220 H220       -3.4282  -23.4727  -50.7918 H         1 UNK         0.3000 
    221 H221       -1.6573  -23.8454  -53.1042 H         1 UNK         0.0600 
    222 H222       -0.9707  -24.8029  -50.9607 H         1 UNK         0.0600 
    223 H223       -1.0313  -23.2221  -50.1899 H         1 UNK         0.0600 
    224 H224        0.1551  -23.5417  -51.4429 H         1 UNK         0.0600 
    225 H225       -3.0250  -21.1708  -51.2296 H         1 UNK         0.3000 
    226 H226       -1.4647  -19.0524  -52.3736 H         1 UNK         0.0600 
    227 H227       -4.1931  -19.1406  -51.0275 H         1 UNK         0.0600 
    228 H228       -2.6973  -18.4222  -50.4439 H         1 UNK         0.0600 
    229 H229       -3.5755  -17.6606  -51.7415 H         1 UNK         0.0600 
    230 H230       -4.5540  -20.5833  -53.3493 H         1 UNK         0.3000 
    231 H231       -5.0151  -19.0062  -55.6641 H         1 UNK         0.0600 
    232 H232       -5.9512  -21.8422  -54.9723 H         1 UNK         0.0600 
    233 H233       -6.6311  -20.8258  -56.2383 H         1 UNK         0.0600 
    234 H234       -6.7783  -20.3441  -54.5544 H         1 UNK         0.0600 
    235 H235       -3.2578  -22.0955  -55.2350 H         1 UNK         0.3000 
    236 H236       -2.7120  -22.4972  -58.0339 H         1 UNK         0.0600 
    237 H237       -2.7915  -24.3795  -56.4443 H         1 UNK         0.0600 
    238 H238       -1.2005  -24.2928  -57.1843 H         1 UNK         0.0600 
    239 H239       -1.4342  -23.7260  -55.5345 H         1 UNK         0.0600 
    240 H240       -0.5448  -21.5828  -55.2998 H         1 UNK         0.3000 
    241 H241        1.4012  -20.7124  -55.1352 H         1 UNK         0.0600 
    242 H242        2.9790  -22.8148  -57.8629 H         1 UNK         0.3800 
    243 H243        1.4634  -23.0209  -57.0249 H         1 UNK         0.3800 
    244 H244       -0.1800  -18.7370  -56.1667 H         1 UNK         0.0800 
    245 H245        1.0745  -18.6990  -57.3640 H         1 UNK         0.0800 
    246 H246       -0.0913  -17.6576  -53.8751 H         1 UNK         0.0800 
    247 H247        0.6155  -19.2130  -53.5040 H         1 UNK         0.0800 
@<TRIPOS>BOND
     1    1    2 1    
     2    1  127 1    
     3    1  128 1    
     4    1  129 1    
     5    2    3 2    
     6    2    4 am   BACKBONE|DICT|INTERRES
     7    4    5 1    
     8    4  130 1    
     9    5    6 1    
    10    5   65 1    
    11    5  131 1    
    12    6    7 1    
    13    6  132 1    
    14    6  133 1    
    15    7    8 1    
    16    8    9 1    
    17    8  134 1    
    18    8  135 1    
    19    9   10 ar   
    20    9   14 ar   
    21   10   11 ar   
    22   10  136 1    
    23   11   12 ar   
    24   11  126 1    
    25   12   13 ar   
    26   12  137 1    
    27   13   14 ar   
    28   13   15 1    
    29   14  138 1    
    30   15   16 1    
    31   15  139 1    
    32   15  140 1    
    33   16   17 1    
    34   17   18 1    
    35   17  141 1    
    36   17  142 1    
    37   18   19 1    
    38   18   67 1    
    39   18  143 1    
    40   19   20 am   BACKBONE|DICT|INTERRES
    41   19  144 1    
    42   20   21 2    
    43   20   22 1    
    44   22   23 1    
    45   22   24 1    
    46   22  145 1    
    47   23  146 1    
    48   23  147 1    
    49   23  148 1    
    50   24   25 am   BACKBONE|DICT|INTERRES
    51   24  149 1    
    52   25   26 2    
    53   25   27 1    
    54   27   28 1    
    55   27   29 1    
    56   27  150 1    
    57   28  151 1    
    58   28  152 1    
    59   28  153 1    
    60   29   30 am   BACKBONE|DICT|INTERRES
    61   29  154 1    
    62   30   31 2    
    63   30   32 1    
    64   32   33 1    
    65   32   34 1    
    66   32  155 1    
    67   33  156 1    
    68   33  157 1    
    69   33  158 1    
    70   34   35 am   BACKBONE|DICT|INTERRES
    71   34  159 1    
    72   35   36 2    
    73   35   37 1    
    74   37   38 1    
    75   37   39 1    
    76   37  160 1    
    77   38  161 1    
    78   38  162 1    
    79   38  163 1    
    80   39   40 am   BACKBONE|DICT|INTERRES
    81   39  164 1    
    82   40   41 2    
    83   40   42 1    
    84   42   43 1    
    85   42   44 1    
    86   42  165 1    
    87   43  166 1    
    88   43  167 1    
    89   43  168 1    
    90   44   45 am   BACKBONE|DICT|INTERRES
    91   44  169 1    
    92   45   46 2    
    93   45   47 1    
    94   47   48 1    
    95   47   49 1    
    96   47  170 1    
    97   48  171 1    
    98   48  172 1    
    99   48  173 1    
   100   49   50 am   BACKBONE|DICT|INTERRES
   101   49  174 1    
   102   50   51 2    
   103   50   52 1    
   104   52   53 1    
   105   52   54 1    
   106   52  175 1    
   107   53  176 1    
   108   53  177 1    
   109   53  178 1    
   110   54   55 am   BACKBONE|DICT|INTERRES
   111   54  179 1    
   112   55   56 2    
   113   55   57 1    
   114   57   58 1    
   115   57   59 1    
   116   57  180 1    
   117   58  181 1    
   118   58  182 1    
   119   58  183 1    
   120   59   60 am   BACKBONE|DICT|INTERRES
   121   59  184 1    
   122   60   61 2    
   123   60   62 1    
   124   62   63 1    
   125   62   64 1    
   126   62  185 1    
   127   63  186 1    
   128   63  187 1    
   129   63  188 1    
   130   64   65 am   BACKBONE|DICT|INTERRES
   131   64  189 1    
   132   65   66 2    
   133   67   68 2    
   134   67   69 am   BACKBONE|DICT|INTERRES
   135   69   70 1    
   136   69  190 1    
   137   70   71 1    
   138   70   72 1    
   139   70  191 1    
   140   71  192 1    
   141   71  193 1    
   142   71  194 1    
   143   72   73 2    
   144   72   74 am   BACKBONE|DICT|INTERRES
   145   74   75 1    
   146   74  195 1    
   147   75   76 1    
   148   75   77 1    
   149   75  196 1    
   150   76  197 1    
   151   76  198 1    
   152   76  199 1    
   153   77   78 2    
   154   77   79 am   BACKBONE|DICT|INTERRES
   155   79   80 1    
   156   79  200 1    
   157   80   81 1    
   158   80   82 1    
   159   80  201 1    
   160   81  202 1    
   161   81  203 1    
   162   81  204 1    
   163   82   83 2    
   164   82   84 am   BACKBONE|DICT|INTERRES
   165   84   85 1    
   166   84  205 1    
   167   85   86 1    
   168   85   87 1    
   169   85  206 1    
   170   86  207 1    
   171   86  208 1    
   172   86  209 1    
   173   87   88 2    
   174   87   89 am   BACKBONE|DICT|INTERRES
   175   89   90 1    
   176   89  210 1    
   177   90   91 1    
   178   90   92 1    
   179   90  211 1    
   180   91  212 1    
   181   91  213 1    
   182   91  214 1    
   183   92   93 2    
   184   92   94 am   BACKBONE|DICT|INTERRES
   185   94   95 1    
   186   94  215 1    
   187   95   96 1    
   188   95   97 1    
   189   95  216 1    
   190   96  217 1    
   191   96  218 1    
   192   96  219 1    
   193   97   98 2    
   194   97   99 am   BACKBONE|DICT|INTERRES
   195   99  100 1    
   196   99  220 1    
   197  100  101 1    
   198  100  102 1    
   199  100  221 1    
   200  101  222 1    
   201  101  223 1    
   202  101  224 1    
   203  102  103 2    
   204  102  104 am   BACKBONE|DICT|INTERRES
   205  104  105 1    
   206  104  225 1    
   207  105  106 1    
   208  105  107 1    
   209  105  226 1    
   210  106  227 1    
   211  106  228 1    
   212  106  229 1    
   213  107  108 2    
   214  107  109 am   BACKBONE|DICT|INTERRES
   215  109  110 1    
   216  109  230 1    
   217  110  111 1    
   218  110  112 1    
   219  110  231 1    
   220  111  232 1    
   221  111  233 1    
   222  111  234 1    
   223  112  113 2    
   224  112  114 am   BACKBONE|DICT|INTERRES
   225  114  115 1    
   226  114  235 1    
   227  115  116 1    
   228  115  117 1    
   229  115  236 1    
   230  116  237 1    
   231  116  238 1    
   232  116  239 1    
   233  117  118 2    
   234  117  119 am   BACKBONE|DICT|INTERRES
   235  119  120 1    
   236  119  240 1    
   237  120  121 1    
   238  120  124 1    
   239  120  241 1    
   240  121  122 am   BACKBONE|DICT|INTERRES
   241  121  123 2    
   242  122  242 1    
   243  122  243 1    
   244  124  125 1    
   245  124  244 1    
   246  124  245 1    
   247  125  126 1    
   248  126  246 1    
   249  126  247 1    
@<TRIPOS>SUBSTRUCTURE
     1 UNK         1 GROUP             0       ****    0 ROOT    
