@<TRIPOS>MOLECULE
3R540
247   249    1
SMALL
USER_CHARGES


@<TRIPOS>ATOM
      1 CA          2.2467  -12.1409  -49.5946 C.3       0 UNK        -0.1800 
      2 C           1.0910  -12.9907  -49.0849 C.2       0 UNK         0.5000 
      3 O           1.2826  -13.7918  -48.1699 O.2       0 UNK        -0.5000 
      4 N          -0.0959  -12.8142  -49.6811 N.am      1 UNK        -0.5000 
      5 CA         -1.3471  -13.5394  -49.4229 C.3       1 UNK         0.1400 
      6 C6         -2.4847  -13.0601  -50.3658 C.3       23 UNK        -0.0398 
      7 S7         -2.0378  -13.1497  -52.1369 S.3       23 UNK        -0.2404 
      8 C8         -3.4403  -14.0825  -52.8491 C.3       23 UNK        -0.0205 
      9 C9         -3.5589  -15.5467  -52.4224 C.ar      23 UNK        -0.0193 
     10 C10        -4.7743  -16.2083  -52.6317 C.ar      23 UNK        -0.1150 
     11 C11        -4.9318  -17.5497  -52.2707 C.ar      23 UNK        -0.0193 
     12 C12        -3.8665  -18.2316  -51.6792 C.ar      23 UNK        -0.1150 
     13 C13        -2.6474  -17.5864  -51.4637 C.ar      23 UNK        -0.0193 
     14 C14        -2.4929  -16.2551  -51.8537 C.ar      23 UNK        -0.1150 
     15 C15        -1.4928  -18.3217  -50.8076 C.3       23 UNK        -0.0205 
     16 S16        -1.2663  -17.8099  -49.0734 S.3       23 UNK        -0.2404 
     17 C17        -2.8425  -18.3189  -48.2953 C.3       23 UNK        -0.0398 
     18 CA         -2.9713  -19.8519  -48.1277 C.3       11 UNK         0.1400 
     19 N          -1.8918  -20.4114  -47.3111 N.am      11 UNK        -0.5000 
     20 C          -1.6162  -21.7141  -47.2091 C.2       10 UNK         0.5000 
     21 O          -2.3461  -22.5934  -47.6640 O.2       10 UNK        -0.5000 
     22 CA         -0.3370  -22.1039  -46.4483 C.3       10 UNK         0.1400 
     23 CB          0.9312  -21.5095  -47.0797 C.3       10 UNK        -0.1800 
     24 N          -0.4119  -21.7171  -45.0456 N.am      10 UNK        -0.5000 
     25 C          -1.2392  -22.2678  -44.1485 C.2       9 UNK         0.5000 
     26 O          -1.9546  -23.2431  -44.3861 O.2       9 UNK        -0.5000 
     27 CA         -1.3036  -21.5855  -42.7670 C.3       9 UNK         0.1400 
     28 CB         -0.2158  -22.1419  -41.8369 C.3       9 UNK        -0.1800 
     29 N          -1.1831  -20.1250  -42.8380 N.am      9 UNK        -0.5000 
     30 C          -2.0345  -19.3287  -43.5016 C.2       8 UNK         0.5000 
     31 O          -3.0264  -19.7392  -44.0976 O.2       8 UNK        -0.5000 
     32 CA         -1.6857  -17.8352  -43.5835 C.3       8 UNK         0.1400 
     33 CB         -2.0232  -17.1036  -42.2768 C.3       8 UNK        -0.1800 
     34 N          -0.2839  -17.6184  -43.9312 N.am      8 UNK        -0.5000 
     35 C           0.2761  -17.9846  -45.0908 C.2       7 UNK         0.5000 
     36 O          -0.3517  -18.5008  -46.0091 O.2       7 UNK        -0.5000 
     37 CA          1.7901  -17.7722  -45.2403 C.3       7 UNK         0.1400 
     38 CB          2.1003  -16.3401  -45.7009 C.3       7 UNK        -0.1800 
     39 N           2.5036  -18.0674  -43.9988 N.am      7 UNK        -0.5000 
     40 C           2.6341  -19.2976  -43.4813 C.2       6 UNK         0.5000 
     41 O           2.2107  -20.3180  -44.0249 O.2       6 UNK        -0.5000 
     42 CA          3.3161  -19.3931  -42.1045 C.3       6 UNK         0.1400 
     43 CB          4.8447  -19.3922  -42.2539 C.3       6 UNK        -0.1800 
     44 N           2.9141  -18.3078  -41.2071 N.am      6 UNK        -0.5000 
     45 C           1.6826  -18.1713  -40.6955 C.2       5 UNK         0.5000 
     46 O           0.7651  -18.9665  -40.9015 O.2       5 UNK        -0.5000 
     47 CA          1.4216  -16.9058  -39.8541 C.3       5 UNK         0.1400 
     48 CB          1.8773  -17.1187  -38.4029 C.3       5 UNK        -0.1800 
     49 N           2.0530  -15.6934  -40.3917 N.am      5 UNK        -0.5000 
     50 C           1.8036  -15.1853  -41.6053 C.2       4 UNK         0.5000 
     51 O           1.0520  -15.7204  -42.4224 O.2       4 UNK        -0.5000 
     52 CA          2.5294  -13.8902  -41.9926 C.3       4 UNK         0.1400 
     53 CB          4.0183  -14.1529  -42.2763 C.3       4 UNK        -0.1800 
     54 N           1.8944  -13.3654  -43.1965 N.am      4 UNK        -0.5000 
     55 C           1.7545  -12.0804  -43.5299 C.2       3 UNK         0.5000 
     56 O           2.2093  -11.1521  -42.8599 O.2       3 UNK        -0.5000 
     57 CA          0.9856  -11.7690  -44.8322 C.3       3 UNK         0.1400 
     58 CB          1.9430  -11.2287  -45.9046 C.3       3 UNK        -0.1800 
     59 N           0.2431  -12.9054  -45.3935 N.am      3 UNK        -0.5000 
     60 C          -0.9086  -13.3836  -44.8983 C.2       2 UNK         0.5000 
     61 O          -1.4298  -12.9525  -43.8688 O.2       2 UNK        -0.5000 
     62 CA         -1.5845  -14.5295  -45.6877 C.3       2 UNK         0.1400 
     63 CB         -3.0762  -14.7120  -45.3395 C.3       2 UNK        -0.1800 
     64 N          -1.3998  -14.4376  -47.1404 N.am      2 UNK        -0.5000 
     65 C          -1.7727  -13.4285  -47.9420 C.2       1 UNK         0.5000 
     66 O          -2.3829  -12.4291  -47.5572 O.2       1 UNK        -0.5000 
     67 C          -4.3888  -20.2480  -47.6601 C.2       11 UNK         0.5000 
     68 O          -5.2928  -20.2800  -48.4941 O.2       11 UNK        -0.5000 
     69 N          -4.5711  -20.5608  -46.3702 N.am      12 UNK        -0.5000 
     70 CA         -5.8539  -20.9979  -45.8185 C.3       12 UNK         0.1400 
     71 CB         -6.0079  -20.4576  -44.3876 C.3       12 UNK        -0.1800 
     72 C          -6.0411  -22.5267  -45.8222 C.2       12 UNK         0.5000 
     73 O          -7.1724  -22.9680  -45.6112 O.2       12 UNK        -0.5000 
     74 N          -4.9737  -23.3201  -46.0165 N.am      13 UNK        -0.5000 
     75 CA         -5.0471  -24.7763  -45.8704 C.3       13 UNK         0.1400 
     76 CB         -5.0228  -25.1722  -44.3796 C.3       13 UNK        -0.1800 
     77 C          -3.9766  -25.5365  -46.6653 C.2       13 UNK         0.5000 
     78 O          -4.3290  -26.3002  -47.5648 O.2       13 UNK        -0.5000 
     79 N          -2.7013  -25.3821  -46.2848 N.am      14 UNK        -0.5000 
     80 CA         -1.6179  -26.2770  -46.7145 C.3       14 UNK         0.1400 
     81 CB         -0.4619  -26.1920  -45.7034 C.3       14 UNK        -0.1800 
     82 C          -1.1197  -26.0815  -48.1639 C.2       14 UNK         0.5000 
     83 O          -0.3896  -26.9447  -48.6531 O.2       14 UNK        -0.5000 
     84 N          -1.5213  -24.9767  -48.8089 N.am      15 UNK        -0.5000 
     85 CA         -1.1097  -24.4507  -50.1167 C.3       15 UNK         0.1400 
     86 CB         -1.2482  -25.4911  -51.2453 C.3       15 UNK        -0.1800 
     87 C           0.2994  -23.8316  -50.0794 C.2       15 UNK         0.5000 
     88 O           1.1730  -24.3026  -49.3479 O.2       15 UNK        -0.5000 
     89 N           0.4912  -22.7660  -50.8637 N.am      16 UNK        -0.5000 
     90 CA          1.7499  -22.0353  -50.9833 C.3       16 UNK         0.1400 
     91 CB          1.4539  -20.5319  -50.8209 C.3       16 UNK        -0.1800 
     92 C           2.3862  -22.3061  -52.3555 C.2       16 UNK         0.5000 
     93 O           1.7441  -22.8667  -53.2469 O.2       16 UNK        -0.5000 
     94 N           3.6324  -21.8473  -52.5236 N.am      17 UNK        -0.5000 
     95 CA          4.3105  -21.7990  -53.8222 C.3       17 UNK         0.1400 
     96 CB          5.8104  -21.5518  -53.5992 C.3       17 UNK        -0.1800 
     97 C           3.7149  -20.7195  -54.7507 C.2       17 UNK         0.5000 
     98 O           3.7812  -20.8626  -55.9719 O.2       17 UNK        -0.5000 
     99 N           3.1441  -19.6637  -54.1513 N.am      18 UNK        -0.5000 
    100 CA         2.4937  -18.5528  -54.8431 C.3       18 UNK         0.1400 
    101 CB         2.3072  -17.3884  -53.8567 C.3       18 UNK        -0.1800 
    102 C          1.1436  -18.9406  -55.4727 C.2       18 UNK         0.5000 
    103 O          0.8430  -18.4830  -56.5762 O.2       18 UNK        -0.5000 
    104 N          0.3574  -19.7646  -54.7680 N.am      19 UNK        -0.5000 
    105 CA        -0.9825  -20.1911  -55.1596 C.3       19 UNK         0.1400 
    106 CB        -1.9704  -19.0089  -55.0738 C.3       19 UNK        -0.1800 
    107 C         -1.4546  -21.3307  -54.2472 C.2       19 UNK         0.5000 
    108 O         -1.0087  -21.4351  -53.1001 O.2       19 UNK        -0.5000 
    109 N         -2.3953  -22.1320  -54.7629 N.am      20 UNK        -0.5000 
    110 CA        -3.1604  -23.1167  -53.9977 C.3       20 UNK         0.1400 
    111 CB        -3.9935  -23.9656  -54.9702 C.3       20 UNK        -0.1800 
    112 C         -4.0672  -22.4356  -52.9546 C.2       20 UNK         0.5000 
    113 O         -4.4274  -21.2702  -53.1277 O.2       20 UNK        -0.5000 
    114 N         -4.4145  -23.1711  -51.8923 N.am      21 UNK        -0.5000 
    115 CA        -5.2050  -22.6657  -50.7698 C.3       21 UNK         0.1400 
    116 CB        -5.2176  -23.7192  -49.6540 C.3       21 UNK        -0.1800 
    117 C         -6.6434  -22.2616  -51.1539 C.2       21 UNK         0.5000 
    118 O         -7.2249  -22.8407  -52.0753 O.2       21 UNK        -0.5000 
    119 N         -7.1938  -21.2971  -50.4136 N.am      22 UNK        -0.5000 
    120 CA        -8.5399  -20.7371  -50.5901 C.3       22 UNK         0.1400 
    121 C         -9.2288  -20.4279  -49.2322 C.2       22 UNK         0.5000 
    122 N        -10.5298  -20.1673  -49.2369 N.am      22 UNK        -0.7600 
    123 O         -8.6102  -20.4230  -48.1714 O.2       22 UNK        -0.5000 
    124 C124       -8.5503  -19.5226  -51.5611 C.3       23 UNK        -0.0398 
    125 S125       -7.3694  -18.1937  -51.1203 S.3       23 UNK        -0.2404 
    126 C126       -6.2388  -18.2762  -52.5414 C.3       23 UNK        -0.0205 
    127 H127        3.0127  -12.7799  -50.0335 H         1 UNK         0.0600 
    128 H128        2.6992  -11.5823  -48.7762 H         1 UNK         0.0600 
    129 H129        1.9228  -11.4280  -50.3533 H         1 UNK         0.0600 
    130 H130       -0.1621  -12.1305  -50.4214 H         1 UNK         0.3000 
    131 H131       -1.1574  -14.5926  -49.6386 H         1 UNK         0.0600 
    132 H132       -2.7546  -12.0246  -50.1505 H         1 UNK         0.0800 
    133 H133       -3.3865  -13.6498  -50.1915 H         1 UNK         0.0800 
    134 H134       -3.3492  -14.0539  -53.9356 H         1 UNK         0.0800 
    135 H135       -4.3631  -13.5541  -52.6045 H         1 UNK         0.0800 
    136 H136       -5.6009  -15.6797  -53.0856 H         1 UNK         0.1150 
    137 H137       -3.9887  -19.2663  -51.3905 H         1 UNK         0.1150 
    138 H138       -1.5359  -15.7803  -51.6988 H         1 UNK         0.1150 
    139 H139       -1.6323  -19.4019  -50.8674 H         1 UNK         0.0800 
    140 H140       -0.5755  -18.1078  -51.3575 H         1 UNK         0.0800 
    141 H141       -2.9038  -17.8326  -47.3202 H         1 UNK         0.0800 
    142 H142       -3.6699  -17.9161  -48.8813 H         1 UNK         0.0800 
    143 H143       -2.8657  -20.2979  -49.1181 H         1 UNK         0.0600 
    144 H144       -1.2723  -19.7323  -46.8683 H         1 UNK         0.3000 
    145 H145       -0.2459  -23.1874  -46.5032 H         1 UNK         0.0600 
    146 H146        1.8225  -21.8176  -46.5328 H         1 UNK         0.0600 
    147 H147        1.0503  -21.8545  -48.1034 H         1 UNK         0.0600 
    148 H148        0.9180  -20.4217  -47.1052 H         1 UNK         0.0600 
    149 H149        0.1660  -20.9379  -44.7561 H         1 UNK         0.3000 
    150 H150       -2.2780  -21.8172  -42.3325 H         1 UNK         0.0600 
    151 H151       -0.2939  -23.2262  -41.7483 H         1 UNK         0.0600 
    152 H152       -0.3048  -21.7253  -40.8334 H         1 UNK         0.0600 
    153 H153        0.7844  -21.9123  -42.2059 H         1 UNK         0.0600 
    154 H154       -0.4016  -19.7047  -42.3438 H         1 UNK         0.3000 
    155 H155       -2.2955  -17.4024  -44.3786 H         1 UNK         0.0600 
    156 H156       -1.8143  -16.0366  -42.3574 H         1 UNK         0.0600 
    157 H157       -1.4507  -17.4931  -41.4355 H         1 UNK         0.0600 
    158 H158       -3.0806  -17.2118  -42.0327 H         1 UNK         0.0600 
    159 H159        0.2861  -17.1271  -43.2461 H         1 UNK         0.3000 
    160 H160        2.1487  -18.4588  -46.0102 H         1 UNK         0.0600 
    161 H161        1.7506  -15.5970  -44.9869 H         1 UNK         0.0600 
    162 H162        1.6160  -16.1282  -46.6551 H         1 UNK         0.0600 
    163 H163        3.1710  -16.1925  -45.8419 H         1 UNK         0.0600 
    164 H164        2.8351  -17.2794  -43.4640 H         1 UNK         0.3000 
    165 H165        3.0177  -20.3406  -41.6504 H         1 UNK         0.0600 
    166 H166        5.2093  -18.4571  -42.6811 H         1 UNK         0.0600 
    167 H167        5.3347  -19.5349  -41.2905 H         1 UNK         0.0600 
    168 H168        5.1728  -20.2018  -42.9072 H         1 UNK         0.0600 
    169 H169        3.6089  -17.6093  -40.9883 H         1 UNK         0.3000 
    170 H170        0.3429  -16.7372  -39.8475 H         1 UNK         0.0600 
    171 H171        1.4086  -18.0048  -37.9725 H         1 UNK         0.0600 
    172 H172        2.9576  -17.2524  -38.3343 H         1 UNK         0.0600 
    173 H173        1.6029  -16.2709  -37.7749 H         1 UNK         0.0600 
    174 H174        2.6893  -15.2068  -39.7766 H         1 UNK         0.3000 
    175 H175        2.4234  -13.1782  -41.1717 H         1 UNK         0.0600 
    176 H176        4.5308  -13.2348  -42.5644 H         1 UNK         0.0600 
    177 H177        4.5271  -14.5428  -41.3941 H         1 UNK         0.0600 
    178 H178        4.1526  -14.8757  -43.0822 H         1 UNK         0.0600 
    179 H179        1.4136  -14.0641  -43.7463 H         1 UNK         0.3000 
    180 H180        0.2695  -10.9793  -44.5957 H         1 UNK         0.0600 
    181 H181        1.3930  -10.8874  -46.7814 H         1 UNK         0.0600 
    182 H182        2.5141  -10.3772  -45.5325 H         1 UNK         0.0600 
    183 H183        2.6564  -11.9893  -46.2245 H         1 UNK         0.0600 
    184 H184        0.6023  -13.2991  -46.2577 H         1 UNK         0.3000 
    185 H185       -1.0661  -15.4352  -45.3822 H         1 UNK         0.0600 
    186 H186       -3.5072  -15.5528  -45.8830 H         1 UNK         0.0600 
    187 H187       -3.2100  -14.9124  -44.2760 H         1 UNK         0.0600 
    188 H188       -3.6592  -13.8225  -45.5794 H         1 UNK         0.0600 
    189 H189       -0.8526  -15.1814  -47.5533 H         1 UNK         0.3000 
    190 H190       -3.8067  -20.4530  -45.7086 H         1 UNK         0.3000 
    191 H191       -6.6657  -20.5704  -46.4085 H         1 UNK         0.0600 
    192 H192       -7.0125  -20.6460  -44.0072 H         1 UNK         0.0600 
    193 H193       -5.8436  -19.3806  -44.3491 H         1 UNK         0.0600 
    194 H194       -5.3076  -20.9331  -43.7001 H         1 UNK         0.0600 
    195 H195       -4.0720  -22.9203  -46.2486 H         1 UNK         0.3000 
    196 H196       -6.0014  -25.1145  -46.2810 H         1 UNK         0.0600 
    197 H197       -5.0069  -26.2564  -44.2608 H         1 UNK         0.0600 
    198 H198       -5.9065  -24.8057  -43.8574 H         1 UNK         0.0600 
    199 H199       -4.1470  -24.7722  -43.8685 H         1 UNK         0.0600 
    200 H200       -2.4778  -24.7054  -45.5590 H         1 UNK         0.3000 
    201 H201       -2.0017  -27.2986  -46.6666 H         1 UNK         0.0600 
    202 H202       -0.8005  -26.4460  -44.6988 H         1 UNK         0.0600 
    203 H203       -0.0212  -25.1984  -45.6622 H         1 UNK         0.0600 
    204 H204        0.3354  -26.8904  -45.9606 H         1 UNK         0.0600 
    205 H205       -2.0704  -24.3153  -48.2647 H         1 UNK         0.3000 
    206 H206       -1.8094  -23.6408  -50.3298 H         1 UNK         0.0600 
    207 H207       -2.2603  -25.8928  -51.2924 H         1 UNK         0.0600 
    208 H208       -1.0237  -25.0434  -52.2131 H         1 UNK         0.0600 
    209 H209       -0.5583  -26.3256  -51.1234 H         1 UNK         0.0600 
    210 H210       -0.2264  -22.4750  -51.5212 H         1 UNK         0.3000 
    211 H211        2.4565  -22.3403  -50.2088 H         1 UNK         0.0600 
    212 H212        0.8636  -20.1446  -51.6510 H         1 UNK         0.0600 
    213 H213        2.3743  -19.9494  -50.7733 H         1 UNK         0.0600 
    214 H214        0.9000  -20.3284  -49.9046 H         1 UNK         0.0600 
    215 H215        4.1156  -21.4232  -51.7446 H         1 UNK         0.3000 
    216 H216        4.1929  -22.7662  -54.3157 H         1 UNK         0.0600 
    217 H217        6.3478  -21.5345  -54.5483 H         1 UNK         0.0600 
    218 H218        6.2538  -22.3402  -52.9907 H         1 UNK         0.0600 
    219 H219        5.9932  -20.5988  -53.1012 H         1 UNK         0.0600 
    220 H220        3.1569  -19.6235  -53.1442 H         1 UNK         0.3000 
    221 H221        3.1532  -18.2165  -55.6462 H         1 UNK         0.0600 
    222 H222        1.6747  -17.6692  -53.0134 H         1 UNK         0.0600 
    223 H223        3.2645  -17.0494  -53.4605 H         1 UNK         0.0600 
    224 H224        1.8387  -16.5336  -54.3464 H         1 UNK         0.0600 
    225 H225        0.6781  -20.1517  -53.8909 H         1 UNK         0.3000 
    226 H226       -0.9445  -20.5637  -56.1853 H         1 UNK         0.0600 
    227 H227       -1.7330  -18.2291  -55.7968 H         1 UNK         0.0600 
    228 H228       -2.9931  -19.3304  -55.2754 H         1 UNK         0.0600 
    229 H229       -1.9627  -18.5569  -54.0821 H         1 UNK         0.0600 
    230 H230       -2.7281  -21.9463  -55.6973 H         1 UNK         0.3000 
    231 H231       -2.4552  -23.7655  -53.4779 H         1 UNK         0.0600 
    232 H232       -4.5538  -24.7354  -54.4380 H         1 UNK         0.0600 
    233 H233       -3.3580  -24.4722  -55.6968 H         1 UNK         0.0600 
    234 H234       -4.7138  -23.3572  -55.5187 H         1 UNK         0.0600 
    235 H235       -4.1400  -24.1405  -51.8480 H         1 UNK         0.3000 
    236 H236       -4.6865  -21.7795  -50.4044 H         1 UNK         0.0600 
    237 H237       -5.6639  -24.6568  -49.9870 H         1 UNK         0.0600 
    238 H238       -4.2088  -23.9315  -49.3028 H         1 UNK         0.0600 
    239 H239       -5.7910  -23.3700  -48.7951 H         1 UNK         0.0600 
    240 H240       -6.6602  -20.8867  -49.6482 H         1 UNK         0.3000 
    241 H241       -9.1608  -21.5164  -51.0364 H         1 UNK         0.0600 
    242 H242      -10.9873  -19.9657  -48.3613 H         1 UNK         0.3800 
    243 H243      -11.0732  -20.1748  -50.0861 H         1 UNK         0.3800 
    244 H244       -9.5473  -19.0848  -51.6259 H         1 UNK         0.0800 
    245 H245       -8.3339  -19.8776  -52.5694 H         1 UNK         0.0800 
    246 H246       -6.0306  -19.3195  -52.7765 H         1 UNK         0.0800 
    247 H247       -6.7309  -17.8573  -53.4203 H         1 UNK         0.0800 
@<TRIPOS>BOND
     1    1    2 1    
     2    1  127 1    
     3    1  128 1    
     4    1  129 1    
     5    2    3 2    
     6    2    4 am   BACKBONE|DICT|INTERRES
     7    4    5 1    
     8    4  130 1    
     9    5    6 1    
    10    5   65 1    
    11    5  131 1    
    12    6    7 1    
    13    6  132 1    
    14    6  133 1    
    15    7    8 1    
    16    8    9 1    
    17    8  134 1    
    18    8  135 1    
    19    9   10 ar   
    20    9   14 ar   
    21   10   11 ar   
    22   10  136 1    
    23   11   12 ar   
    24   11  126 1    
    25   12   13 ar   
    26   12  137 1    
    27   13   14 ar   
    28   13   15 1    
    29   14  138 1    
    30   15   16 1    
    31   15  139 1    
    32   15  140 1    
    33   16   17 1    
    34   17   18 1    
    35   17  141 1    
    36   17  142 1    
    37   18   19 1    
    38   18   67 1    
    39   18  143 1    
    40   19   20 am   BACKBONE|DICT|INTERRES
    41   19  144 1    
    42   20   21 2    
    43   20   22 1    
    44   22   23 1    
    45   22   24 1    
    46   22  145 1    
    47   23  146 1    
    48   23  147 1    
    49   23  148 1    
    50   24   25 am   BACKBONE|DICT|INTERRES
    51   24  149 1    
    52   25   26 2    
    53   25   27 1    
    54   27   28 1    
    55   27   29 1    
    56   27  150 1    
    57   28  151 1    
    58   28  152 1    
    59   28  153 1    
    60   29   30 am   BACKBONE|DICT|INTERRES
    61   29  154 1    
    62   30   31 2    
    63   30   32 1    
    64   32   33 1    
    65   32   34 1    
    66   32  155 1    
    67   33  156 1    
    68   33  157 1    
    69   33  158 1    
    70   34   35 am   BACKBONE|DICT|INTERRES
    71   34  159 1    
    72   35   36 2    
    73   35   37 1    
    74   37   38 1    
    75   37   39 1    
    76   37  160 1    
    77   38  161 1    
    78   38  162 1    
    79   38  163 1    
    80   39   40 am   BACKBONE|DICT|INTERRES
    81   39  164 1    
    82   40   41 2    
    83   40   42 1    
    84   42   43 1    
    85   42   44 1    
    86   42  165 1    
    87   43  166 1    
    88   43  167 1    
    89   43  168 1    
    90   44   45 am   BACKBONE|DICT|INTERRES
    91   44  169 1    
    92   45   46 2    
    93   45   47 1    
    94   47   48 1    
    95   47   49 1    
    96   47  170 1    
    97   48  171 1    
    98   48  172 1    
    99   48  173 1    
   100   49   50 am   BACKBONE|DICT|INTERRES
   101   49  174 1    
   102   50   51 2    
   103   50   52 1    
   104   52   53 1    
   105   52   54 1    
   106   52  175 1    
   107   53  176 1    
   108   53  177 1    
   109   53  178 1    
   110   54   55 am   BACKBONE|DICT|INTERRES
   111   54  179 1    
   112   55   56 2    
   113   55   57 1    
   114   57   58 1    
   115   57   59 1    
   116   57  180 1    
   117   58  181 1    
   118   58  182 1    
   119   58  183 1    
   120   59   60 am   BACKBONE|DICT|INTERRES
   121   59  184 1    
   122   60   61 2    
   123   60   62 1    
   124   62   63 1    
   125   62   64 1    
   126   62  185 1    
   127   63  186 1    
   128   63  187 1    
   129   63  188 1    
   130   64   65 am   BACKBONE|DICT|INTERRES
   131   64  189 1    
   132   65   66 2    
   133   67   68 2    
   134   67   69 am   BACKBONE|DICT|INTERRES
   135   69   70 1    
   136   69  190 1    
   137   70   71 1    
   138   70   72 1    
   139   70  191 1    
   140   71  192 1    
   141   71  193 1    
   142   71  194 1    
   143   72   73 2    
   144   72   74 am   BACKBONE|DICT|INTERRES
   145   74   75 1    
   146   74  195 1    
   147   75   76 1    
   148   75   77 1    
   149   75  196 1    
   150   76  197 1    
   151   76  198 1    
   152   76  199 1    
   153   77   78 2    
   154   77   79 am   BACKBONE|DICT|INTERRES
   155   79   80 1    
   156   79  200 1    
   157   80   81 1    
   158   80   82 1    
   159   80  201 1    
   160   81  202 1    
   161   81  203 1    
   162   81  204 1    
   163   82   83 2    
   164   82   84 am   BACKBONE|DICT|INTERRES
   165   84   85 1    
   166   84  205 1    
   167   85   86 1    
   168   85   87 1    
   169   85  206 1    
   170   86  207 1    
   171   86  208 1    
   172   86  209 1    
   173   87   88 2    
   174   87   89 am   BACKBONE|DICT|INTERRES
   175   89   90 1    
   176   89  210 1    
   177   90   91 1    
   178   90   92 1    
   179   90  211 1    
   180   91  212 1    
   181   91  213 1    
   182   91  214 1    
   183   92   93 2    
   184   92   94 am   BACKBONE|DICT|INTERRES
   185   94   95 1    
   186   94  215 1    
   187   95   96 1    
   188   95   97 1    
   189   95  216 1    
   190   96  217 1    
   191   96  218 1    
   192   96  219 1    
   193   97   98 2    
   194   97   99 am   BACKBONE|DICT|INTERRES
   195   99  100 1    
   196   99  220 1    
   197  100  101 1    
   198  100  102 1    
   199  100  221 1    
   200  101  222 1    
   201  101  223 1    
   202  101  224 1    
   203  102  103 2    
   204  102  104 am   BACKBONE|DICT|INTERRES
   205  104  105 1    
   206  104  225 1    
   207  105  106 1    
   208  105  107 1    
   209  105  226 1    
   210  106  227 1    
   211  106  228 1    
   212  106  229 1    
   213  107  108 2    
   214  107  109 am   BACKBONE|DICT|INTERRES
   215  109  110 1    
   216  109  230 1    
   217  110  111 1    
   218  110  112 1    
   219  110  231 1    
   220  111  232 1    
   221  111  233 1    
   222  111  234 1    
   223  112  113 2    
   224  112  114 am   BACKBONE|DICT|INTERRES
   225  114  115 1    
   226  114  235 1    
   227  115  116 1    
   228  115  117 1    
   229  115  236 1    
   230  116  237 1    
   231  116  238 1    
   232  116  239 1    
   233  117  118 2    
   234  117  119 am   BACKBONE|DICT|INTERRES
   235  119  120 1    
   236  119  240 1    
   237  120  121 1    
   238  120  124 1    
   239  120  241 1    
   240  121  122 am   BACKBONE|DICT|INTERRES
   241  121  123 2    
   242  122  242 1    
   243  122  243 1    
   244  124  125 1    
   245  124  244 1    
   246  124  245 1    
   247  125  126 1    
   248  126  246 1    
   249  126  247 1    
@<TRIPOS>SUBSTRUCTURE
     1 UNK         1 GROUP             0       ****    0 ROOT    
