@<TRIPOS>MOLECULE
3R540
247   249    1
SMALL
USER_CHARGES


@<TRIPOS>ATOM
      1 CA         -1.8410  -14.3660  -51.8637 C.3       0 UNK        -0.1800 
      2 C          -0.8397  -14.8907  -50.8451 C.2       0 UNK         0.5000 
      3 O          -0.3174  -14.1006  -50.0593 O.2       0 UNK        -0.5000 
      4 N          -0.5922  -16.2097  -50.8591 N.am      1 UNK        -0.5000 
      5 CA          0.3693  -16.9603  -50.0342 C.3       1 UNK         0.1400 
      6 C6         -0.2282  -17.5397  -48.7109 C.3       23 UNK        -0.0398 
      7 S7         -0.6528  -16.3910  -47.3479 S.3       23 UNK        -0.2404 
      8 C8         -2.3587  -15.8463  -47.6915 C.3       23 UNK        -0.0205 
      9 C9         -3.3794  -16.9716  -47.6548 C.ar      23 UNK        -0.0193 
     10 C10        -3.6861  -17.6710  -48.8231 C.ar      23 UNK        -0.1150 
     11 C11        -4.6511  -18.6800  -48.8223 C.ar      23 UNK        -0.0193 
     12 C12        -5.3111  -18.9911  -47.6303 C.ar      23 UNK        -0.1150 
     13 C13        -5.0025  -18.3086  -46.4474 C.ar      23 UNK        -0.0193 
     14 C14        -4.0417  -17.2931  -46.4680 C.ar      23 UNK        -0.1150 
     15 C15        -5.6810  -18.6879  -45.1387 C.3       23 UNK        -0.0205 
     16 S16        -4.5747  -19.6510  -44.0531 S.3       23 UNK        -0.2404 
     17 C17        -4.1750  -21.0745  -45.1233 C.3       23 UNK        -0.0398 
     18 CA         -2.7736  -20.9146  -45.7807 C.3       11 UNK         0.1400 
     19 N          -1.6931  -21.0092  -44.7956 N.am      11 UNK        -0.5000 
     20 C          -1.2556  -22.1242  -44.1918 C.2       10 UNK         0.5000 
     21 O          -1.6600  -23.2581  -44.4534 O.2       10 UNK        -0.5000 
     22 CA         -0.2056  -21.9267  -43.0866 C.3       10 UNK         0.1400 
     23 CB          1.2045  -21.8312  -43.6896 C.3       10 UNK        -0.1800 
     24 N          -0.4736  -20.7309  -42.2873 N.am      10 UNK        -0.5000 
     25 C          -1.4791  -20.6009  -41.4098 C.2       9 UNK         0.5000 
     26 O          -2.2771  -21.5022  -41.1455 O.2       9 UNK        -0.5000 
     27 CA         -1.5808  -19.2309  -40.7053 C.3       9 UNK         0.1400 
     28 CB         -2.5678  -19.2175  -39.5199 C.3       9 UNK        -0.1800 
     29 N          -0.2639  -18.7242  -40.3075 N.am      9 UNK        -0.5000 
     30 C           0.6070  -19.2833  -39.4539 C.2       8 UNK         0.5000 
     31 O           0.3602  -20.2734  -38.7644 O.2       8 UNK        -0.5000 
     32 CA          2.0116  -18.6520  -39.3799 C.3       8 UNK         0.1400 
     33 CB          3.0157  -19.5209  -40.1541 C.3       8 UNK        -0.1800 
     34 N           2.0678  -17.2859  -39.9054 N.am      8 UNK        -0.5000 
     35 C           1.5826  -16.2065  -39.2769 C.2       7 UNK         0.5000 
     36 O           1.0741  -16.2389  -38.1557 O.2       7 UNK        -0.5000 
     37 CA          1.6532  -14.8709  -40.0410 C.3       7 UNK         0.1400 
     38 CB          3.0472  -14.2396  -39.9076 C.3       7 UNK        -0.1800 
     39 N           1.3088  -15.0057  -41.4583 N.am      7 UNK        -0.5000 
     40 C           0.0948  -15.3446  -41.9188 C.2       6 UNK         0.5000 
     41 O          -0.8779  -15.5585  -41.1955 O.2       6 UNK        -0.5000 
     42 CA         -0.0474  -15.5127  -43.4415 C.3       6 UNK         0.1400 
     43 CB         -0.1910  -14.1471  -44.1305 C.3       6 UNK        -0.1800 
     44 N           1.0804  -16.2369  -44.0216 N.am      6 UNK        -0.5000 
     45 C           1.3753  -17.5196  -43.7758 C.2       5 UNK         0.5000 
     46 O           0.6872  -18.2635  -43.0779 O.2       5 UNK        -0.5000 
     47 CA          2.6818  -18.0552  -44.3806 C.3       5 UNK         0.1400 
     48 CB          2.4663  -18.4869  -45.8365 C.3       5 UNK        -0.1800 
     49 N           3.7731  -17.0835  -44.3055 N.am      5 UNK        -0.5000 
     50 C           4.3458  -16.6735  -43.1649 C.2       4 UNK         0.5000 
     51 O           4.0230  -17.0853  -42.0517 O.2       4 UNK        -0.5000 
     52 CA          5.4377  -15.5959  -43.2869 C.3       4 UNK         0.1400 
     53 CB          6.7935  -16.2343  -43.6229 C.3       4 UNK        -0.1800 
     54 N           5.1140  -14.5844  -44.2930 N.am      4 UNK        -0.5000 
     55 C           4.1189  -13.6940  -44.1757 C.2       3 UNK         0.5000 
     56 O           3.3878  -13.6085  -43.1885 O.2       3 UNK        -0.5000 
     57 CA          3.8657  -12.7893  -45.3976 C.3       3 UNK         0.1400 
     58 CB          4.8377  -11.6000  -45.4055 C.3       3 UNK        -0.1800 
     59 N           3.9545  -13.5054  -46.6768 N.am      3 UNK        -0.5000 
     60 C           3.1672  -14.5358  -47.0101 C.2       2 UNK         0.5000 
     61 O           2.3117  -15.0030  -46.2554 O.2       2 UNK        -0.5000 
     62 CA          3.3900  -15.1833  -48.3833 C.3       2 UNK         0.1400 
     63 CB          4.6027  -16.1308  -48.3574 C.3       2 UNK        -0.1800 
     64 N           2.1817  -15.9282  -48.7121 N.am      2 UNK        -0.5000 
     65 C           1.7579  -16.2778  -49.9276 C.2       1 UNK         0.5000 
     66 O           2.4123  -16.0862  -50.9552 O.2       1 UNK        -0.5000 
     67 C          -2.5193  -21.8546  -46.9803 C.2       11 UNK         0.5000 
     68 O          -1.5028  -21.6936  -47.6597 O.2       11 UNK        -0.5000 
     69 N          -3.4067  -22.8350  -47.2016 N.am      12 UNK        -0.5000 
     70 CA         -3.3572  -23.8018  -48.2994 C.3       12 UNK         0.1400 
     71 CB         -4.6617  -24.6125  -48.3035 C.3       12 UNK        -0.1800 
     72 C          -2.1333  -24.7416  -48.2842 C.2       12 UNK         0.5000 
     73 O          -1.8378  -25.3511  -49.3121 O.2       12 UNK        -0.5000 
     74 N          -1.4337  -24.8450  -47.1433 N.am      13 UNK        -0.5000 
     75 CA         -0.1700  -25.5775  -47.0312 C.3       13 UNK         0.1400 
     76 CB          0.1539  -25.8243  -45.5502 C.3       13 UNK        -0.1800 
     77 C           0.9975  -24.8473  -47.7247 C.2       13 UNK         0.5000 
     78 O           1.9357  -25.5060  -48.1747 O.2       13 UNK        -0.5000 
     79 N           0.9169  -23.5120  -47.8039 N.am      14 UNK        -0.5000 
     80 CA          1.8713  -22.6618  -48.5112 C.3       14 UNK         0.1400 
     81 CB          2.0934  -21.3736  -47.7049 C.3       14 UNK        -0.1800 
     82 C           1.3480  -22.3425  -49.9190 C.2       14 UNK         0.5000 
     83 O           2.0525  -22.5633  -50.9047 O.2       14 UNK        -0.5000 
     84 N           0.1045  -21.8534  -49.9880 N.am      15 UNK        -0.5000 
     85 CA         -0.6219  -21.5531  -51.2157 C.3       15 UNK         0.1400 
     86 CB         -1.6322  -20.4362  -50.9181 C.3       15 UNK        -0.1800 
     87 C          -1.2988  -22.8262  -51.7467 C.2       15 UNK         0.5000 
     88 O          -2.5122  -22.9821  -51.6014 O.2       15 UNK        -0.5000 
     89 N          -0.4846  -23.7285  -52.3099 N.am      16 UNK        -0.5000 
     90 CA         -0.8663  -25.0549  -52.7996 C.3       16 UNK         0.1400 
     91 CB          0.3344  -25.6883  -53.5188 C.3       16 UNK        -0.1800 
     92 C          -2.1068  -25.0391  -53.7148 C.2       16 UNK         0.5000 
     93 O          -2.1273  -24.3037  -54.7034 O.2       16 UNK        -0.5000 
     94 N          -3.1125  -25.8386  -53.3347 N.am      17 UNK        -0.5000 
     95 CA         -4.4404  -25.9888  -53.9451 C.3       17 UNK         0.1400 
     96 CB         -4.3431  -26.3780  -55.4354 C.3       17 UNK        -0.1800 
     97 C          -5.4052  -24.8034  -53.7152 C.2       17 UNK         0.5000 
     98 O          -6.5510  -24.8873  -54.1614 O.2       17 UNK        -0.5000 
     99 N          -4.9667  -23.7585  -52.9940 N.am      18 UNK        -0.5000 
    100 CA        -5.7225  -22.5591  -52.6184 C.3       18 UNK         0.1400 
    101 CB        -6.7670  -22.9152  -51.5365 C.3       18 UNK        -0.1800 
    102 C         -6.3001  -21.8103  -53.8423 C.2       18 UNK         0.5000 
    103 O         -5.6019  -21.6760  -54.8506 O.2       18 UNK        -0.5000 
    104 N         -7.5468  -21.3255  -53.7338 N.am      19 UNK        -0.5000 
    105 CA        -8.3128  -20.6086  -54.7581 C.3       19 UNK         0.1400 
    106 CB        -8.7329  -21.5763  -55.8874 C.3       19 UNK        -0.1800 
    107 C         -7.5645  -19.3537  -55.2506 C.2       19 UNK         0.5000 
    108 O         -7.4292  -18.3983  -54.4859 O.2       19 UNK        -0.5000 
    109 N         -7.0538  -19.3865  -56.4893 N.am      20 UNK        -0.5000 
    110 CA        -6.2476  -18.3276  -57.1009 C.3       20 UNK         0.1400 
    111 CB        -5.9494  -18.7026  -58.5601 C.3       20 UNK        -0.1800 
    112 C         -4.9394  -18.0264  -56.3426 C.2       20 UNK         0.5000 
    113 O         -4.4892  -16.8797  -56.3496 O.2       20 UNK        -0.5000 
    114 N         -4.3786  -19.0334  -55.6551 N.am      21 UNK        -0.5000 
    115 CA        -3.1923  -18.8930  -54.8064 C.3       21 UNK         0.1400 
    116 CB        -2.6100  -20.2837  -54.5111 C.3       21 UNK        -0.1800 
    117 C         -3.4570  -18.1014  -53.5065 C.2       21 UNK         0.5000 
    118 O         -2.4970  -17.6975  -52.8464 O.2       21 UNK        -0.5000 
    119 N         -4.7356  -17.8729  -53.1693 N.am      22 UNK        -0.5000 
    120 CA        -5.1660  -16.9366  -52.1203 C.3       22 UNK         0.1400 
    121 C         -5.2814  -15.4624  -52.6126 C.2       22 UNK         0.5000 
    122 N         -5.0441  -15.1490  -53.8822 N.am      22 UNK        -0.7600 
    123 O         -5.5793  -14.5745  -51.8191 O.2       22 UNK        -0.5000 
    124 C124       -6.4712  -17.3825  -51.4031 C.3       23 UNK        -0.0398 
    125 S125       -6.5685  -19.1145  -50.8170 S.3       23 UNK        -0.2404 
    126 C126       -4.9355  -19.4673  -50.0937 C.3       23 UNK        -0.0205 
    127 H127       -2.0980  -15.1168  -52.6098 H         1 UNK         0.0600 
    128 H128       -1.4285  -13.5032  -52.3866 H         1 UNK         0.0600 
    129 H129       -2.7562  -14.0543  -51.3607 H         1 UNK         0.0600 
    130 H130       -1.0803  -16.7680  -51.5524 H         1 UNK         0.3000 
    131 H131        0.5824  -17.8381  -50.6460 H         1 UNK         0.0600 
    132 H132        0.4834  -18.2554  -48.2964 H         1 UNK         0.0800 
    133 H133       -1.0999  -18.1470  -48.9351 H         1 UNK         0.0800 
    134 H134       -2.6266  -15.0915  -46.9509 H         1 UNK         0.0800 
    135 H135       -2.4069  -15.3378  -48.6515 H         1 UNK         0.0800 
    136 H136       -3.1487  -17.4358  -49.7290 H         1 UNK         0.1150 
    137 H137       -6.0511  -19.7790  -47.6235 H         1 UNK         0.1150 
    138 H138       -3.8012  -16.7629  -45.5570 H         1 UNK         0.1150 
    139 H139       -5.9922  -17.7827  -44.6153 H         1 UNK         0.0800 
    140 H140       -6.5911  -19.2596  -45.3269 H         1 UNK         0.0800 
    141 H141       -4.9652  -21.1698  -45.8683 H         1 UNK         0.0800 
    142 H142       -4.2196  -21.9813  -44.5179 H         1 UNK         0.0800 
    143 H143       -2.7063  -19.9106  -46.2008 H         1 UNK         0.0600 
    144 H144       -1.2883  -20.1302  -44.5089 H         1 UNK         0.3000 
    145 H145       -0.2403  -22.7974  -42.4284 H         1 UNK         0.0600 
    146 H146        1.9611  -21.7394  -42.9101 H         1 UNK         0.0600 
    147 H147        1.4430  -22.7216  -44.2726 H         1 UNK         0.0600 
    148 H148        1.3011  -20.9715  -44.3521 H         1 UNK         0.0600 
    149 H149        0.1024  -19.9125  -42.4717 H         1 UNK         0.3000 
    150 H150       -1.9589  -18.5332  -41.4542 H         1 UNK         0.0600 
    151 H151       -3.5766  -19.4642  -39.8526 H         1 UNK         0.0600 
    152 H152       -2.6110  -18.2320  -39.0562 H         1 UNK         0.0600 
    153 H153       -2.2925  -19.9395  -38.7509 H         1 UNK         0.0600 
    154 H154        0.0678  -17.9354  -40.8470 H         1 UNK         0.3000 
    155 H155        2.3116  -18.6335  -38.3302 H         1 UNK         0.0600 
    156 H156        2.7692  -19.5679  -41.2157 H         1 UNK         0.0600 
    157 H157        3.0270  -20.5431  -39.7738 H         1 UNK         0.0600 
    158 H158        4.0290  -19.1294  -40.0625 H         1 UNK         0.0600 
    159 H159        2.5414  -17.1640  -40.7964 H         1 UNK         0.3000 
    160 H160        0.9300  -14.1909  -39.5859 H         1 UNK         0.0600 
    161 H161        3.8155  -14.8558  -40.3753 H         1 UNK         0.0600 
    162 H162        3.3204  -14.1125  -38.8594 H         1 UNK         0.0600 
    163 H163        3.0796  -13.2547  -40.3738 H         1 UNK         0.0600 
    164 H164        2.0457  -14.8042  -42.1258 H         1 UNK         0.3000 
    165 H165       -0.9536  -16.0906  -43.6357 H         1 UNK         0.0600 
    166 H166       -0.3561  -14.2610  -45.2017 H         1 UNK         0.0600 
    167 H167       -1.0393  -13.5929  -43.7275 H         1 UNK         0.0600 
    168 H168        0.6995  -13.5322  -43.9966 H         1 UNK         0.0600 
    169 H169        1.6606  -15.7211  -44.6792 H         1 UNK         0.3000 
    170 H170        2.9729  -18.9368  -43.8054 H         1 UNK         0.0600 
    171 H171        1.6214  -19.1704  -45.9149 H         1 UNK         0.0600 
    172 H172        2.2506  -17.6385  -46.4826 H         1 UNK         0.0600 
    173 H173        3.3443  -18.9973  -46.2317 H         1 UNK         0.0600 
    174 H174        4.0603  -16.6538  -45.1709 H         1 UNK         0.3000 
    175 H175        5.5254  -15.0989  -42.3184 H         1 UNK         0.0600 
    176 H176        6.7785  -16.7285  -44.5952 H         1 UNK         0.0600 
    177 H177        7.5877  -15.4876  -43.6377 H         1 UNK         0.0600 
    178 H178        7.0668  -16.9830  -42.8781 H         1 UNK         0.0600 
    179 H179        5.6624  -14.5867  -45.1401 H         1 UNK         0.3000 
    180 H180        2.8503  -12.3972  -45.3079 H         1 UNK         0.0600 
    181 H181        5.8716  -11.9234  -45.5320 H         1 UNK         0.0600 
    182 H182        4.7800  -11.0430  -44.4693 H         1 UNK         0.0600 
    183 H183        4.6023  -10.9039  -46.2107 H         1 UNK         0.0600 
    184 H184        4.6441  -13.1743  -47.3361 H         1 UNK         0.3000 
    185 H185        3.5436  -14.3942  -49.1220 H         1 UNK         0.0600 
    186 H186        4.4727  -16.9330  -47.6305 H         1 UNK         0.0600 
    187 H187        4.7661  -16.5897  -49.3325 H         1 UNK         0.0600 
    188 H188        5.5158  -15.5944  -48.0971 H         1 UNK         0.0600 
    189 H189        1.5490  -16.0332  -47.9245 H         1 UNK         0.3000 
    190 H190       -4.1826  -22.9394  -46.5654 H         1 UNK         0.3000 
    191 H191       -3.3155  -23.2281  -49.2246 H         1 UNK         0.0600 
    192 H192       -5.5326  -23.9611  -48.3776 H         1 UNK         0.0600 
    193 H193       -4.6948  -25.2937  -49.1551 H         1 UNK         0.0600 
    194 H194       -4.7650  -25.2116  -47.3980 H         1 UNK         0.0600 
    195 H195       -1.7325  -24.3230  -46.3268 H         1 UNK         0.3000 
    196 H196       -0.2913  -26.5488  -47.5156 H         1 UNK         0.0600 
    197 H197        1.0352  -26.4584  -45.4467 H         1 UNK         0.0600 
    198 H198       -0.6698  -26.3257  -45.0418 H         1 UNK         0.0600 
    199 H199        0.3599  -24.8941  -45.0209 H         1 UNK         0.0600 
    200 H200        0.0811  -23.0564  -47.4576 H         1 UNK         0.3000 
    201 H201        2.8339  -23.1678  -48.6109 H         1 UNK         0.0600 
    202 H202        2.5176  -21.5936  -46.7252 H         1 UNK         0.0600 
    203 H203        1.1619  -20.8282  -47.5504 H         1 UNK         0.0600 
    204 H204        2.7860  -20.7051  -48.2178 H         1 UNK         0.0600 
    205 H205       -0.4279  -21.7473  -49.1271 H         1 UNK         0.3000 
    206 H206        0.0655  -21.1906  -51.9830 H         1 UNK         0.0600 
    207 H207       -2.3222  -20.3012  -51.7470 H         1 UNK         0.0600 
    208 H208       -2.2282  -20.6522  -50.0316 H         1 UNK         0.0600 
    209 H209       -1.1282  -19.4853  -50.7688 H         1 UNK         0.0600 
    210 H210        0.5022  -23.5093  -52.3427 H         1 UNK         0.3000 
    211 H211       -1.0881  -25.6623  -51.9203 H         1 UNK         0.0600 
    212 H212        0.6447  -25.0950  -54.3800 H         1 UNK         0.0600 
    213 H213        0.0908  -26.6885  -53.8794 H         1 UNK         0.0600 
    214 H214        1.1903  -25.7840  -52.8503 H         1 UNK         0.0600 
    215 H215       -2.9836  -26.3714  -52.4851 H         1 UNK         0.3000 
    216 H216       -4.8956  -26.8338  -53.4265 H         1 UNK         0.0600 
    217 H217       -5.3175  -26.6767  -55.8236 H         1 UNK         0.0600 
    218 H218       -3.6654  -27.2190  -55.5823 H         1 UNK         0.0600 
    219 H219       -3.9929  -25.5496  -56.0513 H         1 UNK         0.0600 
    220 H220       -4.0015  -23.7589  -52.6792 H         1 UNK         0.3000 
    221 H221       -5.0010  -21.8771  -52.1668 H         1 UNK         0.0600 
    222 H222       -6.2984  -23.4423  -50.7059 H         1 UNK         0.0600 
    223 H223       -7.2347  -22.0241  -51.1184 H         1 UNK         0.0600 
    224 H224       -7.5579  -23.5556  -51.9288 H         1 UNK         0.0600 
    225 H225       -8.0209  -21.4496  -52.8508 H         1 UNK         0.3000 
    226 H226       -9.2229  -20.2501  -54.2750 H         1 UNK         0.0600 
    227 H227       -9.3454  -22.3869  -55.4924 H         1 UNK         0.0600 
    228 H228       -9.3294  -21.0646  -56.6438 H         1 UNK         0.0600 
    229 H229       -7.8762  -22.0306  -56.3864 H         1 UNK         0.0600 
    230 H230       -7.1811  -20.2273  -57.0335 H         1 UNK         0.3000 
    231 H231       -6.8449  -17.4135  -57.0968 H         1 UNK         0.0600 
    232 H232       -5.3770  -19.6287  -58.6280 H         1 UNK         0.0600 
    233 H233       -5.3700  -17.9213  -59.0538 H         1 UNK         0.0600 
    234 H234       -6.8692  -18.8325  -59.1306 H         1 UNK         0.0600 
    235 H235       -4.8321  -19.9421  -55.6497 H         1 UNK         0.3000 
    236 H236       -2.4429  -18.3348  -55.3713 H         1 UNK         0.0600 
    237 H237       -2.4568  -20.8535  -55.4277 H         1 UNK         0.0600 
    238 H238       -1.6401  -20.2012  -54.0201 H         1 UNK         0.0600 
    239 H239       -3.2614  -20.8685  -53.8620 H         1 UNK         0.0600 
    240 H240       -5.4789  -18.2306  -53.7581 H         1 UNK         0.3000 
    241 H241       -4.3854  -16.8967  -51.3676 H         1 UNK         0.0600 
    242 H242       -5.1222  -14.1866  -54.1698 H         1 UNK         0.3800 
    243 H243       -4.8012  -15.8524  -54.5689 H         1 UNK         0.3800 
    244 H244       -7.3261  -17.2246  -52.0623 H         1 UNK         0.0800 
    245 H245       -6.6476  -16.7447  -50.5352 H         1 UNK         0.0800 
    246 H246       -4.1690  -19.2809  -50.8418 H         1 UNK         0.0800 
    247 H247       -4.8792  -20.5329  -49.8664 H         1 UNK         0.0800 
@<TRIPOS>BOND
     1    1    2 1    
     2    1  127 1    
     3    1  128 1    
     4    1  129 1    
     5    2    3 2    
     6    2    4 am   BACKBONE|DICT|INTERRES
     7    4    5 1    
     8    4  130 1    
     9    5    6 1    
    10    5   65 1    
    11    5  131 1    
    12    6    7 1    
    13    6  132 1    
    14    6  133 1    
    15    7    8 1    
    16    8    9 1    
    17    8  134 1    
    18    8  135 1    
    19    9   10 ar   
    20    9   14 ar   
    21   10   11 ar   
    22   10  136 1    
    23   11   12 ar   
    24   11  126 1    
    25   12   13 ar   
    26   12  137 1    
    27   13   14 ar   
    28   13   15 1    
    29   14  138 1    
    30   15   16 1    
    31   15  139 1    
    32   15  140 1    
    33   16   17 1    
    34   17   18 1    
    35   17  141 1    
    36   17  142 1    
    37   18   19 1    
    38   18   67 1    
    39   18  143 1    
    40   19   20 am   BACKBONE|DICT|INTERRES
    41   19  144 1    
    42   20   21 2    
    43   20   22 1    
    44   22   23 1    
    45   22   24 1    
    46   22  145 1    
    47   23  146 1    
    48   23  147 1    
    49   23  148 1    
    50   24   25 am   BACKBONE|DICT|INTERRES
    51   24  149 1    
    52   25   26 2    
    53   25   27 1    
    54   27   28 1    
    55   27   29 1    
    56   27  150 1    
    57   28  151 1    
    58   28  152 1    
    59   28  153 1    
    60   29   30 am   BACKBONE|DICT|INTERRES
    61   29  154 1    
    62   30   31 2    
    63   30   32 1    
    64   32   33 1    
    65   32   34 1    
    66   32  155 1    
    67   33  156 1    
    68   33  157 1    
    69   33  158 1    
    70   34   35 am   BACKBONE|DICT|INTERRES
    71   34  159 1    
    72   35   36 2    
    73   35   37 1    
    74   37   38 1    
    75   37   39 1    
    76   37  160 1    
    77   38  161 1    
    78   38  162 1    
    79   38  163 1    
    80   39   40 am   BACKBONE|DICT|INTERRES
    81   39  164 1    
    82   40   41 2    
    83   40   42 1    
    84   42   43 1    
    85   42   44 1    
    86   42  165 1    
    87   43  166 1    
    88   43  167 1    
    89   43  168 1    
    90   44   45 am   BACKBONE|DICT|INTERRES
    91   44  169 1    
    92   45   46 2    
    93   45   47 1    
    94   47   48 1    
    95   47   49 1    
    96   47  170 1    
    97   48  171 1    
    98   48  172 1    
    99   48  173 1    
   100   49   50 am   BACKBONE|DICT|INTERRES
   101   49  174 1    
   102   50   51 2    
   103   50   52 1    
   104   52   53 1    
   105   52   54 1    
   106   52  175 1    
   107   53  176 1    
   108   53  177 1    
   109   53  178 1    
   110   54   55 am   BACKBONE|DICT|INTERRES
   111   54  179 1    
   112   55   56 2    
   113   55   57 1    
   114   57   58 1    
   115   57   59 1    
   116   57  180 1    
   117   58  181 1    
   118   58  182 1    
   119   58  183 1    
   120   59   60 am   BACKBONE|DICT|INTERRES
   121   59  184 1    
   122   60   61 2    
   123   60   62 1    
   124   62   63 1    
   125   62   64 1    
   126   62  185 1    
   127   63  186 1    
   128   63  187 1    
   129   63  188 1    
   130   64   65 am   BACKBONE|DICT|INTERRES
   131   64  189 1    
   132   65   66 2    
   133   67   68 2    
   134   67   69 am   BACKBONE|DICT|INTERRES
   135   69   70 1    
   136   69  190 1    
   137   70   71 1    
   138   70   72 1    
   139   70  191 1    
   140   71  192 1    
   141   71  193 1    
   142   71  194 1    
   143   72   73 2    
   144   72   74 am   BACKBONE|DICT|INTERRES
   145   74   75 1    
   146   74  195 1    
   147   75   76 1    
   148   75   77 1    
   149   75  196 1    
   150   76  197 1    
   151   76  198 1    
   152   76  199 1    
   153   77   78 2    
   154   77   79 am   BACKBONE|DICT|INTERRES
   155   79   80 1    
   156   79  200 1    
   157   80   81 1    
   158   80   82 1    
   159   80  201 1    
   160   81  202 1    
   161   81  203 1    
   162   81  204 1    
   163   82   83 2    
   164   82   84 am   BACKBONE|DICT|INTERRES
   165   84   85 1    
   166   84  205 1    
   167   85   86 1    
   168   85   87 1    
   169   85  206 1    
   170   86  207 1    
   171   86  208 1    
   172   86  209 1    
   173   87   88 2    
   174   87   89 am   BACKBONE|DICT|INTERRES
   175   89   90 1    
   176   89  210 1    
   177   90   91 1    
   178   90   92 1    
   179   90  211 1    
   180   91  212 1    
   181   91  213 1    
   182   91  214 1    
   183   92   93 2    
   184   92   94 am   BACKBONE|DICT|INTERRES
   185   94   95 1    
   186   94  215 1    
   187   95   96 1    
   188   95   97 1    
   189   95  216 1    
   190   96  217 1    
   191   96  218 1    
   192   96  219 1    
   193   97   98 2    
   194   97   99 am   BACKBONE|DICT|INTERRES
   195   99  100 1    
   196   99  220 1    
   197  100  101 1    
   198  100  102 1    
   199  100  221 1    
   200  101  222 1    
   201  101  223 1    
   202  101  224 1    
   203  102  103 2    
   204  102  104 am   BACKBONE|DICT|INTERRES
   205  104  105 1    
   206  104  225 1    
   207  105  106 1    
   208  105  107 1    
   209  105  226 1    
   210  106  227 1    
   211  106  228 1    
   212  106  229 1    
   213  107  108 2    
   214  107  109 am   BACKBONE|DICT|INTERRES
   215  109  110 1    
   216  109  230 1    
   217  110  111 1    
   218  110  112 1    
   219  110  231 1    
   220  111  232 1    
   221  111  233 1    
   222  111  234 1    
   223  112  113 2    
   224  112  114 am   BACKBONE|DICT|INTERRES
   225  114  115 1    
   226  114  235 1    
   227  115  116 1    
   228  115  117 1    
   229  115  236 1    
   230  116  237 1    
   231  116  238 1    
   232  116  239 1    
   233  117  118 2    
   234  117  119 am   BACKBONE|DICT|INTERRES
   235  119  120 1    
   236  119  240 1    
   237  120  121 1    
   238  120  124 1    
   239  120  241 1    
   240  121  122 am   BACKBONE|DICT|INTERRES
   241  121  123 2    
   242  122  242 1    
   243  122  243 1    
   244  124  125 1    
   245  124  244 1    
   246  124  245 1    
   247  125  126 1    
   248  126  246 1    
   249  126  247 1    
@<TRIPOS>SUBSTRUCTURE
     1 UNK         1 GROUP             0       ****    0 ROOT    
