@<TRIPOS>MOLECULE
3R540
247   249    1
SMALL
USER_CHARGES


@<TRIPOS>ATOM
      1 CA          2.5190   -9.3376  -49.0738 C.3       0 UNK        -0.1800 
      2 C           1.9803  -10.7604  -49.1267 C.2       0 UNK         0.5000 
      3 O           2.6851  -11.6671  -49.5700 O.2       0 UNK        -0.5000 
      4 N           0.7372  -10.9593  -48.6772 N.am      1 UNK        -0.5000 
      5 CA          0.0593  -12.2545  -48.6328 C.3       1 UNK         0.1400 
      6 C6         -0.5223  -12.6734  -50.0102 C.3       23 UNK        -0.0398 
      7 S7         -0.7669  -14.4769  -50.1331 S.3       23 UNK        -0.2404 
      8 C8          0.8310  -14.9753  -50.8404 C.3       23 UNK        -0.0205 
      9 C9          0.9452  -16.4877  -50.9230 C.ar      23 UNK        -0.0193 
     10 C10         0.5407  -17.1628  -52.0774 C.ar      23 UNK        -0.1150 
     11 C11         0.6573  -18.5527  -52.1620 C.ar      23 UNK        -0.0193 
     12 C12         1.1924  -19.2672  -51.0875 C.ar      23 UNK        -0.1150 
     13 C13         1.5822  -18.6045  -49.9202 C.ar      23 UNK        -0.0193 
     14 C14         1.4573  -17.2140  -49.8442 C.ar      23 UNK        -0.1150 
     15 C15         2.1340  -19.3867  -48.7399 C.3       23 UNK        -0.0205 
     16 S16         0.8541  -20.4397  -47.9843 S.3       23 UNK        -0.2404 
     17 C17         1.2842  -22.0916  -48.6428 C.3       23 UNK        -0.0398 
     18 CA          0.9247  -23.2652  -47.6954 C.3       11 UNK         0.1400 
     19 N           1.4414  -23.0517  -46.3440 N.am      11 UNK        -0.5000 
     20 C           1.6809  -24.0168  -45.4492 C.2       10 UNK         0.5000 
     21 O           1.5665  -25.2186  -45.6987 O.2       10 UNK        -0.5000 
     22 CA          2.1164  -23.5513  -44.0447 C.3       10 UNK         0.1400 
     23 CB          2.8276  -24.6502  -43.2283 C.3       10 UNK        -0.1800 
     24 N           2.9080  -22.3187  -44.0715 N.am      10 UNK        -0.5000 
     25 C           4.1213  -22.1192  -44.6061 C.2       9 UNK         0.5000 
     26 O           4.7829  -22.9915  -45.1700 O.2       9 UNK        -0.5000 
     27 CA          4.6964  -20.6927  -44.4854 C.3       9 UNK         0.1400 
     28 CB          4.4102  -19.8905  -45.7639 C.3       9 UNK        -0.1800 
     29 N           4.1694  -19.9589  -43.3312 N.am      9 UNK        -0.5000 
     30 C           4.4552  -20.2423  -42.0521 C.2       8 UNK         0.5000 
     31 O           5.2781  -21.0915  -41.7074 O.2       8 UNK        -0.5000 
     32 CA          3.6655  -19.4728  -40.9761 C.3       8 UNK         0.1400 
     33 CB          4.3215  -18.1155  -40.6817 C.3       8 UNK        -0.1800 
     34 N           2.2596  -19.2764  -41.3386 N.am      8 UNK        -0.5000 
     35 C           1.3571  -20.2634  -41.4422 C.2       7 UNK         0.5000 
     36 O           1.6006  -21.4416  -41.1823 O.2       7 UNK        -0.5000 
     37 CA         -0.0439  -19.8847  -41.9580 C.3       7 UNK         0.1400 
     38 CB         -0.9309  -19.3856  -40.8084 C.3       7 UNK        -0.1800 
     39 N          -0.0096  -18.8861  -43.0276 N.am      7 UNK        -0.5000 
     40 C           0.5345  -19.0894  -44.2360 C.2       6 UNK         0.5000 
     41 O           1.0316  -20.1606  -44.5821 O.2       6 UNK        -0.5000 
     42 CA          0.5775  -17.8848  -45.1963 C.3       6 UNK         0.1400 
     43 CB         -0.7748  -17.6635  -45.8913 C.3       6 UNK        -0.1800 
     44 N           0.9845  -16.6540  -44.5213 N.am      6 UNK        -0.5000 
     45 C           2.1820  -16.4633  -43.9510 C.2       5 UNK         0.5000 
     46 O           3.0946  -17.2887  -43.9806 O.2       5 UNK        -0.5000 
     47 CA          2.3677  -15.1536  -43.1676 C.3       5 UNK         0.1400 
     48 CB          2.6965  -13.9855  -44.1104 C.3       5 UNK        -0.1800 
     49 N           1.1863  -14.8304  -42.3661 N.am      5 UNK        -0.5000 
     50 C           0.7988  -15.5205  -41.2836 C.2       4 UNK         0.5000 
     51 O           1.4180  -16.4815  -40.8292 O.2       4 UNK        -0.5000 
     52 CA         -0.5207  -15.0872  -40.6190 C.3       4 UNK         0.1400 
     53 CB         -0.2817  -13.9164  -39.6541 C.3       4 UNK        -0.1800 
     54 N          -1.5462  -14.7113  -41.5928 N.am      4 UNK        -0.5000 
     55 C          -2.1267  -15.5630  -42.4502 C.2       3 UNK         0.5000 
     56 O          -1.8835  -16.7676  -42.4885 O.2       3 UNK        -0.5000 
     57 CA         -3.1003  -14.9538  -43.4756 C.3       3 UNK         0.1400 
     58 CB         -4.5142  -14.8492  -42.8854 C.3       3 UNK        -0.1800 
     59 N          -2.6735  -13.6385  -43.9632 N.am      3 UNK        -0.5000 
     60 C          -1.5329  -13.4167  -44.6286 C.2       2 UNK         0.5000 
     61 O          -0.7034  -14.2964  -44.8738 O.2       2 UNK        -0.5000 
     62 CA         -1.2417  -11.9616  -45.0352 C.3       2 UNK         0.1400 
     63 CB         -0.4473  -11.2503  -43.9287 C.3       2 UNK        -0.1800 
     64 N          -0.4738  -11.9085  -46.2780 N.am      2 UNK        -0.5000 
     65 C          -0.9638  -12.2301  -47.4826 C.2       1 UNK         0.5000 
     66 O          -2.1575  -12.4542  -47.6920 O.2       1 UNK        -0.5000 
     67 C          -0.5948  -23.5283  -47.6641 C.2       11 UNK         0.5000 
     68 O          -1.2916  -23.0310  -46.7761 O.2       11 UNK        -0.5000 
     69 N          -1.0940  -24.2685  -48.6655 N.am      12 UNK        -0.5000 
     70 CA         -2.5162  -24.5940  -48.8351 C.3       12 UNK         0.1400 
     71 CB         -2.6809  -25.5467  -50.0285 C.3       12 UNK        -0.1800 
     72 C          -3.4156  -23.3560  -49.0136 C.2       12 UNK         0.5000 
     73 O          -4.5724  -23.3777  -48.5923 O.2       12 UNK        -0.5000 
     74 N          -2.8474  -22.2824  -49.5822 N.am      13 UNK        -0.5000 
     75 CA         -3.4782  -20.9748  -49.7724 C.3       13 UNK         0.1400 
     76 CB         -2.4979  -20.0553  -50.5165 C.3       13 UNK        -0.1800 
     77 C          -3.9560  -20.3119  -48.4645 C.2       13 UNK         0.5000 
     78 O          -4.9086  -19.5337  -48.5026 O.2       13 UNK        -0.5000 
     79 N          -3.3284  -20.6592  -47.3293 N.am      14 UNK        -0.5000 
     80 CA         -3.7142  -20.2054  -45.9915 C.3       14 UNK         0.1400 
     81 CB         -2.6650  -20.6851  -44.9768 C.3       14 UNK        -0.1800 
     82 C          -5.1097  -20.7016  -45.5681 C.2       14 UNK         0.5000 
     83 O          -5.8208  -19.9832  -44.8650 O.2       14 UNK        -0.5000 
     84 N          -5.4679  -21.9173  -46.0016 N.am      15 UNK        -0.5000 
     85 CA         -6.7530  -22.5524  -45.7230 C.3       15 UNK         0.1400 
     86 CB         -6.5236  -24.0496  -45.4627 C.3       15 UNK        -0.1800 
     87 C          -7.7377  -22.3550  -46.8855 C.2       15 UNK         0.5000 
     88 O          -8.9173  -22.0958  -46.6447 O.2       15 UNK        -0.5000 
     89 N          -7.2434  -22.4971  -48.1225 N.am      16 UNK        -0.5000 
     90 CA         -8.0488  -22.4714  -49.3419 C.3       16 UNK         0.1400 
     91 CB         -7.2379  -23.1059  -50.4814 C.3       16 UNK        -0.1800 
     92 C          -8.5178  -21.0674  -49.7584 C.2       16 UNK         0.5000 
     93 O          -9.5112  -20.9669  -50.4785 O.2       16 UNK        -0.5000 
     94 N          -7.7727  -20.0219  -49.3674 N.am      17 UNK        -0.5000 
     95 CA         -7.9097  -18.6018  -49.7359 C.3       17 UNK         0.1400 
     96 CB         -9.2869  -18.0379  -49.3368 C.3       17 UNK        -0.1800 
     97 C          -7.5776  -18.2910  -51.2132 C.2       17 UNK         0.5000 
     98 O          -7.0438  -17.2185  -51.5006 O.2       17 UNK        -0.5000 
     99 N          -7.8692  -19.2344  -52.1160 N.am      18 UNK        -0.5000 
    100 CA        -7.4257  -19.2787  -53.5076 C.3       18 UNK         0.1400 
    101 CB        -8.2324  -20.3737  -54.2267 C.3       18 UNK        -0.1800 
    102 C         -5.9108  -19.5526  -53.6237 C.2       18 UNK         0.5000 
    103 O         -5.2542  -19.8469  -52.6224 O.2       18 UNK        -0.5000 
    104 N         -5.3902  -19.4724  -54.8577 N.am      19 UNK        -0.5000 
    105 CA        -3.9780  -19.6779  -55.2008 C.3       19 UNK         0.1400 
    106 CB        -3.7884  -19.4877  -56.7133 C.3       19 UNK        -0.1800 
    107 C         -3.4132  -21.0371  -54.7457 C.2       19 UNK         0.5000 
    108 O         -2.3066  -21.0696  -54.2112 O.2       19 UNK        -0.5000 
    109 N         -4.2074  -22.1055  -54.9186 N.am      20 UNK        -0.5000 
    110 CA        -4.0220  -23.4661  -54.3996 C.3       20 UNK         0.1400 
    111 CB        -4.3989  -23.5011  -52.9046 C.3       20 UNK        -0.1800 
    112 C         -2.6305  -24.0740  -54.6804 C.2       20 UNK         0.5000 
    113 O         -2.4520  -24.7344  -55.7043 O.2       20 UNK        -0.5000 
    114 N         -1.6813  -23.8466  -53.7617 N.am      21 UNK        -0.5000 
    115 CA        -0.2813  -24.2588  -53.8599 C.3       21 UNK         0.1400 
    116 CB         0.3976  -24.0333  -52.4986 C.3       21 UNK        -0.1800 
    117 C          0.4959  -23.5274  -54.9727 C.2       21 UNK         0.5000 
    118 O          1.4230  -24.1076  -55.5397 O.2       21 UNK        -0.5000 
    119 N          0.1129  -22.2782  -55.2624 N.am      22 UNK        -0.5000 
    120 CA         0.6611  -21.4734  -56.3604 C.3       22 UNK         0.1400 
    121 C          0.0136  -21.8797  -57.7109 C.2       22 UNK         0.5000 
    122 N          0.8098  -22.1419  -58.7383 N.am      22 UNK        -0.7600 
    123 O         -1.2070  -21.9161  -57.8467 O.2       22 UNK        -0.5000 
    124 C124        0.4782  -19.9569  -56.1067 C.3       23 UNK        -0.0398 
    125 S125        1.4529  -19.3463  -54.6893 S.3       23 UNK        -0.2404 
    126 C126        0.1739  -19.2828  -53.4009 C.3       23 UNK        -0.0205 
    127 H127        1.7890   -8.6423  -48.6586 H         1 UNK         0.0600 
    128 H128        2.7800   -8.9980  -50.0761 H         1 UNK         0.0600 
    129 H129        3.4156   -9.2988  -48.4552 H         1 UNK         0.0600 
    130 H130        0.2035  -10.1812  -48.3124 H         1 UNK         0.3000 
    131 H131        0.8029  -12.9999  -48.3407 H         1 UNK         0.0600 
    132 H132       -1.4660  -12.1654  -50.2147 H         1 UNK         0.0800 
    133 H133        0.1489  -12.3692  -50.8143 H         1 UNK         0.0800 
    134 H134        1.6427  -14.5740  -50.2310 H         1 UNK         0.0800 
    135 H135        0.9438  -14.5353  -51.8326 H         1 UNK         0.0800 
    136 H136        0.1301  -16.6073  -52.9090 H         1 UNK         0.1150 
    137 H137        1.2856  -20.3417  -51.1513 H         1 UNK         0.1150 
    138 H138        1.7563  -16.6937  -48.9451 H         1 UNK         0.1150 
    139 H139        2.9940  -19.9750  -49.0605 H         1 UNK         0.0800 
    140 H140        2.5099  -18.7023  -47.9789 H         1 UNK         0.0800 
    141 H141        2.3581  -22.1258  -48.8280 H         1 UNK         0.0800 
    142 H142        0.8160  -22.2158  -49.6203 H         1 UNK         0.0800 
    143 H143        1.3998  -24.1633  -48.0964 H         1 UNK         0.0600 
    144 H144        1.4887  -22.0874  -46.0389 H         1 UNK         0.3000 
    145 H145        1.1955  -23.2983  -43.5173 H         1 UNK         0.0600 
    146 H146        3.1121  -24.2833  -42.2419 H         1 UNK         0.0600 
    147 H147        2.1737  -25.5098  -43.0774 H         1 UNK         0.0600 
    148 H148        3.7283  -25.0088  -43.7269 H         1 UNK         0.0600 
    149 H149        2.4290  -21.4996  -43.7159 H         1 UNK         0.3000 
    150 H150        5.7788  -20.7795  -44.3706 H         1 UNK         0.0600 
    151 H151        4.8085  -20.3975  -46.6436 H         1 UNK         0.0600 
    152 H152        4.8673  -18.9018  -45.7209 H         1 UNK         0.0600 
    153 H153        3.3400  -19.7568  -45.9189 H         1 UNK         0.0600 
    154 H154        3.5354  -19.1912  -43.5308 H         1 UNK         0.3000 
    155 H155        3.6941  -20.0653  -40.0592 H         1 UNK         0.0600 
    156 H156        5.3650  -18.2411  -40.3903 H         1 UNK         0.0600 
    157 H157        3.8153  -17.6029  -39.8636 H         1 UNK         0.0600 
    158 H158        4.3005  -17.4590  -41.5515 H         1 UNK         0.0600 
    159 H159        1.9626  -18.3207  -41.5054 H         1 UNK         0.3000 
    160 H160       -0.4996  -20.7894  -42.3665 H         1 UNK         0.0600 
    161 H161       -0.5529  -18.4556  -40.3834 H         1 UNK         0.0600 
    162 H162       -0.9788  -20.1202  -40.0036 H         1 UNK         0.0600 
    163 H163       -1.9517  -19.2089  -41.1477 H         1 UNK         0.0600 
    164 H164       -0.4604  -17.9965  -42.8318 H         1 UNK         0.3000 
    165 H165        1.3216  -18.0985  -45.9647 H         1 UNK         0.0600 
    166 H166       -0.7384  -16.8019  -46.5585 H         1 UNK         0.0600 
    167 H167       -1.0474  -18.5265  -46.4986 H         1 UNK         0.0600 
    168 H168       -1.5772  -17.4968  -45.1725 H         1 UNK         0.0600 
    169 H169        0.3041  -15.8996  -44.4908 H         1 UNK         0.3000 
    170 H170        3.2129  -15.2871  -42.4890 H         1 UNK         0.0600 
    171 H171        3.6033  -14.1920  -44.6802 H         1 UNK         0.0600 
    172 H172        1.8969  -13.8014  -44.8278 H         1 UNK         0.0600 
    173 H173        2.8667  -13.0645  -43.5528 H         1 UNK         0.0600 
    174 H174        0.5904  -14.0936  -42.7111 H         1 UNK         0.3000 
    175 H175       -0.8962  -15.9343  -40.0411 H         1 UNK         0.0600 
    176 H176        0.4684  -14.1753  -38.9055 H         1 UNK         0.0600 
    177 H177        0.0701  -13.0263  -40.1774 H         1 UNK         0.0600 
    178 H178       -1.1948  -13.6533  -39.1198 H         1 UNK         0.0600 
    179 H179       -1.8065  -13.7371  -41.6312 H         1 UNK         0.3000 
    180 H180       -3.1386  -15.6293  -44.3329 H         1 UNK         0.0600 
    181 H181       -4.8620  -15.8212  -42.5324 H         1 UNK         0.0600 
    182 H182       -4.5494  -14.1609  -42.0401 H         1 UNK         0.0600 
    183 H183       -5.2287  -14.5022  -43.6320 H         1 UNK         0.0600 
    184 H184       -3.3014  -12.8668  -43.7888 H         1 UNK         0.3000 
    185 H185       -2.1876  -11.4365  -45.1845 H         1 UNK         0.0600 
    186 H186       -0.9985  -11.2499  -42.9875 H         1 UNK         0.0600 
    187 H187        0.5138  -11.7326  -43.7462 H         1 UNK         0.0600 
    188 H188       -0.2545  -10.2096  -44.1898 H         1 UNK         0.0600 
    189 H189        0.5180  -11.7441  -46.1880 H         1 UNK         0.3000 
    190 H190       -0.4625  -24.6639  -49.3465 H         1 UNK         0.3000 
    191 H191       -2.8495  -25.1114  -47.9331 H         1 UNK         0.0600 
    192 H192       -2.3465  -25.0899  -50.9600 H         1 UNK         0.0600 
    193 H193       -3.7264  -25.8295  -50.1599 H         1 UNK         0.0600 
    194 H194       -2.1138  -26.4661  -49.8820 H         1 UNK         0.0600 
    195 H195       -1.8834  -22.3558  -49.8667 H         1 UNK         0.3000 
    196 H196       -4.3572  -21.1214  -50.4022 H         1 UNK         0.0600 
    197 H197       -2.9510  -19.0833  -50.7159 H         1 UNK         0.0600 
    198 H198       -2.2129  -20.4779  -51.4798 H         1 UNK         0.0600 
    199 H199       -1.5884  -19.8818  -49.9401 H         1 UNK         0.0600 
    200 H200       -2.5699  -21.3297  -47.3721 H         1 UNK         0.3000 
    201 H201       -3.7214  -19.1135  -45.9982 H         1 UNK         0.0600 
    202 H202       -2.7769  -20.1673  -44.0234 H         1 UNK         0.0600 
    203 H203       -2.7486  -21.7553  -44.7828 H         1 UNK         0.0600 
    204 H204       -1.6541  -20.5049  -45.3363 H         1 UNK         0.0600 
    205 H205       -4.8369  -22.4189  -46.6134 H         1 UNK         0.3000 
    206 H206       -7.2004  -22.1209  -44.8250 H         1 UNK         0.0600 
    207 H207       -5.8704  -24.2029  -44.6035 H         1 UNK         0.0600 
    208 H208       -7.4649  -24.5580  -45.2503 H         1 UNK         0.0600 
    209 H209       -6.0680  -24.5453  -46.3212 H         1 UNK         0.0600 
    210 H210       -6.2646  -22.7495  -48.2382 H         1 UNK         0.3000 
    211 H211       -8.9397  -23.0816  -49.1785 H         1 UNK         0.0600 
    212 H212       -7.8186  -23.1476  -51.4039 H         1 UNK         0.0600 
    213 H213       -6.9402  -24.1258  -50.2373 H         1 UNK         0.0600 
    214 H214       -6.3333  -22.5335  -50.6877 H         1 UNK         0.0600 
    215 H215       -6.9398  -20.2221  -48.8260 H         1 UNK         0.3000 
    216 H216       -7.1620  -18.0773  -49.1393 H         1 UNK         0.0600 
    217 H217       -9.3186  -16.9578  -49.4838 H         1 UNK         0.0600 
    218 H218       -9.5020  -18.2298  -48.2856 H         1 UNK         0.0600 
    219 H219      -10.0944  -18.4674  -49.9300 H         1 UNK         0.0600 
    220 H220       -8.3547  -20.0545  -51.7719 H         1 UNK         0.3000 
    221 H221       -7.6378  -18.3131  -53.9706 H         1 UNK         0.0600 
    222 H222       -8.0262  -21.3613  -53.8111 H         1 UNK         0.0600 
    223 H223       -9.3042  -20.1934  -54.1410 H         1 UNK         0.0600 
    224 H224       -7.9984  -20.4093  -55.2911 H         1 UNK         0.0600 
    225 H225       -6.0013  -19.2309  -55.6243 H         1 UNK         0.3000 
    226 H226       -3.4051  -18.9029  -54.6874 H         1 UNK         0.0600 
    227 H227       -2.7456  -19.6265  -56.9998 H         1 UNK         0.0600 
    228 H228       -4.3804  -20.2017  -57.2870 H         1 UNK         0.0600 
    229 H229       -4.0775  -18.4838  -57.0247 H         1 UNK         0.0600 
    230 H230       -5.0801  -21.9494  -55.4012 H         1 UNK         0.3000 
    231 H231       -4.7403  -24.0948  -54.9279 H         1 UNK         0.0600 
    232 H232       -5.4464  -23.2337  -52.7734 H         1 UNK         0.0600 
    233 H233       -3.8073  -22.8031  -52.3123 H         1 UNK         0.0600 
    234 H234       -4.2661  -24.4986  -52.4847 H         1 UNK         0.0600 
    235 H235       -1.9163  -23.2300  -52.9986 H         1 UNK         0.3000 
    236 H236       -0.2570  -25.3268  -54.0855 H         1 UNK         0.0600 
    237 H237       -0.0751  -24.6284  -51.7183 H         1 UNK         0.0600 
    238 H238        1.4482  -24.3248  -52.5333 H         1 UNK         0.0600 
    239 H239        0.3583  -22.9854  -52.1980 H         1 UNK         0.0600 
    240 H240       -0.7036  -21.8947  -54.7942 H         1 UNK         0.3000 
    241 H241        1.7340  -21.6674  -56.4238 H         1 UNK         0.0600 
    242 H242        0.3985  -22.3917  -59.6245 H         1 UNK         0.3800 
    243 H243        1.8143  -22.1151  -58.6504 H         1 UNK         0.3800 
    244 H244        0.8038  -19.3887  -56.9799 H         1 UNK         0.0800 
    245 H245       -0.5751  -19.7114  -55.9679 H         1 UNK         0.0800 
    246 H246       -0.1140  -20.3004  -53.1366 H         1 UNK         0.0800 
    247 H247       -0.7224  -18.7933  -53.7849 H         1 UNK         0.0800 
@<TRIPOS>BOND
     1    1    2 1    
     2    1  127 1    
     3    1  128 1    
     4    1  129 1    
     5    2    3 2    
     6    2    4 am   BACKBONE|DICT|INTERRES
     7    4    5 1    
     8    4  130 1    
     9    5    6 1    
    10    5   65 1    
    11    5  131 1    
    12    6    7 1    
    13    6  132 1    
    14    6  133 1    
    15    7    8 1    
    16    8    9 1    
    17    8  134 1    
    18    8  135 1    
    19    9   10 ar   
    20    9   14 ar   
    21   10   11 ar   
    22   10  136 1    
    23   11   12 ar   
    24   11  126 1    
    25   12   13 ar   
    26   12  137 1    
    27   13   14 ar   
    28   13   15 1    
    29   14  138 1    
    30   15   16 1    
    31   15  139 1    
    32   15  140 1    
    33   16   17 1    
    34   17   18 1    
    35   17  141 1    
    36   17  142 1    
    37   18   19 1    
    38   18   67 1    
    39   18  143 1    
    40   19   20 am   BACKBONE|DICT|INTERRES
    41   19  144 1    
    42   20   21 2    
    43   20   22 1    
    44   22   23 1    
    45   22   24 1    
    46   22  145 1    
    47   23  146 1    
    48   23  147 1    
    49   23  148 1    
    50   24   25 am   BACKBONE|DICT|INTERRES
    51   24  149 1    
    52   25   26 2    
    53   25   27 1    
    54   27   28 1    
    55   27   29 1    
    56   27  150 1    
    57   28  151 1    
    58   28  152 1    
    59   28  153 1    
    60   29   30 am   BACKBONE|DICT|INTERRES
    61   29  154 1    
    62   30   31 2    
    63   30   32 1    
    64   32   33 1    
    65   32   34 1    
    66   32  155 1    
    67   33  156 1    
    68   33  157 1    
    69   33  158 1    
    70   34   35 am   BACKBONE|DICT|INTERRES
    71   34  159 1    
    72   35   36 2    
    73   35   37 1    
    74   37   38 1    
    75   37   39 1    
    76   37  160 1    
    77   38  161 1    
    78   38  162 1    
    79   38  163 1    
    80   39   40 am   BACKBONE|DICT|INTERRES
    81   39  164 1    
    82   40   41 2    
    83   40   42 1    
    84   42   43 1    
    85   42   44 1    
    86   42  165 1    
    87   43  166 1    
    88   43  167 1    
    89   43  168 1    
    90   44   45 am   BACKBONE|DICT|INTERRES
    91   44  169 1    
    92   45   46 2    
    93   45   47 1    
    94   47   48 1    
    95   47   49 1    
    96   47  170 1    
    97   48  171 1    
    98   48  172 1    
    99   48  173 1    
   100   49   50 am   BACKBONE|DICT|INTERRES
   101   49  174 1    
   102   50   51 2    
   103   50   52 1    
   104   52   53 1    
   105   52   54 1    
   106   52  175 1    
   107   53  176 1    
   108   53  177 1    
   109   53  178 1    
   110   54   55 am   BACKBONE|DICT|INTERRES
   111   54  179 1    
   112   55   56 2    
   113   55   57 1    
   114   57   58 1    
   115   57   59 1    
   116   57  180 1    
   117   58  181 1    
   118   58  182 1    
   119   58  183 1    
   120   59   60 am   BACKBONE|DICT|INTERRES
   121   59  184 1    
   122   60   61 2    
   123   60   62 1    
   124   62   63 1    
   125   62   64 1    
   126   62  185 1    
   127   63  186 1    
   128   63  187 1    
   129   63  188 1    
   130   64   65 am   BACKBONE|DICT|INTERRES
   131   64  189 1    
   132   65   66 2    
   133   67   68 2    
   134   67   69 am   BACKBONE|DICT|INTERRES
   135   69   70 1    
   136   69  190 1    
   137   70   71 1    
   138   70   72 1    
   139   70  191 1    
   140   71  192 1    
   141   71  193 1    
   142   71  194 1    
   143   72   73 2    
   144   72   74 am   BACKBONE|DICT|INTERRES
   145   74   75 1    
   146   74  195 1    
   147   75   76 1    
   148   75   77 1    
   149   75  196 1    
   150   76  197 1    
   151   76  198 1    
   152   76  199 1    
   153   77   78 2    
   154   77   79 am   BACKBONE|DICT|INTERRES
   155   79   80 1    
   156   79  200 1    
   157   80   81 1    
   158   80   82 1    
   159   80  201 1    
   160   81  202 1    
   161   81  203 1    
   162   81  204 1    
   163   82   83 2    
   164   82   84 am   BACKBONE|DICT|INTERRES
   165   84   85 1    
   166   84  205 1    
   167   85   86 1    
   168   85   87 1    
   169   85  206 1    
   170   86  207 1    
   171   86  208 1    
   172   86  209 1    
   173   87   88 2    
   174   87   89 am   BACKBONE|DICT|INTERRES
   175   89   90 1    
   176   89  210 1    
   177   90   91 1    
   178   90   92 1    
   179   90  211 1    
   180   91  212 1    
   181   91  213 1    
   182   91  214 1    
   183   92   93 2    
   184   92   94 am   BACKBONE|DICT|INTERRES
   185   94   95 1    
   186   94  215 1    
   187   95   96 1    
   188   95   97 1    
   189   95  216 1    
   190   96  217 1    
   191   96  218 1    
   192   96  219 1    
   193   97   98 2    
   194   97   99 am   BACKBONE|DICT|INTERRES
   195   99  100 1    
   196   99  220 1    
   197  100  101 1    
   198  100  102 1    
   199  100  221 1    
   200  101  222 1    
   201  101  223 1    
   202  101  224 1    
   203  102  103 2    
   204  102  104 am   BACKBONE|DICT|INTERRES
   205  104  105 1    
   206  104  225 1    
   207  105  106 1    
   208  105  107 1    
   209  105  226 1    
   210  106  227 1    
   211  106  228 1    
   212  106  229 1    
   213  107  108 2    
   214  107  109 am   BACKBONE|DICT|INTERRES
   215  109  110 1    
   216  109  230 1    
   217  110  111 1    
   218  110  112 1    
   219  110  231 1    
   220  111  232 1    
   221  111  233 1    
   222  111  234 1    
   223  112  113 2    
   224  112  114 am   BACKBONE|DICT|INTERRES
   225  114  115 1    
   226  114  235 1    
   227  115  116 1    
   228  115  117 1    
   229  115  236 1    
   230  116  237 1    
   231  116  238 1    
   232  116  239 1    
   233  117  118 2    
   234  117  119 am   BACKBONE|DICT|INTERRES
   235  119  120 1    
   236  119  240 1    
   237  120  121 1    
   238  120  124 1    
   239  120  241 1    
   240  121  122 am   BACKBONE|DICT|INTERRES
   241  121  123 2    
   242  122  242 1    
   243  122  243 1    
   244  124  125 1    
   245  124  244 1    
   246  124  245 1    
   247  125  126 1    
   248  126  246 1    
   249  126  247 1    
@<TRIPOS>SUBSTRUCTURE
     1 UNK         1 GROUP             0       ****    0 ROOT    
