@<TRIPOS>MOLECULE
3R540
247   249    1
SMALL
USER_CHARGES


@<TRIPOS>ATOM
      1 CA          2.3987  -13.7636  -51.0130 C.3       0 UNK        -0.1800 
      2 C           1.2414  -13.9831  -50.0485 C.2       0 UNK         0.5000 
      3 O           0.6992  -15.0856  -49.9888 O.2       0 UNK        -0.5000 
      4 N           0.8663  -12.9349  -49.3044 N.am      1 UNK        -0.5000 
      5 CA         -0.1554  -12.9665  -48.2528 C.3       1 UNK         0.1400 
      6 C6         -0.7826  -11.5519  -48.0726 C.3       23 UNK        -0.0398 
      7 S7         -2.2862  -11.4537  -47.0279 S.3       23 UNK        -0.2404 
      8 C8         -3.6405  -11.7986  -48.2027 C.3       23 UNK        -0.0205 
      9 C9         -3.5233  -13.1855  -48.8172 C.ar      23 UNK        -0.0193 
     10 C10        -3.3768  -13.3316  -50.1992 C.ar      23 UNK        -0.1150 
     11 C11        -3.1684  -14.5942  -50.7613 C.ar      23 UNK        -0.0193 
     12 C12        -3.1047  -15.7174  -49.9310 C.ar      23 UNK        -0.1150 
     13 C13        -3.2479  -15.5817  -48.5470 C.ar      23 UNK        -0.0193 
     14 C14        -3.4901  -14.3194  -47.9991 C.ar      23 UNK        -0.1150 
     15 C15        -3.0658  -16.7802  -47.6325 C.3       23 UNK        -0.0205 
     16 S16        -1.2960  -17.0248  -47.2805 S.3       23 UNK        -0.2404 
     17 C17        -1.3446  -18.0744  -45.7951 C.3       23 UNK        -0.0398 
     18 CA         -1.2015  -19.5810  -46.1179 C.3       11 UNK         0.1400 
     19 N          -0.6054  -20.3187  -45.0021 N.am      11 UNK        -0.5000 
     20 C          -0.2741  -21.6177  -45.0190 C.2       10 UNK         0.5000 
     21 O          -0.3680  -22.3396  -46.0104 O.2       10 UNK        -0.5000 
     22 CA          0.1796  -22.2245  -43.6805 C.3       10 UNK         0.1400 
     23 CB          1.6657  -21.9356  -43.4164 C.3       10 UNK        -0.1800 
     24 N          -0.6313  -21.7349  -42.5642 N.am      10 UNK        -0.5000 
     25 C          -1.9269  -22.0340  -42.3853 C.2       9 UNK         0.5000 
     26 O          -2.5594  -22.7965  -43.1148 O.2       9 UNK        -0.5000 
     27 CA         -2.6474  -21.3236  -41.2249 C.3       9 UNK         0.1400 
     28 CB         -2.3938  -22.0571  -39.8997 C.3       9 UNK        -0.1800 
     29 N          -2.2443  -19.9231  -41.0896 N.am      9 UNK        -0.5000 
     30 C          -2.4948  -18.9676  -41.9968 C.2       8 UNK         0.5000 
     31 O          -3.1392  -19.1552  -43.0275 O.2       8 UNK        -0.5000 
     32 CA         -1.8606  -17.5878  -41.7396 C.3       8 UNK         0.1400 
     33 CB         -2.7783  -16.7203  -40.8664 C.3       8 UNK        -0.1800 
     34 N          -0.5365  -17.6852  -41.1179 N.am      8 UNK        -0.5000 
     35 C           0.5258  -18.2426  -41.7118 C.2       7 UNK         0.5000 
     36 O           0.5114  -18.6724  -42.8695 O.2       7 UNK        -0.5000 
     37 CA          1.7821  -18.4215  -40.8505 C.3       7 UNK         0.1400 
     38 CB          1.5995  -19.6074  -39.8817 C.3       7 UNK        -0.1800 
     39 N           2.9056  -18.6646  -41.7450 N.am      7 UNK        -0.5000 
     40 C           4.2039  -18.6641  -41.4255 C.2       6 UNK         0.5000 
     41 O           4.6328  -18.4850  -40.2849 O.2       6 UNK        -0.5000 
     42 CA          5.1962  -18.8896  -42.5851 C.3       6 UNK         0.1400 
     43 CB          5.5317  -20.3833  -42.7182 C.3       6 UNK        -0.1800 
     44 N           4.7102  -18.3921  -43.8769 N.am      6 UNK        -0.5000 
     45 C           4.4843  -17.1010  -44.1555 C.2       5 UNK         0.5000 
     46 O           4.6869  -16.1878  -43.3514 O.2       5 UNK        -0.5000 
     47 CA          3.9051  -16.8042  -45.5549 C.3       5 UNK         0.1400 
     48 CB          2.4401  -17.2676  -45.6329 C.3       5 UNK        -0.1800 
     49 N           3.9631  -15.3824  -45.8940 N.am      5 UNK        -0.5000 
     50 C           5.0822  -14.6745  -46.1018 C.2       4 UNK         0.5000 
     51 O           6.2088  -15.1712  -46.1495 O.2       4 UNK        -0.5000 
     52 CA          4.9169  -13.1539  -46.2752 C.3       4 UNK         0.1400 
     53 CB          4.7305  -12.7956  -47.7588 C.3       4 UNK        -0.1800 
     54 N           3.7760  -12.6489  -45.5086 N.am      4 UNK        -0.5000 
     55 C           3.8388  -12.2076  -44.2442 C.2       3 UNK         0.5000 
     56 O           4.8893  -12.1070  -43.6092 O.2       3 UNK        -0.5000 
     57 CA          2.5134  -11.7916  -43.5714 C.3       3 UNK         0.1400 
     58 CB          2.2956  -10.2770  -43.7105 C.3       3 UNK        -0.1800 
     59 N           1.3452  -12.4868  -44.1136 N.am      3 UNK        -0.5000 
     60 C           1.0291  -13.7635  -43.8569 C.2       2 UNK         0.5000 
     61 O           1.6409  -14.4716  -43.0586 O.2       2 UNK        -0.5000 
     62 CA         -0.1610  -14.3628  -44.6352 C.3       2 UNK         0.1400 
     63 CB         -1.4372  -14.3197  -43.7825 C.3       2 UNK        -0.1800 
     64 N          -0.4425  -13.7391  -45.9322 N.am      2 UNK        -0.5000 
     65 C           0.4126  -13.5846  -46.9508 C.2       1 UNK         0.5000 
     66 O           1.6030  -13.8960  -46.8733 O.2       1 UNK        -0.5000 
     67 C          -2.5505  -20.1917  -46.5491 C.2       11 UNK         0.5000 
     68 O          -2.7513  -20.4482  -47.7357 O.2       11 UNK        -0.5000 
     69 N          -3.4310  -20.4515  -45.5718 N.am      12 UNK        -0.5000 
     70 CA         -4.7297  -21.0928  -45.7709 C.3       12 UNK         0.1400 
     71 CB         -5.5213  -21.0781  -44.4549 C.3       12 UNK        -0.1800 
     72 C          -4.6088  -22.5227  -46.3252 C.2       12 UNK         0.5000 
     73 O          -5.3344  -22.8676  -47.2563 O.2       12 UNK        -0.5000 
     74 N          -3.6732  -23.3121  -45.7775 N.am      13 UNK        -0.5000 
     75 CA         -3.3604  -24.6660  -46.2384 C.3       13 UNK         0.1400 
     76 CB         -2.3679  -25.3281  -45.2713 C.3       13 UNK        -0.1800 
     77 C          -2.8235  -24.6973  -47.6810 C.2       13 UNK         0.5000 
     78 O          -3.2372  -25.5567  -48.4583 O.2       13 UNK        -0.5000 
     79 N          -1.9448  -23.7430  -48.0204 N.am      14 UNK        -0.5000 
     80 CA         -1.4190  -23.5336  -49.3687 C.3       14 UNK         0.1400 
     81 CB         -0.2987  -22.4825  -49.3288 C.3       14 UNK        -0.1800 
     82 C          -2.5217  -23.1349  -50.3652 C.2       14 UNK         0.5000 
     83 O          -2.6310  -23.7477  -51.4303 O.2       14 UNK        -0.5000 
     84 N          -3.3368  -22.1419  -49.9825 N.am      15 UNK        -0.5000 
     85 CA         -4.4599  -21.6233  -50.7636 C.3       15 UNK         0.1400 
     86 CB         -5.0299  -20.3742  -50.0763 C.3       15 UNK        -0.1800 
     87 C          -5.5691  -22.6598  -51.0228 C.2       15 UNK         0.5000 
     88 O          -6.2052  -22.6089  -52.0759 O.2       15 UNK        -0.5000 
     89 N          -5.7574  -23.6093  -50.0959 N.am      16 UNK        -0.5000 
     90 CA         -6.6907  -24.7364  -50.1847 C.3       16 UNK         0.1400 
     91 CB         -6.9409  -25.2908  -48.7708 C.3       16 UNK        -0.1800 
     92 C          -6.2324  -25.8289  -51.1795 C.2       16 UNK         0.5000 
     93 O          -6.1495  -27.0042  -50.8208 O.2       16 UNK        -0.5000 
     94 N          -5.9459  -25.4106  -52.4194 N.am      17 UNK        -0.5000 
     95 CA         -5.6103  -26.1981  -53.6118 C.3       17 UNK         0.1400 
     96 CB         -6.7796  -27.1297  -53.9902 C.3       17 UNK        -0.1800 
     97 C          -4.2687  -26.9615  -53.5710 C.2       17 UNK         0.5000 
     98 O          -3.9275  -27.6000  -54.5679 O.2       17 UNK        -0.5000 
     99 N          -3.5150  -26.8831  -52.4647 N.am      18 UNK        -0.5000 
    100 CA        -2.1986  -27.5123  -52.3238 C.3       18 UNK         0.1400 
    101 CB        -1.7888  -27.5355  -50.8451 C.3       18 UNK        -0.1800 
    102 C         -1.1386  -26.8040  -53.1855 C.2       18 UNK         0.5000 
    103 O         -0.3916  -27.4663  -53.9068 O.2       18 UNK        -0.5000 
    104 N         -1.1363  -25.4682  -53.1218 N.am      19 UNK        -0.5000 
    105 CA        -0.3909  -24.5767  -54.0097 C.3       19 UNK         0.1400 
    106 CB         0.5886  -23.7426  -53.1705 C.3       19 UNK        -0.1800 
    107 C         -1.3423  -23.6490  -54.7888 C.2       19 UNK         0.5000 
    108 O         -0.9219  -23.0621  -55.7851 O.2       19 UNK        -0.5000 
    109 N         -2.5859  -23.4972  -54.3045 N.am      20 UNK        -0.5000 
    110 CA        -3.6864  -22.6562  -54.7961 C.3       20 UNK         0.1400 
    111 CB        -4.0282  -22.9557  -56.2675 C.3       20 UNK        -0.1800 
    112 C         -3.4912  -21.1465  -54.5523 C.2       20 UNK         0.5000 
    113 O         -4.4854  -20.4317  -54.4169 O.2       20 UNK        -0.5000 
    114 N         -2.2337  -20.6928  -54.4538 N.am      21 UNK        -0.5000 
    115 CA        -1.8017  -19.3239  -54.1661 C.3       21 UNK         0.1400 
    116 CB        -2.0992  -18.9754  -52.6875 C.3       21 UNK        -0.1800 
    117 C         -2.3845  -18.3273  -55.1917 C.2       21 UNK         0.5000 
    118 O         -2.1259  -18.4769  -56.3875 O.2       21 UNK        -0.5000 
    119 N         -3.1663  -17.3537  -54.7166 N.am      22 UNK        -0.5000 
    120 CA        -3.9279  -16.3938  -55.5286 C.3       22 UNK         0.1400 
    121 C         -5.3469  -16.8883  -55.9452 C.2       22 UNK         0.5000 
    122 N         -5.7685  -18.1022  -55.6091 N.am      22 UNK        -0.7600 
    123 O         -6.0795  -16.1610  -56.6107 O.2       22 UNK        -0.5000 
    124 C124       -3.9522  -14.9894  -54.8679 C.3       23 UNK        -0.0398 
    125 S125       -4.5344  -14.9810  -53.1336 S.3       23 UNK        -0.2404 
    126 C126       -2.9591  -14.7309  -52.2595 C.3       23 UNK        -0.0205 
    127 H127        3.2190  -14.4398  -50.7720 H         1 UNK         0.0600 
    128 H128        2.7774  -12.7421  -50.9679 H         1 UNK         0.0600 
    129 H129        2.0788  -13.9635  -52.0356 H         1 UNK         0.0600 
    130 H130        1.3788  -12.0694  -49.3892 H         1 UNK         0.3000 
    131 H131       -0.9313  -13.6488  -48.5921 H         1 UNK         0.0600 
    132 H132       -0.0419  -10.8667  -47.6571 H         1 UNK         0.0800 
    133 H133       -1.0418  -11.1431  -49.0505 H         1 UNK         0.0800 
    134 H134       -3.6505  -11.0260  -48.9731 H         1 UNK         0.0800 
    135 H135       -4.5936  -11.7237  -47.6776 H         1 UNK         0.0800 
    136 H136       -3.3965  -12.4599  -50.8383 H         1 UNK         0.1150 
    137 H137       -2.9081  -16.6917  -50.3561 H         1 UNK         0.1150 
    138 H138       -3.5855  -14.2092  -46.9281 H         1 UNK         0.1150 
    139 H139       -3.6168  -16.6277  -46.7033 H         1 UNK         0.0800 
    140 H140       -3.4764  -17.6772  -48.0986 H         1 UNK         0.0800 
    141 H141       -2.2359  -17.8593  -45.2041 H         1 UNK         0.0800 
    142 H142       -0.5059  -17.7531  -45.1779 H         1 UNK         0.0800 
    143 H143       -0.5091  -19.6915  -46.9555 H         1 UNK         0.0600 
    144 H144       -0.4353  -19.7920  -44.1512 H         1 UNK         0.3000 
    145 H145        0.0517  -23.3073  -43.7425 H         1 UNK         0.0600 
    146 H146        1.9938  -22.3762  -42.4749 H         1 UNK         0.0600 
    147 H147        2.2878  -22.3580  -44.2064 H         1 UNK         0.0600 
    148 H148        1.8737  -20.8674  -43.3772 H         1 UNK         0.0600 
    149 H149       -0.1974  -21.0699  -41.9436 H         1 UNK         0.3000 
    150 H150       -3.7194  -21.3501  -41.4316 H         1 UNK         0.0600 
    151 H151       -2.6993  -23.1021  -39.9680 H         1 UNK         0.0600 
    152 H152       -2.9614  -21.6067  -39.0852 H         1 UNK         0.0600 
    153 H153       -1.3387  -22.0407  -39.6232 H         1 UNK         0.0600 
    154 H154       -1.7143  -19.6787  -40.2668 H         1 UNK         0.3000 
    155 H155       -1.7439  -17.0985  -42.7082 H         1 UNK         0.0600 
    156 H156       -2.9274  -17.1575  -39.8784 H         1 UNK         0.0600 
    157 H157       -2.3666  -15.7201  -40.7317 H         1 UNK         0.0600 
    158 H158       -3.7605  -16.6067  -41.3273 H         1 UNK         0.0600 
    159 H159       -0.4555  -17.3532  -40.1674 H         1 UNK         0.3000 
    160 H160        1.9611  -17.5004  -40.2925 H         1 UNK         0.0600 
    161 H161        1.4636  -20.5473  -40.4178 H         1 UNK         0.0600 
    162 H162        0.7303  -19.4652  -39.2387 H         1 UNK         0.0600 
    163 H163        2.4616  -19.7234  -39.2252 H         1 UNK         0.0600 
    164 H164        2.6323  -18.7829  -42.7122 H         1 UNK         0.3000 
    165 H165        6.1153  -18.3524  -42.3414 H         1 UNK         0.0600 
    166 H166        6.2931  -20.5511  -43.4801 H         1 UNK         0.0600 
    167 H167        5.9201  -20.7811  -41.7797 H         1 UNK         0.0600 
    168 H168        4.6529  -20.9718  -42.9846 H         1 UNK         0.0600 
    169 H169        4.5278  -19.0875  -44.5859 H         1 UNK         0.3000 
    170 H170        4.4902  -17.3513  -46.2968 H         1 UNK         0.0600 
    171 H171        2.3623  -18.3529  -45.5601 H         1 UNK         0.0600 
    172 H172        1.8502  -16.8481  -44.8185 H         1 UNK         0.0600 
    173 H173        1.9744  -16.9725  -46.5739 H         1 UNK         0.0600 
    174 H174        3.0786  -14.8897  -45.9310 H         1 UNK         0.3000 
    175 H175        5.8343  -12.6746  -45.9271 H         1 UNK         0.0600 
    176 H176        5.5910  -13.1168  -48.3469 H         1 UNK         0.0600 
    177 H177        3.8484  -13.2740  -48.1845 H         1 UNK         0.0600 
    178 H178        4.6271  -11.7191  -47.8947 H         1 UNK         0.0600 
    179 H179        2.8672  -12.7721  -45.9422 H         1 UNK         0.3000 
    180 H180        2.5946  -12.0274  -42.5081 H         1 UNK         0.0600 
    181 H181        2.1938   -9.9788  -44.7548 H         1 UNK         0.0600 
    182 H182        3.1355   -9.7215  -43.2910 H         1 UNK         0.0600 
    183 H183        1.3986   -9.9568  -43.1801 H         1 UNK         0.0600 
    184 H184        0.7746  -11.9757  -44.7702 H         1 UNK         0.3000 
    185 H185        0.0779  -15.4080  -44.8288 H         1 UNK         0.0600 
    186 H186       -1.2595  -14.7335  -42.7896 H         1 UNK         0.0600 
    187 H187       -1.7961  -13.2983  -43.6496 H         1 UNK         0.0600 
    188 H188       -2.2374  -14.9015  -44.2408 H         1 UNK         0.0600 
    189 H189       -1.3891  -13.4103  -46.0665 H         1 UNK         0.3000 
    190 H190       -3.2099  -20.1660  -44.6214 H         1 UNK         0.3000 
    191 H191       -5.2808  -20.4995  -46.5033 H         1 UNK         0.0600 
    192 H192       -5.0075  -21.6312  -43.6685 H         1 UNK         0.0600 
    193 H193       -6.5052  -21.5301  -44.5862 H         1 UNK         0.0600 
    194 H194       -5.6756  -20.0591  -44.0998 H         1 UNK         0.0600 
    195 H195       -3.1481  -22.9710  -44.9777 H         1 UNK         0.3000 
    196 H196       -4.2871  -25.2433  -46.2192 H         1 UNK         0.0600 
    197 H197       -2.1359  -26.3463  -45.5862 H         1 UNK         0.0600 
    198 H198       -2.7788  -25.3851  -44.2632 H         1 UNK         0.0600 
    199 H199       -1.4283  -24.7780  -45.2188 H         1 UNK         0.0600 
    200 H200       -1.6145  -23.1048  -47.3019 H         1 UNK         0.3000 
    201 H201       -0.9809  -24.4721  -49.7102 H         1 UNK         0.0600 
    202 H202        0.5236  -22.8115  -48.6934 H         1 UNK         0.0600 
    203 H203       -0.6511  -21.5258  -48.9441 H         1 UNK         0.0600 
    204 H204        0.1123  -22.3014  -50.3212 H         1 UNK         0.0600 
    205 H205       -3.1551  -21.6759  -49.0959 H         1 UNK         0.3000 
    206 H206       -4.0654  -21.3203  -51.7333 H         1 UNK         0.0600 
    207 H207       -4.2704  -19.5984  -49.9768 H         1 UNK         0.0600 
    208 H208       -5.8525  -19.9506  -50.6539 H         1 UNK         0.0600 
    209 H209       -5.4083  -20.6032  -49.0796 H         1 UNK         0.0600 
    210 H210       -5.2226  -23.5449  -49.2366 H         1 UNK         0.3000 
    211 H211       -7.6439  -24.3565  -50.5575 H         1 UNK         0.0600 
    212 H212       -6.0224  -25.6662  -48.3188 H         1 UNK         0.0600 
    213 H213       -7.6599  -26.1108  -48.7893 H         1 UNK         0.0600 
    214 H214       -7.3480  -24.5226  -48.1133 H         1 UNK         0.0600 
    215 H215       -6.0322  -24.4086  -52.5718 H         1 UNK         0.3000 
    216 H216       -5.5041  -25.4695  -54.4168 H         1 UNK         0.0600 
    217 H217       -6.6045  -27.6092  -54.9541 H         1 UNK         0.0600 
    218 H218       -7.7149  -26.5760  -54.0720 H         1 UNK         0.0600 
    219 H219       -6.9211  -27.9221  -53.2547 H         1 UNK         0.0600 
    220 H220       -3.8654  -26.3599  -51.6747 H         1 UNK         0.3000 
    221 H221       -2.2742  -28.5465  -52.6666 H         1 UNK         0.0600 
    222 H222       -1.7012  -26.5300  -50.4378 H         1 UNK         0.0600 
    223 H223       -2.5183  -28.0760  -50.2415 H         1 UNK         0.0600 
    224 H224       -0.8252  -28.0290  -50.7138 H         1 UNK         0.0600 
    225 H225       -1.7604  -25.0148  -52.4603 H         1 UNK         0.3000 
    226 H226        0.1783  -25.1505  -54.7438 H         1 UNK         0.0600 
    227 H227        1.2518  -24.3799  -52.5854 H         1 UNK         0.0600 
    228 H228        1.2149  -23.1174  -53.8080 H         1 UNK         0.0600 
    229 H229        0.0601  -23.0832  -52.4830 H         1 UNK         0.0600 
    230 H230       -2.7680  -23.9155  -53.3999 H         1 UNK         0.3000 
    231 H231       -4.5531  -22.9463  -54.2017 H         1 UNK         0.0600 
    232 H232       -4.9397  -22.4358  -56.5648 H         1 UNK         0.0600 
    233 H233       -4.1951  -24.0213  -56.4254 H         1 UNK         0.0600 
    234 H234       -3.2381  -22.6331  -56.9457 H         1 UNK         0.0600 
    235 H235       -1.4974  -21.3498  -54.6797 H         1 UNK         0.3000 
    236 H236       -0.7193  -19.3046  -54.3000 H         1 UNK         0.0600 
    237 H237       -1.6442  -19.7056  -52.0176 H         1 UNK         0.0600 
    238 H238       -1.6871  -18.0016  -52.4212 H         1 UNK         0.0600 
    239 H239       -3.1680  -18.9587  -52.4709 H         1 UNK         0.0600 
    240 H240       -3.3618  -17.3282  -53.7268 H         1 UNK         0.3000 
    241 H241       -3.4016  -16.2688  -56.4767 H         1 UNK         0.0600 
    242 H242       -6.6878  -18.3958  -55.8975 H         1 UNK         0.3800 
    243 H243       -5.1815  -18.7542  -55.0966 H         1 UNK         0.3800 
    244 H244       -2.9490  -14.5635  -54.9086 H         1 UNK         0.0800 
    245 H245       -4.5726  -14.2997  -55.4426 H         1 UNK         0.0800 
    246 H246       -2.2842  -15.5616  -52.4691 H         1 UNK         0.0800 
    247 H247       -2.4684  -13.8349  -52.6434 H         1 UNK         0.0800 
@<TRIPOS>BOND
     1    1    2 1    
     2    1  127 1    
     3    1  128 1    
     4    1  129 1    
     5    2    3 2    
     6    2    4 am   BACKBONE|DICT|INTERRES
     7    4    5 1    
     8    4  130 1    
     9    5    6 1    
    10    5   65 1    
    11    5  131 1    
    12    6    7 1    
    13    6  132 1    
    14    6  133 1    
    15    7    8 1    
    16    8    9 1    
    17    8  134 1    
    18    8  135 1    
    19    9   10 ar   
    20    9   14 ar   
    21   10   11 ar   
    22   10  136 1    
    23   11   12 ar   
    24   11  126 1    
    25   12   13 ar   
    26   12  137 1    
    27   13   14 ar   
    28   13   15 1    
    29   14  138 1    
    30   15   16 1    
    31   15  139 1    
    32   15  140 1    
    33   16   17 1    
    34   17   18 1    
    35   17  141 1    
    36   17  142 1    
    37   18   19 1    
    38   18   67 1    
    39   18  143 1    
    40   19   20 am   BACKBONE|DICT|INTERRES
    41   19  144 1    
    42   20   21 2    
    43   20   22 1    
    44   22   23 1    
    45   22   24 1    
    46   22  145 1    
    47   23  146 1    
    48   23  147 1    
    49   23  148 1    
    50   24   25 am   BACKBONE|DICT|INTERRES
    51   24  149 1    
    52   25   26 2    
    53   25   27 1    
    54   27   28 1    
    55   27   29 1    
    56   27  150 1    
    57   28  151 1    
    58   28  152 1    
    59   28  153 1    
    60   29   30 am   BACKBONE|DICT|INTERRES
    61   29  154 1    
    62   30   31 2    
    63   30   32 1    
    64   32   33 1    
    65   32   34 1    
    66   32  155 1    
    67   33  156 1    
    68   33  157 1    
    69   33  158 1    
    70   34   35 am   BACKBONE|DICT|INTERRES
    71   34  159 1    
    72   35   36 2    
    73   35   37 1    
    74   37   38 1    
    75   37   39 1    
    76   37  160 1    
    77   38  161 1    
    78   38  162 1    
    79   38  163 1    
    80   39   40 am   BACKBONE|DICT|INTERRES
    81   39  164 1    
    82   40   41 2    
    83   40   42 1    
    84   42   43 1    
    85   42   44 1    
    86   42  165 1    
    87   43  166 1    
    88   43  167 1    
    89   43  168 1    
    90   44   45 am   BACKBONE|DICT|INTERRES
    91   44  169 1    
    92   45   46 2    
    93   45   47 1    
    94   47   48 1    
    95   47   49 1    
    96   47  170 1    
    97   48  171 1    
    98   48  172 1    
    99   48  173 1    
   100   49   50 am   BACKBONE|DICT|INTERRES
   101   49  174 1    
   102   50   51 2    
   103   50   52 1    
   104   52   53 1    
   105   52   54 1    
   106   52  175 1    
   107   53  176 1    
   108   53  177 1    
   109   53  178 1    
   110   54   55 am   BACKBONE|DICT|INTERRES
   111   54  179 1    
   112   55   56 2    
   113   55   57 1    
   114   57   58 1    
   115   57   59 1    
   116   57  180 1    
   117   58  181 1    
   118   58  182 1    
   119   58  183 1    
   120   59   60 am   BACKBONE|DICT|INTERRES
   121   59  184 1    
   122   60   61 2    
   123   60   62 1    
   124   62   63 1    
   125   62   64 1    
   126   62  185 1    
   127   63  186 1    
   128   63  187 1    
   129   63  188 1    
   130   64   65 am   BACKBONE|DICT|INTERRES
   131   64  189 1    
   132   65   66 2    
   133   67   68 2    
   134   67   69 am   BACKBONE|DICT|INTERRES
   135   69   70 1    
   136   69  190 1    
   137   70   71 1    
   138   70   72 1    
   139   70  191 1    
   140   71  192 1    
   141   71  193 1    
   142   71  194 1    
   143   72   73 2    
   144   72   74 am   BACKBONE|DICT|INTERRES
   145   74   75 1    
   146   74  195 1    
   147   75   76 1    
   148   75   77 1    
   149   75  196 1    
   150   76  197 1    
   151   76  198 1    
   152   76  199 1    
   153   77   78 2    
   154   77   79 am   BACKBONE|DICT|INTERRES
   155   79   80 1    
   156   79  200 1    
   157   80   81 1    
   158   80   82 1    
   159   80  201 1    
   160   81  202 1    
   161   81  203 1    
   162   81  204 1    
   163   82   83 2    
   164   82   84 am   BACKBONE|DICT|INTERRES
   165   84   85 1    
   166   84  205 1    
   167   85   86 1    
   168   85   87 1    
   169   85  206 1    
   170   86  207 1    
   171   86  208 1    
   172   86  209 1    
   173   87   88 2    
   174   87   89 am   BACKBONE|DICT|INTERRES
   175   89   90 1    
   176   89  210 1    
   177   90   91 1    
   178   90   92 1    
   179   90  211 1    
   180   91  212 1    
   181   91  213 1    
   182   91  214 1    
   183   92   93 2    
   184   92   94 am   BACKBONE|DICT|INTERRES
   185   94   95 1    
   186   94  215 1    
   187   95   96 1    
   188   95   97 1    
   189   95  216 1    
   190   96  217 1    
   191   96  218 1    
   192   96  219 1    
   193   97   98 2    
   194   97   99 am   BACKBONE|DICT|INTERRES
   195   99  100 1    
   196   99  220 1    
   197  100  101 1    
   198  100  102 1    
   199  100  221 1    
   200  101  222 1    
   201  101  223 1    
   202  101  224 1    
   203  102  103 2    
   204  102  104 am   BACKBONE|DICT|INTERRES
   205  104  105 1    
   206  104  225 1    
   207  105  106 1    
   208  105  107 1    
   209  105  226 1    
   210  106  227 1    
   211  106  228 1    
   212  106  229 1    
   213  107  108 2    
   214  107  109 am   BACKBONE|DICT|INTERRES
   215  109  110 1    
   216  109  230 1    
   217  110  111 1    
   218  110  112 1    
   219  110  231 1    
   220  111  232 1    
   221  111  233 1    
   222  111  234 1    
   223  112  113 2    
   224  112  114 am   BACKBONE|DICT|INTERRES
   225  114  115 1    
   226  114  235 1    
   227  115  116 1    
   228  115  117 1    
   229  115  236 1    
   230  116  237 1    
   231  116  238 1    
   232  116  239 1    
   233  117  118 2    
   234  117  119 am   BACKBONE|DICT|INTERRES
   235  119  120 1    
   236  119  240 1    
   237  120  121 1    
   238  120  124 1    
   239  120  241 1    
   240  121  122 am   BACKBONE|DICT|INTERRES
   241  121  123 2    
   242  122  242 1    
   243  122  243 1    
   244  124  125 1    
   245  124  244 1    
   246  124  245 1    
   247  125  126 1    
   248  126  246 1    
   249  126  247 1    
@<TRIPOS>SUBSTRUCTURE
     1 UNK         1 GROUP             0       ****    0 ROOT    
