@<TRIPOS>MOLECULE
3R540
247   249    1
SMALL
USER_CHARGES


@<TRIPOS>ATOM
      1 CA         -3.1967  -13.1784  -47.3653 C.3       0 UNK        -0.1800 
      2 C          -1.9601  -12.3124  -47.5619 C.2       0 UNK         0.5000 
      3 O          -2.0789  -11.1518  -47.9557 O.2       0 UNK        -0.5000 
      4 N          -0.7766  -12.8751  -47.2950 N.am      1 UNK        -0.5000 
      5 CA          0.5154  -12.1872  -47.3657 C.3       1 UNK         0.1400 
      6 C6          1.7017  -13.1799  -47.4533 C.3       23 UNK        -0.0398 
      7 S7          1.6517  -14.2077  -48.9638 S.3       23 UNK        -0.2404 
      8 C8          0.9024  -15.7237  -48.3005 C.3       23 UNK        -0.0205 
      9 C9          0.7129  -16.7963  -49.3591 C.ar      23 UNK        -0.0193 
     10 C10        -0.3598  -16.7216  -50.2540 C.ar      23 UNK        -0.1150 
     11 C11        -0.5542  -17.7221  -51.2112 C.ar      23 UNK        -0.0193 
     12 C12         0.3290  -18.8024  -51.2644 C.ar      23 UNK        -0.1150 
     13 C13         1.3909  -18.8982  -50.3627 C.ar      23 UNK        -0.0193 
     14 C14         1.5838  -17.8881  -49.4159 C.ar      23 UNK        -0.1150 
     15 C15         2.3116  -20.1077  -50.3999 C.3       23 UNK        -0.0205 
     16 S16         1.4558  -21.6210  -49.8582 S.3       23 UNK        -0.2404 
     17 C17         1.0238  -21.1833  -48.1399 C.3       23 UNK        -0.0398 
     18 CA          0.3225  -22.3390  -47.3914 C.3       11 UNK         0.1400 
     19 N           0.4235  -22.1923  -45.9390 N.am      11 UNK        -0.5000 
     20 C           0.1264  -23.1573  -45.0585 C.2       10 UNK         0.5000 
     21 O          -0.2587  -24.2813  -45.3811 O.2       10 UNK        -0.5000 
     22 CA          0.2433  -22.7954  -43.5674 C.3       10 UNK         0.1400 
     23 CB          1.7127  -22.7825  -43.1207 C.3       10 UNK        -0.1800 
     24 N          -0.3817  -21.5120  -43.2458 N.am      10 UNK        -0.5000 
     25 C          -1.6906  -21.2539  -43.3814 C.2       9 UNK         0.5000 
     26 O          -2.5145  -22.0787  -43.7769 O.2       9 UNK        -0.5000 
     27 CA         -2.1530  -19.8215  -43.0612 C.3       9 UNK         0.1400 
     28 CB         -2.2511  -19.6035  -41.5439 C.3       9 UNK        -0.1800 
     29 N          -1.2868  -18.8001  -43.6489 N.am      9 UNK        -0.5000 
     30 C          -1.0738  -18.6466  -44.9635 C.2       8 UNK         0.5000 
     31 O          -1.5948  -19.3420  -45.8328 O.2       8 UNK        -0.5000 
     32 CA         -0.0594  -17.5713  -45.3781 C.3       8 UNK         0.1400 
     33 CB         -0.6551  -16.1633  -45.2128 C.3       8 UNK        -0.1800 
     34 N           1.1946  -17.6755  -44.6340 N.am      8 UNK        -0.5000 
     35 C           1.9899  -18.7560  -44.6235 C.2       7 UNK         0.5000 
     36 O           1.7865  -19.7674  -45.2932 O.2       7 UNK        -0.5000 
     37 CA          3.1859  -18.7232  -43.6600 C.3       7 UNK         0.1400 
     38 CB          4.3677  -17.9696  -44.2855 C.3       7 UNK        -0.1800 
     39 N           2.8285  -18.1185  -42.3771 N.am      7 UNK        -0.5000 
     40 C           1.9967  -18.6786  -41.4864 C.2       6 UNK         0.5000 
     41 O           1.4775  -19.7855  -41.6335 O.2       6 UNK        -0.5000 
     42 CA          1.6525  -17.8340  -40.2467 C.3       6 UNK         0.1400 
     43 CB          2.7660  -17.9315  -39.1933 C.3       6 UNK        -0.1800 
     44 N           1.4189  -16.4283  -40.5827 N.am      6 UNK        -0.5000 
     45 C           0.3815  -15.9917  -41.3107 C.2       5 UNK         0.5000 
     46 O          -0.5085  -16.7273  -41.7367 O.2       5 UNK        -0.5000 
     47 CA          0.3531  -14.4906  -41.6523 C.3       5 UNK         0.1400 
     48 CB         -0.3682  -13.6983  -40.5526 C.3       5 UNK        -0.1800 
     49 N           1.6823  -13.9155  -41.8668 N.am      5 UNK        -0.5000 
     50 C           2.5233  -14.2519  -42.8527 C.2       4 UNK         0.5000 
     51 O           2.2800  -15.1434  -43.6683 O.2       4 UNK        -0.5000 
     52 CA          3.8518  -13.4663  -42.9286 C.3       4 UNK         0.1400 
     53 CB          4.6483  -13.7754  -44.2085 C.3       4 UNK        -0.1800 
     54 N           3.6594  -12.0178  -42.8531 N.am      4 UNK        -0.5000 
     55 C           3.4044  -11.2909  -41.7605 C.2       3 UNK         0.5000 
     56 O           3.2657  -11.7846  -40.6406 O.2       3 UNK        -0.5000 
     57 CA          3.2436   -9.7672  -41.9449 C.3       3 UNK         0.1400 
     58 CB          4.6149   -9.0668  -41.9953 C.3       3 UNK        -0.1800 
     59 N           2.3936   -9.3715  -43.0792 N.am      3 UNK        -0.5000 
     60 C           2.6034   -9.5438  -44.3916 C.2       2 UNK         0.5000 
     61 O           3.6124  -10.0663  -44.8723 O.2       2 UNK        -0.5000 
     62 CA          1.4835   -9.0622  -45.3307 C.3       2 UNK         0.1400 
     63 CB          1.8659   -7.7285  -45.9902 C.3       2 UNK        -0.1800 
     64 N           1.2004  -10.0508  -46.3717 N.am      2 UNK        -0.5000 
     65 C           0.6747  -11.2614  -46.1439 C.2       1 UNK         0.5000 
     66 O           0.3329  -11.6617  -45.0277 O.2       1 UNK        -0.5000 
     67 C          -1.1392  -22.5271  -47.8468 C.2       11 UNK         0.5000 
     68 O          -1.4044  -23.4118  -48.6595 O.2       11 UNK        -0.5000 
     69 N          -2.0700  -21.7446  -47.2793 N.am      12 UNK        -0.5000 
     70 CA         -3.5077  -21.8593  -47.5294 C.3       12 UNK         0.1400 
     71 CB         -4.2578  -20.7119  -46.8377 C.3       12 UNK        -0.1800 
     72 C          -4.0844  -23.2183  -47.1004 C.2       12 UNK         0.5000 
     73 O          -4.9089  -23.7715  -47.8249 O.2       12 UNK        -0.5000 
     74 N          -3.6194  -23.7490  -45.9605 N.am      13 UNK        -0.5000 
     75 CA         -3.9664  -25.0840  -45.4751 C.3       13 UNK         0.1400 
     76 CB         -3.4858  -25.2524  -44.0258 C.3       13 UNK        -0.1800 
     77 C          -3.4067  -26.2011  -46.3748 C.2       13 UNK         0.5000 
     78 O          -4.1334  -27.1455  -46.6837 O.2       13 UNK        -0.5000 
     79 N          -2.1422  -26.0636  -46.8000 N.am      14 UNK        -0.5000 
     80 CA         -1.4537  -27.0045  -47.6871 C.3       14 UNK         0.1400 
     81 CB          0.0412  -26.6548  -47.7460 C.3       14 UNK        -0.1800 
     82 C          -2.0593  -27.0519  -49.1026 C.2       14 UNK         0.5000 
     83 O          -2.2497  -28.1394  -49.6481 O.2       14 UNK        -0.5000 
     84 N          -2.3712  -25.8748  -49.6602 N.am      15 UNK        -0.5000 
     85 CA         -3.0164  -25.7082  -50.9646 C.3       15 UNK         0.1400 
     86 CB         -2.7548  -24.2766  -51.4559 C.3       15 UNK        -0.1800 
     87 C          -4.5313  -25.9909  -50.9343 C.2       15 UNK         0.5000 
     88 O          -5.1415  -26.1154  -51.9966 O.2       15 UNK        -0.5000 
     89 N          -5.1151  -26.0395  -49.7293 N.am      16 UNK        -0.5000 
     90 CA         -6.5240  -26.2287  -49.3658 C.3       16 UNK         0.1400 
     91 CB         -7.0626  -27.5790  -49.8742 C.3       16 UNK        -0.1800 
     92 C          -7.4453  -25.0637  -49.7769 C.2       16 UNK         0.5000 
     93 O          -8.2243  -24.5861  -48.9511 O.2       16 UNK        -0.5000 
     94 N          -7.3465  -24.6311  -51.0380 N.am      17 UNK        -0.5000 
     95 CA         -8.1425  -23.5543  -51.6254 C.3       17 UNK         0.1400 
     96 CB         -8.4665  -23.9342  -53.0795 C.3       17 UNK        -0.1800 
     97 C          -7.4292  -22.1905  -51.5894 C.2       17 UNK         0.5000 
     98 O          -8.0769  -21.1773  -51.8546 O.2       17 UNK        -0.5000 
     99 N          -6.1099  -22.1839  -51.3336 N.am      18 UNK        -0.5000 
    100 CA        -5.1589  -21.0577  -51.3984 C.3       18 UNK         0.1400 
    101 CB        -5.5408  -19.9243  -50.4294 C.3       18 UNK        -0.1800 
    102 C         -4.9325  -20.5215  -52.8273 C.2       18 UNK         0.5000 
    103 O         -3.7862  -20.3759  -53.2545 O.2       18 UNK        -0.5000 
    104 N         -6.0219  -20.3152  -53.5769 N.am      19 UNK        -0.5000 
    105 CA        -6.0445  -19.9552  -54.9964 C.3       19 UNK         0.1400 
    106 CB        -7.4995  -19.7198  -55.4262 C.3       19 UNK        -0.1800 
    107 C         -5.3764  -21.0048  -55.9067 C.2       19 UNK         0.5000 
    108 O         -4.9032  -20.6546  -56.9858 O.2       19 UNK        -0.5000 
    109 N         -5.2975  -22.2587  -55.4398 N.am      20 UNK        -0.5000 
    110 CA        -4.5450  -23.3408  -56.0756 C.3       20 UNK         0.1400 
    111 CB        -4.8700  -24.6612  -55.3607 C.3       20 UNK        -0.1800 
    112 C         -3.0209  -23.0943  -56.1019 C.2       20 UNK         0.5000 
    113 O         -2.3495  -23.6075  -56.9977 O.2       20 UNK        -0.5000 
    114 N         -2.5070  -22.3117  -55.1410 N.am      21 UNK        -0.5000 
    115 CA        -1.1112  -21.8819  -55.0854 C.3       21 UNK         0.1400 
    116 CB        -0.6264  -21.8852  -53.6268 C.3       21 UNK        -0.1800 
    117 C         -0.9292  -20.4940  -55.7224 C.2       21 UNK         0.5000 
    118 O          0.0081  -20.3101  -56.5002 O.2       21 UNK        -0.5000 
    119 N         -1.8145  -19.5451  -55.3842 N.am      22 UNK        -0.5000 
    120 CA        -1.7505  -18.1535  -55.8695 C.3       22 UNK         0.1400 
    121 C         -2.2266  -17.9317  -57.3350 C.2       22 UNK         0.5000 
    122 N         -2.9754  -18.8336  -57.9528 N.am      22 UNK        -0.7600 
    123 O         -1.8905  -16.9152  -57.9367 O.2       22 UNK        -0.5000 
    124 C124       -2.4382  -17.1678  -54.8849 C.3       23 UNK        -0.0398 
    125 S125       -1.2724  -16.5932  -53.6060 S.3       23 UNK        -0.2404 
    126 C126       -1.7107  -17.6446  -52.1931 C.3       23 UNK        -0.0205 
    127 H127       -3.7557  -13.2513  -48.2982 H         1 UNK         0.0600 
    128 H128       -2.9393  -14.1881  -47.0448 H         1 UNK         0.0600 
    129 H129       -3.8471  -12.7372  -46.6101 H         1 UNK         0.0600 
    130 H130       -0.7505  -13.8117  -46.9260 H         1 UNK         0.3000 
    131 H131        0.5236  -11.5717  -48.2682 H         1 UNK         0.0600 
    132 H132        1.7438  -13.8191  -46.5689 H         1 UNK         0.0800 
    133 H133        2.6467  -12.6336  -47.4691 H         1 UNK         0.0800 
    134 H134        1.5263  -16.0973  -47.4870 H         1 UNK         0.0800 
    135 H135       -0.0708  -15.4866  -47.8747 H         1 UNK         0.0800 
    136 H136       -1.0391  -15.8817  -50.2099 H         1 UNK         0.1150 
    137 H137        0.1832  -19.5803  -51.9992 H         1 UNK         0.1150 
    138 H138        2.4020  -17.9596  -48.7130 H         1 UNK         0.1150 
    139 H139        2.6763  -20.2509  -51.4179 H         1 UNK         0.0800 
    140 H140        3.1926  -19.9480  -49.7763 H         1 UNK         0.0800 
    141 H141        0.4137  -20.2783  -48.1200 H         1 UNK         0.0800 
    142 H142        1.9585  -20.9309  -47.6382 H         1 UNK         0.0800 
    143 H143        0.8547  -23.2603  -47.6385 H         1 UNK         0.0600 
    144 H144        0.7580  -21.2941  -45.5972 H         1 UNK         0.3000 
    145 H145       -0.2763  -23.5691  -42.9984 H         1 UNK         0.0600 
    146 H146        1.7960  -22.6136  -42.0470 H         1 UNK         0.0600 
    147 H147        2.1961  -23.7356  -43.3389 H         1 UNK         0.0600 
    148 H148        2.2813  -22.0015  -43.6261 H         1 UNK         0.0600 
    149 H149        0.2282  -20.7857  -42.8842 H         1 UNK         0.3000 
    150 H150       -3.1500  -19.6933  -43.4874 H         1 UNK         0.0600 
    151 H151       -2.9000  -20.3490  -41.0826 H         1 UNK         0.0600 
    152 H152       -2.6672  -18.6225  -41.3140 H         1 UNK         0.0600 
    153 H153       -1.2751  -19.6723  -41.0625 H         1 UNK         0.0600 
    154 H154       -0.8376  -18.1586  -43.0011 H         1 UNK         0.3000 
    155 H155        0.1721  -17.7327  -46.4317 H         1 UNK         0.0600 
    156 H156       -1.0191  -15.9915  -44.2012 H         1 UNK         0.0600 
    157 H157       -1.5014  -16.0221  -45.8855 H         1 UNK         0.0600 
    158 H158        0.0791  -15.3886  -45.4316 H         1 UNK         0.0600 
    159 H159        1.4748  -16.8621  -44.0938 H         1 UNK         0.3000 
    160 H160        3.4994  -19.7526  -43.4741 H         1 UNK         0.0600 
    161 H161        5.2154  -17.9197  -43.6021 H         1 UNK         0.0600 
    162 H162        4.0936  -16.9523  -44.5617 H         1 UNK         0.0600 
    163 H163        4.7086  -18.4707  -45.1922 H         1 UNK         0.0600 
    164 H164        3.1716  -17.1863  -42.2022 H         1 UNK         0.3000 
    165 H165        0.7355  -18.2381  -39.8124 H         1 UNK         0.0600 
    166 H166        2.4947  -17.3966  -38.2830 H         1 UNK         0.0600 
    167 H167        2.9498  -18.9704  -38.9161 H         1 UNK         0.0600 
    168 H168        3.7068  -17.5176  -39.5584 H         1 UNK         0.0600 
    169 H169        2.1041  -15.7575  -40.2677 H         1 UNK         0.3000 
    170 H170       -0.2101  -14.3730  -42.5800 H         1 UNK         0.0600 
    171 H171       -1.3724  -14.0897  -40.3837 H         1 UNK         0.0600 
    172 H172        0.1680  -13.7457  -39.6040 H         1 UNK         0.0600 
    173 H173       -0.4715  -12.6484  -40.8277 H         1 UNK         0.0600 
    174 H174        1.9767  -13.1795  -41.2334 H         1 UNK         0.3000 
    175 H175        4.4568  -13.7782  -42.0752 H         1 UNK         0.0600 
    176 H176        4.0742  -13.5408  -45.1058 H         1 UNK         0.0600 
    177 H177        5.5745  -13.2015  -44.2452 H         1 UNK         0.0600 
    178 H178        4.9244  -14.8280  -44.2557 H         1 UNK         0.0600 
    179 H179        3.7243  -11.5072  -43.7304 H         1 UNK         0.3000 
    180 H180        2.7286   -9.4026  -41.0548 H         1 UNK         0.0600 
    181 H181        5.2116   -9.3925  -42.8476 H         1 UNK         0.0600 
    182 H182        5.1926   -9.2809  -41.0953 H         1 UNK         0.0600 
    183 H183        4.5023   -7.9845  -42.0588 H         1 UNK         0.0600 
    184 H184        1.5135   -8.9557  -42.8067 H         1 UNK         0.3000 
    185 H185        0.5703   -8.9111  -44.7508 H         1 UNK         0.0600 
    186 H186        2.0623   -6.9636  -45.2378 H         1 UNK         0.0600 
    187 H187        2.7638   -7.8245  -46.6023 H         1 UNK         0.0600 
    188 H188        1.0626   -7.3578  -46.6273 H         1 UNK         0.0600 
    189 H189        1.4805   -9.8024  -47.3094 H         1 UNK         0.3000 
    190 H190       -1.7842  -21.0104  -46.6349 H         1 UNK         0.3000 
    191 H191       -3.6619  -21.7641  -48.6056 H         1 UNK         0.0600 
    192 H192       -4.0830  -20.7093  -45.7614 H         1 UNK         0.0600 
    193 H193       -5.3339  -20.7949  -46.9947 H         1 UNK         0.0600 
    194 H194       -3.9458  -19.7445  -47.2315 H         1 UNK         0.0600 
    195 H195       -2.9838  -23.2045  -45.3858 H         1 UNK         0.3000 
    196 H196       -5.0552  -25.1696  -45.4794 H         1 UNK         0.0600 
    197 H197       -2.4049  -25.1383  -43.9416 H         1 UNK         0.0600 
    198 H198       -3.7437  -26.2396  -43.6405 H         1 UNK         0.0600 
    199 H199       -3.9503  -24.5158  -43.3700 H         1 UNK         0.0600 
    200 H200       -1.5962  -25.2761  -46.4627 H         1 UNK         0.3000 
    201 H201       -1.5494  -28.0018  -47.2527 H         1 UNK         0.0600 
    202 H202        0.4949  -26.6972  -46.7556 H         1 UNK         0.0600 
    203 H203        0.2056  -25.6539  -48.1458 H         1 UNK         0.0600 
    204 H204        0.5822  -27.3561  -48.3823 H         1 UNK         0.0600 
    205 H205       -2.1220  -25.0177  -49.1684 H         1 UNK         0.3000 
    206 H206       -2.5633  -26.4039  -51.6737 H         1 UNK         0.0600 
    207 H207       -1.6857  -24.0720  -51.5026 H         1 UNK         0.0600 
    208 H208       -3.1631  -24.1126  -52.4533 H         1 UNK         0.0600 
    209 H209       -3.2005  -23.5416  -50.7863 H         1 UNK         0.0600 
    210 H210       -4.5153  -25.8471  -48.9380 H         1 UNK         0.3000 
    211 H211       -6.5358  -26.2638  -48.2751 H         1 UNK         0.0600 
    212 H212       -7.0963  -27.6244  -50.9630 H         1 UNK         0.0600 
    213 H213       -8.0759  -27.7535  -49.5106 H         1 UNK         0.0600 
    214 H214       -6.4441  -28.4050  -49.5229 H         1 UNK         0.0600 
    215 H215       -6.6801  -25.1070  -51.6417 H         1 UNK         0.3000 
    216 H216       -9.0846  -23.4471  -51.0838 H         1 UNK         0.0600 
    217 H217       -9.0782  -23.1697  -53.5604 H         1 UNK         0.0600 
    218 H218       -9.0241  -24.8699  -53.1260 H         1 UNK         0.0600 
    219 H219       -7.5617  -24.0550  -53.6760 H         1 UNK         0.0600 
    220 H220       -5.6980  -23.0789  -51.1144 H         1 UNK         0.3000 
    221 H221       -4.2006  -21.4549  -51.0635 H         1 UNK         0.0600 
    222 H222       -6.4472  -19.4046  -50.7406 H         1 UNK         0.0600 
    223 H223       -5.7061  -20.3065  -49.4229 H         1 UNK         0.0600 
    224 H224       -4.7446  -19.1812  -50.3704 H         1 UNK         0.0600 
    225 H225       -6.9219  -20.4697  -53.1285 H         1 UNK         0.3000 
    226 H226       -5.4922  -19.0208  -55.1135 H         1 UNK         0.0600 
    227 H227       -7.9586  -18.9220  -54.8421 H         1 UNK         0.0600 
    228 H228       -7.5559  -19.4273  -56.4756 H         1 UNK         0.0600 
    229 H229       -8.1054  -20.6183  -55.3010 H         1 UNK         0.0600 
    230 H230       -5.7226  -22.4622  -54.5488 H         1 UNK         0.3000 
    231 H231       -4.8809  -23.4215  -57.1115 H         1 UNK         0.0600 
    232 H232       -5.9307  -24.9002  -55.4360 H         1 UNK         0.0600 
    233 H233       -4.6094  -24.6225  -54.3032 H         1 UNK         0.0600 
    234 H234       -4.3200  -25.4926  -55.8034 H         1 UNK         0.0600 
    235 H235       -3.1296  -21.8912  -54.4621 H         1 UNK         0.3000 
    236 H236       -0.4814  -22.5825  -55.6380 H         1 UNK         0.0600 
    237 H237        0.3919  -21.5019  -53.5512 H         1 UNK         0.0600 
    238 H238       -1.2587  -21.2743  -52.9824 H         1 UNK         0.0600 
    239 H239       -0.6170  -22.8971  -53.2248 H         1 UNK         0.0600 
    240 H240       -2.5464  -19.7678  -54.7191 H         1 UNK         0.3000 
    241 H241       -0.6923  -17.8852  -55.9083 H         1 UNK         0.0600 
    242 H242       -3.2540  -18.6618  -58.9054 H         1 UNK         0.3800 
    243 H243       -3.3657  -19.6347  -57.4671 H         1 UNK         0.3800 
    244 H244       -2.7902  -16.2696  -55.3959 H         1 UNK         0.0800 
    245 H245       -3.3240  -17.6120  -54.4282 H         1 UNK         0.0800 
    246 H246       -2.6031  -17.2526  -51.7032 H         1 UNK         0.0800 
    247 H247       -1.9612  -18.6457  -52.5440 H         1 UNK         0.0800 
@<TRIPOS>BOND
     1    1    2 1    
     2    1  127 1    
     3    1  128 1    
     4    1  129 1    
     5    2    3 2    
     6    2    4 am   BACKBONE|DICT|INTERRES
     7    4    5 1    
     8    4  130 1    
     9    5    6 1    
    10    5   65 1    
    11    5  131 1    
    12    6    7 1    
    13    6  132 1    
    14    6  133 1    
    15    7    8 1    
    16    8    9 1    
    17    8  134 1    
    18    8  135 1    
    19    9   10 ar   
    20    9   14 ar   
    21   10   11 ar   
    22   10  136 1    
    23   11   12 ar   
    24   11  126 1    
    25   12   13 ar   
    26   12  137 1    
    27   13   14 ar   
    28   13   15 1    
    29   14  138 1    
    30   15   16 1    
    31   15  139 1    
    32   15  140 1    
    33   16   17 1    
    34   17   18 1    
    35   17  141 1    
    36   17  142 1    
    37   18   19 1    
    38   18   67 1    
    39   18  143 1    
    40   19   20 am   BACKBONE|DICT|INTERRES
    41   19  144 1    
    42   20   21 2    
    43   20   22 1    
    44   22   23 1    
    45   22   24 1    
    46   22  145 1    
    47   23  146 1    
    48   23  147 1    
    49   23  148 1    
    50   24   25 am   BACKBONE|DICT|INTERRES
    51   24  149 1    
    52   25   26 2    
    53   25   27 1    
    54   27   28 1    
    55   27   29 1    
    56   27  150 1    
    57   28  151 1    
    58   28  152 1    
    59   28  153 1    
    60   29   30 am   BACKBONE|DICT|INTERRES
    61   29  154 1    
    62   30   31 2    
    63   30   32 1    
    64   32   33 1    
    65   32   34 1    
    66   32  155 1    
    67   33  156 1    
    68   33  157 1    
    69   33  158 1    
    70   34   35 am   BACKBONE|DICT|INTERRES
    71   34  159 1    
    72   35   36 2    
    73   35   37 1    
    74   37   38 1    
    75   37   39 1    
    76   37  160 1    
    77   38  161 1    
    78   38  162 1    
    79   38  163 1    
    80   39   40 am   BACKBONE|DICT|INTERRES
    81   39  164 1    
    82   40   41 2    
    83   40   42 1    
    84   42   43 1    
    85   42   44 1    
    86   42  165 1    
    87   43  166 1    
    88   43  167 1    
    89   43  168 1    
    90   44   45 am   BACKBONE|DICT|INTERRES
    91   44  169 1    
    92   45   46 2    
    93   45   47 1    
    94   47   48 1    
    95   47   49 1    
    96   47  170 1    
    97   48  171 1    
    98   48  172 1    
    99   48  173 1    
   100   49   50 am   BACKBONE|DICT|INTERRES
   101   49  174 1    
   102   50   51 2    
   103   50   52 1    
   104   52   53 1    
   105   52   54 1    
   106   52  175 1    
   107   53  176 1    
   108   53  177 1    
   109   53  178 1    
   110   54   55 am   BACKBONE|DICT|INTERRES
   111   54  179 1    
   112   55   56 2    
   113   55   57 1    
   114   57   58 1    
   115   57   59 1    
   116   57  180 1    
   117   58  181 1    
   118   58  182 1    
   119   58  183 1    
   120   59   60 am   BACKBONE|DICT|INTERRES
   121   59  184 1    
   122   60   61 2    
   123   60   62 1    
   124   62   63 1    
   125   62   64 1    
   126   62  185 1    
   127   63  186 1    
   128   63  187 1    
   129   63  188 1    
   130   64   65 am   BACKBONE|DICT|INTERRES
   131   64  189 1    
   132   65   66 2    
   133   67   68 2    
   134   67   69 am   BACKBONE|DICT|INTERRES
   135   69   70 1    
   136   69  190 1    
   137   70   71 1    
   138   70   72 1    
   139   70  191 1    
   140   71  192 1    
   141   71  193 1    
   142   71  194 1    
   143   72   73 2    
   144   72   74 am   BACKBONE|DICT|INTERRES
   145   74   75 1    
   146   74  195 1    
   147   75   76 1    
   148   75   77 1    
   149   75  196 1    
   150   76  197 1    
   151   76  198 1    
   152   76  199 1    
   153   77   78 2    
   154   77   79 am   BACKBONE|DICT|INTERRES
   155   79   80 1    
   156   79  200 1    
   157   80   81 1    
   158   80   82 1    
   159   80  201 1    
   160   81  202 1    
   161   81  203 1    
   162   81  204 1    
   163   82   83 2    
   164   82   84 am   BACKBONE|DICT|INTERRES
   165   84   85 1    
   166   84  205 1    
   167   85   86 1    
   168   85   87 1    
   169   85  206 1    
   170   86  207 1    
   171   86  208 1    
   172   86  209 1    
   173   87   88 2    
   174   87   89 am   BACKBONE|DICT|INTERRES
   175   89   90 1    
   176   89  210 1    
   177   90   91 1    
   178   90   92 1    
   179   90  211 1    
   180   91  212 1    
   181   91  213 1    
   182   91  214 1    
   183   92   93 2    
   184   92   94 am   BACKBONE|DICT|INTERRES
   185   94   95 1    
   186   94  215 1    
   187   95   96 1    
   188   95   97 1    
   189   95  216 1    
   190   96  217 1    
   191   96  218 1    
   192   96  219 1    
   193   97   98 2    
   194   97   99 am   BACKBONE|DICT|INTERRES
   195   99  100 1    
   196   99  220 1    
   197  100  101 1    
   198  100  102 1    
   199  100  221 1    
   200  101  222 1    
   201  101  223 1    
   202  101  224 1    
   203  102  103 2    
   204  102  104 am   BACKBONE|DICT|INTERRES
   205  104  105 1    
   206  104  225 1    
   207  105  106 1    
   208  105  107 1    
   209  105  226 1    
   210  106  227 1    
   211  106  228 1    
   212  106  229 1    
   213  107  108 2    
   214  107  109 am   BACKBONE|DICT|INTERRES
   215  109  110 1    
   216  109  230 1    
   217  110  111 1    
   218  110  112 1    
   219  110  231 1    
   220  111  232 1    
   221  111  233 1    
   222  111  234 1    
   223  112  113 2    
   224  112  114 am   BACKBONE|DICT|INTERRES
   225  114  115 1    
   226  114  235 1    
   227  115  116 1    
   228  115  117 1    
   229  115  236 1    
   230  116  237 1    
   231  116  238 1    
   232  116  239 1    
   233  117  118 2    
   234  117  119 am   BACKBONE|DICT|INTERRES
   235  119  120 1    
   236  119  240 1    
   237  120  121 1    
   238  120  124 1    
   239  120  241 1    
   240  121  122 am   BACKBONE|DICT|INTERRES
   241  121  123 2    
   242  122  242 1    
   243  122  243 1    
   244  124  125 1    
   245  124  244 1    
   246  124  245 1    
   247  125  126 1    
   248  126  246 1    
   249  126  247 1    
@<TRIPOS>SUBSTRUCTURE
     1 UNK         1 GROUP             0       ****    0 ROOT    
