@<TRIPOS>MOLECULE
3R540
247   249    1
SMALL
USER_CHARGES


@<TRIPOS>ATOM
      1 CA          8.4331  -16.6261  -47.7771 C.3       0 UNK        -0.1800 
      2 C           7.4535  -16.4347  -46.6281 C.2       0 UNK         0.5000 
      3 O           7.7966  -16.7047  -45.4773 O.2       0 UNK        -0.5000 
      4 N           6.2373  -15.9664  -46.9355 N.am      1 UNK        -0.5000 
      5 CA          5.1657  -15.7127  -45.9642 C.3       1 UNK         0.1400 
      6 C6          3.7685  -15.7787  -46.6292 C.3       23 UNK        -0.0398 
      7 S7          3.4443  -14.4758  -47.8736 S.3       23 UNK        -0.2404 
      8 C8          3.6574  -15.3609  -49.4537 C.3       23 UNK        -0.0205 
      9 C9          2.5886  -16.4190  -49.6918 C.ar      23 UNK        -0.0193 
     10 C10         1.2502  -16.0464  -49.8517 C.ar      23 UNK        -0.1150 
     11 C11         0.2623  -17.0085  -50.0852 C.ar      23 UNK        -0.0193 
     12 C12         0.6321  -18.3560  -50.1580 C.ar      23 UNK        -0.1150 
     13 C13         1.9681  -18.7432  -50.0186 C.ar      23 UNK        -0.0193 
     14 C14         2.9421  -17.7685  -49.7844 C.ar      23 UNK        -0.1150 
     15 C15         2.3504  -20.2134  -50.1504 C.3       23 UNK        -0.0205 
     16 S16         3.2263  -20.8857  -48.6968 S.3       23 UNK        -0.2404 
     17 C17         2.0794  -20.5073  -47.3294 C.3       23 UNK        -0.0398 
     18 CA          1.1566  -21.6762  -46.9075 C.3       11 UNK         0.1400 
     19 N           0.4776  -21.3723  -45.6484 N.am      11 UNK        -0.5000 
     20 C          -0.2595  -22.2310  -44.9319 C.2       10 UNK         0.5000 
     21 O          -0.3811  -23.4257  -45.2032 O.2       10 UNK        -0.5000 
     22 CA         -1.0180  -21.6427  -43.7270 C.3       10 UNK         0.1400 
     23 CB         -0.0968  -21.5394  -42.5024 C.3       10 UNK        -0.1800 
     24 N          -1.6082  -20.3309  -44.0082 N.am      10 UNK        -0.5000 
     25 C          -2.5594  -20.1090  -44.9279 C.2       9 UNK         0.5000 
     26 O          -3.0591  -20.9937  -45.6224 O.2       9 UNK        -0.5000 
     27 CA         -2.9948  -18.6480  -45.1426 C.3       9 UNK         0.1400 
     28 CB         -3.9473  -18.1884  -44.0289 C.3       9 UNK        -0.1800 
     29 N          -1.8618  -17.7273  -45.2301 N.am      9 UNK        -0.5000 
     30 C          -0.9133  -17.7774  -46.1756 C.2       8 UNK         0.5000 
     31 O          -0.9085  -18.5889  -47.0972 O.2       8 UNK        -0.5000 
     32 CA          0.2660  -16.8049  -46.0283 C.3       8 UNK         0.1400 
     33 CB         -0.1197  -15.3856  -46.4728 C.3       8 UNK        -0.1800 
     34 N           0.7754  -16.7810  -44.6569 N.am      8 UNK        -0.5000 
     35 C           1.3643  -17.8230  -44.0508 C.2       7 UNK         0.5000 
     36 O           1.5768  -18.9025  -44.5979 O.2       7 UNK        -0.5000 
     37 CA          1.7502  -17.6392  -42.5741 C.3       7 UNK         0.1400 
     38 CB          3.1361  -16.9892  -42.4651 C.3       7 UNK        -0.1800 
     39 N           0.7695  -16.8380  -41.8416 N.am      7 UNK        -0.5000 
     40 C          -0.4837  -17.2369  -41.5785 C.2       6 UNK         0.5000 
     41 O          -0.9349  -18.3379  -41.8952 O.2       6 UNK        -0.5000 
     42 CA         -1.3984  -16.1985  -40.9061 C.3       6 UNK         0.1400 
     43 CB         -1.1149  -16.1107  -39.3993 C.3       6 UNK        -0.1800 
     44 N          -1.2563  -14.8715  -41.5084 N.am      6 UNK        -0.5000 
     45 C          -1.5915  -14.5660  -42.7673 C.2       5 UNK         0.5000 
     46 O          -2.0791  -15.3777  -43.5529 O.2       5 UNK        -0.5000 
     47 CA         -1.2885  -13.1380  -43.2542 C.3       5 UNK         0.1400 
     48 CB         -2.2713  -12.1141  -42.6551 C.3       5 UNK        -0.1800 
     49 N           0.1114  -12.7315  -43.0684 N.am      5 UNK        -0.5000 
     50 C           0.7762  -12.4736  -41.9319 C.2       4 UNK         0.5000 
     51 O           0.2801  -12.5901  -40.8103 O.2       4 UNK        -0.5000 
     52 CA          2.2511  -12.0358  -42.0570 C.3       4 UNK         0.1400 
     53 CB          3.1794  -13.0397  -41.3558 C.3       4 UNK        -0.1800 
     54 N           2.7110  -11.8571  -43.4385 N.am      4 UNK        -0.5000 
     55 C           2.4435  -10.7864  -44.2030 C.2       3 UNK         0.5000 
     56 O           1.7091   -9.8666  -43.8393 O.2       3 UNK        -0.5000 
     57 CA          3.0969  -10.7445  -45.6049 C.3       3 UNK         0.1400 
     58 CB          3.2353   -9.3120  -46.1613 C.3       3 UNK        -0.1800 
     59 N           4.3795  -11.4545  -45.6687 N.am      3 UNK        -0.5000 
     60 C           5.4867  -11.2078  -44.9497 C.2       2 UNK         0.5000 
     61 O           5.6094  -10.2423  -44.1943 O.2       2 UNK        -0.5000 
     62 CA          6.6463  -12.2222  -45.0837 C.3       2 UNK         0.1400 
     63 CB          7.3874  -12.4314  -43.7467 C.3       2 UNK        -0.1800 
     64 N           6.2603  -13.5219  -45.6539 N.am      2 UNK        -0.5000 
     65 C           5.3615  -14.3979  -45.1733 C.2       1 UNK         0.5000 
     66 O           4.6674  -14.1849  -44.1781 O.2       1 UNK        -0.5000 
     67 C           0.1360  -22.0411  -48.0039 C.2       11 UNK         0.5000 
     68 O           0.2374  -23.1138  -48.6003 O.2       11 UNK        -0.5000 
     69 N          -0.8511  -21.1618  -48.2246 N.am      12 UNK        -0.5000 
     70 CA         -1.8935  -21.2996  -49.2403 C.3       12 UNK         0.1400 
     71 CB         -2.7733  -20.0482  -49.2381 C.3       12 UNK        -0.1800 
     72 C          -2.7664  -22.5507  -49.0686 C.2       12 UNK         0.5000 
     73 O          -3.1319  -23.1664  -50.0689 O.2       12 UNK        -0.5000 
     74 N          -3.0472  -22.9333  -47.8167 N.am      13 UNK        -0.5000 
     75 CA         -3.7832  -24.1471  -47.4581 C.3       13 UNK         0.1400 
     76 CB         -4.0176  -24.1653  -45.9402 C.3       13 UNK        -0.1800 
     77 C          -3.1027  -25.4538  -47.9157 C.2       13 UNK         0.5000 
     78 O          -3.7973  -26.4543  -48.0933 O.2       13 UNK        -0.5000 
     79 N          -1.7779  -25.4218  -48.1118 N.am      14 UNK        -0.5000 
     80 CA         -0.9951  -26.5250  -48.6606 C.3       14 UNK         0.1400 
     81 CB          0.3168  -26.6527  -47.8696 C.3       14 UNK        -0.1800 
     82 C          -0.7079  -26.3147  -50.1573 C.2       14 UNK         0.5000 
     83 O          -0.8687  -27.2506  -50.9408 O.2       14 UNK        -0.5000 
     84 N          -0.2623  -25.1048  -50.5238 N.am      15 UNK        -0.5000 
     85 CA          0.2315  -24.7724  -51.8605 C.3       15 UNK         0.1400 
     86 CB          1.0345  -23.4643  -51.7880 C.3       15 UNK        -0.1800 
     87 C          -0.8724  -24.6584  -52.9254 C.2       15 UNK         0.5000 
     88 O          -0.6762  -25.1269  -54.0477 O.2       15 UNK        -0.5000 
     89 N          -1.9930  -24.0220  -52.5662 N.am      16 UNK        -0.5000 
     90 CA         -3.1294  -23.7710  -53.4529 C.3       16 UNK         0.1400 
     91 CB         -3.5234  -22.2897  -53.3513 C.3       16 UNK        -0.1800 
     92 C          -4.3069  -24.6936  -53.1026 C.2       16 UNK         0.5000 
     93 O          -4.9396  -25.2341  -54.0108 O.2       16 UNK        -0.5000 
     94 N          -4.5470  -24.8866  -51.7961 N.am      17 UNK        -0.5000 
     95 CA         -5.4732  -25.8424  -51.1841 C.3       17 UNK         0.1400 
     96 CB         -4.8674  -27.2617  -51.2606 C.3       17 UNK        -0.1800 
     97 C          -6.9023  -25.7443  -51.7587 C.2       17 UNK         0.5000 
     98 O          -7.6018  -24.7682  -51.4784 O.2       17 UNK        -0.5000 
     99 N          -7.2901  -26.7329  -52.5780 N.am      18 UNK        -0.5000 
    100 CA        -8.5843  -26.8689  -53.2532 C.3       18 UNK         0.1400 
    101 CB        -8.6083  -28.2108  -54.0013 C.3       18 UNK        -0.1800 
    102 C         -8.9499  -25.7132  -54.2080 C.2       18 UNK         0.5000 
    103 O        -10.1255  -25.5641  -54.5426 O.2       18 UNK        -0.5000 
    104 N         -7.9643  -24.8912  -54.5973 N.am      19 UNK        -0.5000 
    105 CA        -8.1578  -23.6367  -55.3312 C.3       19 UNK         0.1400 
    106 CB        -6.8163  -23.2134  -55.9487 C.3       19 UNK        -0.1800 
    107 C         -8.7590  -22.4954  -54.4746 C.2       19 UNK         0.5000 
    108 O         -8.9906  -21.4117  -55.0112 O.2       19 UNK        -0.5000 
    109 N         -9.0056  -22.7563  -53.1804 N.am      20 UNK        -0.5000 
    110 CA        -9.5575  -21.8602  -52.1606 C.3       20 UNK         0.1400 
    111 CB       -10.9302  -21.2840  -52.5700 C.3       20 UNK        -0.1800 
    112 C         -8.5343  -20.7950  -51.7309 C.2       20 UNK         0.5000 
    113 O         -8.8450  -19.6018  -51.6946 O.2       20 UNK        -0.5000 
    114 N         -7.3261  -21.2724  -51.3970 N.am      21 UNK        -0.5000 
    115 CA        -6.1711  -20.4976  -50.9363 C.3       21 UNK         0.1400 
    116 CB        -6.4622  -19.8869  -49.5445 C.3       21 UNK        -0.1800 
    117 C         -5.6919  -19.4688  -51.9892 C.2       21 UNK         0.5000 
    118 O         -5.8124  -19.7250  -53.1888 O.2       21 UNK        -0.5000 
    119 N         -5.1490  -18.3340  -51.5305 N.am      22 UNK        -0.5000 
    120 CA        -4.7456  -17.1923  -52.3718 C.3       22 UNK         0.1400 
    121 C         -5.9296  -16.2618  -52.7826 C.2       22 UNK         0.5000 
    122 N         -7.1735  -16.5447  -52.4123 N.am      22 UNK        -0.7600 
    123 O         -5.7194  -15.2631  -53.4656 O.2       22 UNK        -0.5000 
    124 C124       -3.5831  -16.3855  -51.7290 C.3       23 UNK        -0.0398 
    125 S125       -2.0145  -17.3185  -51.6900 S.3       23 UNK        -0.2404 
    126 C126       -1.1971  -16.5825  -50.2328 C.3       23 UNK        -0.0205 
    127 H127        7.9932  -16.3507  -48.7360 H         1 UNK         0.0600 
    128 H128        8.7450  -17.6690  -47.8339 H         1 UNK         0.0600 
    129 H129        9.3198  -16.0120  -47.6206 H         1 UNK         0.0600 
    130 H130        6.0151  -15.7540  -47.8969 H         1 UNK         0.3000 
    131 H131        5.1961  -16.5134  -45.2218 H         1 UNK         0.0600 
    132 H132        3.6193  -16.7621  -47.0760 H         1 UNK         0.0800 
    133 H133        3.0012  -15.6926  -45.8605 H         1 UNK         0.0800 
    134 H134        3.6147  -14.6345  -50.2664 H         1 UNK         0.0800 
    135 H135        4.6548  -15.7996  -49.4933 H         1 UNK         0.0800 
    136 H136        0.9809  -15.0015  -49.7866 H         1 UNK         0.1150 
    137 H137       -0.1228  -19.1058  -50.3395 H         1 UNK         0.1150 
    138 H138        3.9761  -18.0653  -49.6782 H         1 UNK         0.1150 
    139 H139        1.4664  -20.8224  -50.3375 H         1 UNK         0.0800 
    140 H140        2.9885  -20.3310  -51.0269 H         1 UNK         0.0800 
    141 H141        1.5022  -19.6095  -47.5482 H         1 UNK         0.0800 
    142 H142        2.7159  -20.2395  -46.4859 H         1 UNK         0.0800 
    143 H143        1.7812  -22.5549  -46.7335 H         1 UNK         0.0600 
    144 H144        0.5696  -20.4177  -45.3142 H         1 UNK         0.3000 
    145 H145       -1.8330  -22.3274  -43.4834 H         1 UNK         0.0600 
    146 H146       -0.6447  -21.1954  -41.6250 H         1 UNK         0.0600 
    147 H147        0.3365  -22.5096  -42.2562 H         1 UNK         0.0600 
    148 H148        0.7262  -20.8457  -42.6758 H         1 UNK         0.0600 
    149 H149       -1.2775  -19.5521  -43.4467 H         1 UNK         0.3000 
    150 H150       -3.5338  -18.5999  -46.0910 H         1 UNK         0.0600 
    151 H151       -4.8100  -18.8515  -43.9537 H         1 UNK         0.0600 
    152 H152       -4.3240  -17.1841  -44.2239 H         1 UNK         0.0600 
    153 H153       -3.4550  -18.1757  -43.0561 H         1 UNK         0.0600 
    154 H154       -1.8140  -16.9984  -44.5234 H         1 UNK         0.3000 
    155 H155        1.0669  -17.1563  -46.6825 H         1 UNK         0.0600 
    156 H156        0.7178  -14.6954  -46.3758 H         1 UNK         0.0600 
    157 H157       -0.9519  -14.9876  -45.8947 H         1 UNK         0.0600 
    158 H158       -0.4246  -15.3785  -47.5191 H         1 UNK         0.0600 
    159 H159        0.5993  -15.9480  -44.1179 H         1 UNK         0.3000 
    160 H160        1.7971  -18.6268  -42.1106 H         1 UNK         0.0600 
    161 H161        3.1640  -16.0225  -42.9663 H         1 UNK         0.0600 
    162 H162        3.8974  -17.6170  -42.9300 H         1 UNK         0.0600 
    163 H163        3.4273  -16.8411  -41.4251 H         1 UNK         0.0600 
    164 H164        1.0564  -15.9185  -41.5420 H         1 UNK         0.3000 
    165 H165       -2.4314  -16.5252  -41.0429 H         1 UNK         0.0600 
    166 H166       -1.8146  -15.4350  -38.9070 H         1 UNK         0.0600 
    167 H167       -1.2183  -17.0874  -38.9249 H         1 UNK         0.0600 
    168 H168       -0.1051  -15.7511  -39.1975 H         1 UNK         0.0600 
    169 H169       -0.8234  -14.1420  -40.9484 H         1 UNK         0.3000 
    170 H170       -1.4501  -13.1367  -44.3332 H         1 UNK         0.0600 
    171 H171       -3.3008  -12.3757  -42.9026 H         1 UNK         0.0600 
    172 H172       -2.2037  -12.0625  -41.5683 H         1 UNK         0.0600 
    173 H173       -2.0864  -11.1149  -43.0496 H         1 UNK         0.0600 
    174 H174        0.6377  -12.6175  -43.9222 H         1 UNK         0.3000 
    175 H175        2.3428  -11.0793  -41.5383 H         1 UNK         0.0600 
    176 H176        3.1157  -14.0275  -41.8090 H         1 UNK         0.0600 
    177 H177        4.2196  -12.7166  -41.4061 H         1 UNK         0.0600 
    178 H178        2.9235  -13.1448  -40.3008 H         1 UNK         0.0600 
    179 H179        3.3389  -12.5698  -43.7959 H         1 UNK         0.3000 
    180 H180        2.4198  -11.2877  -46.2656 H         1 UNK         0.0600 
    181 H181        3.6921   -9.3161  -47.1508 H         1 UNK         0.0600 
    182 H182        3.8444   -8.6817  -45.5129 H         1 UNK         0.0600 
    183 H183        2.2601   -8.8336  -46.2585 H         1 UNK         0.0600 
    184 H184        4.3913  -12.2744  -46.2592 H         1 UNK         0.3000 
    185 H185        7.3519  -11.7789  -45.7875 H         1 UNK         0.0600 
    186 H186        8.2066  -13.1420  -43.8570 H         1 UNK         0.0600 
    187 H187        7.8181  -11.4974  -43.3840 H         1 UNK         0.0600 
    188 H188        6.7202  -12.8069  -42.9700 H         1 UNK         0.0600 
    189 H189        6.7506  -13.7864  -46.4964 H         1 UNK         0.3000 
    190 H190       -0.8661  -20.2928  -47.6922 H         1 UNK         0.3000 
    191 H191       -1.3973  -21.3682  -50.2101 H         1 UNK         0.0600 
    192 H192       -2.1784  -19.1432  -49.3160 H         1 UNK         0.0600 
    193 H193       -3.3688  -19.9737  -48.3277 H         1 UNK         0.0600 
    194 H194       -3.4453  -20.0578  -50.0921 H         1 UNK         0.0600 
    195 H195       -2.7640  -22.3313  -47.0485 H         1 UNK         0.3000 
    196 H196       -4.7556  -24.0995  -47.9523 H         1 UNK         0.0600 
    197 H197       -3.0764  -24.1577  -45.3895 H         1 UNK         0.0600 
    198 H198       -4.5995  -23.3006  -45.6211 H         1 UNK         0.0600 
    199 H199       -4.5695  -25.0563  -45.6381 H         1 UNK         0.0600 
    200 H200       -1.2843  -24.5518  -47.9536 H         1 UNK         0.3000 
    201 H201       -1.5388  -27.4661  -48.5543 H         1 UNK         0.0600 
    202 H202        0.9131  -25.7407  -47.9197 H         1 UNK         0.0600 
    203 H203        0.9289  -27.4682  -48.2568 H         1 UNK         0.0600 
    204 H204        0.1209  -26.8634  -46.8181 H         1 UNK         0.0600 
    205 H205       -0.1296  -24.3926  -49.8083 H         1 UNK         0.3000 
    206 H206        0.9131  -25.5663  -52.1735 H         1 UNK         0.0600 
    207 H207        1.8546  -23.5409  -51.0735 H         1 UNK         0.0600 
    208 H208        1.4685  -23.2165  -52.7574 H         1 UNK         0.0600 
    209 H209        0.4048  -22.6272  -51.4865 H         1 UNK         0.0600 
    210 H210       -2.1019  -23.7199  -51.6040 H         1 UNK         0.3000 
    211 H211       -2.8566  -23.9687  -54.4916 H         1 UNK         0.0600 
    212 H212       -4.3722  -22.0586  -53.9932 H         1 UNK         0.0600 
    213 H213       -2.7013  -21.6443  -53.6608 H         1 UNK         0.0600 
    214 H214       -3.7953  -22.0105  -52.3355 H         1 UNK         0.0600 
    215 H215       -4.0081  -24.3295  -51.1367 H         1 UNK         0.3000 
    216 H216       -5.5501  -25.5705  -50.1307 H         1 UNK         0.0600 
    217 H217       -5.5150  -27.9949  -50.7778 H         1 UNK         0.0600 
    218 H218       -4.6963  -27.5853  -52.2879 H         1 UNK         0.0600 
    219 H219       -3.9066  -27.2989  -50.7469 H         1 UNK         0.0600 
    220 H220       -6.6170  -27.4594  -52.7740 H         1 UNK         0.3000 
    221 H221       -9.3528  -26.8955  -52.4783 H         1 UNK         0.0600 
    222 H222       -8.4504  -29.0468  -53.3195 H         1 UNK         0.0600 
    223 H223       -7.8373  -28.2539  -54.7717 H         1 UNK         0.0600 
    224 H224       -9.5703  -28.3710  -54.4902 H         1 UNK         0.0600 
    225 H225       -7.0164  -25.0960  -54.2975 H         1 UNK         0.3000 
    226 H226       -8.8577  -23.8247  -56.1479 H         1 UNK         0.0600 
    227 H227       -6.0855  -22.9731  -55.1789 H         1 UNK         0.0600 
    228 H228       -6.3995  -24.0040  -56.5729 H         1 UNK         0.0600 
    229 H229       -6.9327  -22.3299  -56.5775 H         1 UNK         0.0600 
    230 H230       -8.7143  -23.6618  -52.8292 H         1 UNK         0.3000 
    231 H231       -9.7264  -22.4839  -51.2814 H         1 UNK         0.0600 
    232 H232      -10.8503  -20.5733  -53.3925 H         1 UNK         0.0600 
    233 H233      -11.3916  -20.7572  -51.7340 H         1 UNK         0.0600 
    234 H234      -11.6158  -22.0752  -52.8734 H         1 UNK         0.0600 
    235 H235       -7.1765  -22.2679  -51.4920 H         1 UNK         0.3000 
    236 H236       -5.3627  -21.2183  -50.8156 H         1 UNK         0.0600 
    237 H237       -5.5770  -19.4339  -49.1010 H         1 UNK         0.0600 
    238 H238       -7.2332  -19.1172  -49.5897 H         1 UNK         0.0600 
    239 H239       -6.8029  -20.6535  -48.8482 H         1 UNK         0.0600 
    240 H240       -5.0925  -18.1878  -50.5340 H         1 UNK         0.3000 
    241 H241       -4.3697  -17.5896  -53.3166 H         1 UNK         0.0600 
    242 H242       -7.9226  -15.9327  -52.6951 H         1 UNK         0.3800 
    243 H243       -7.3859  -17.3877  -51.9008 H         1 UNK         0.3800 
    244 H244       -3.8537  -16.0726  -50.7194 H         1 UNK         0.0800 
    245 H245       -3.3849  -15.4694  -52.2879 H         1 UNK         0.0800 
    246 H246       -1.2636  -15.4964  -50.3133 H         1 UNK         0.0800 
    247 H247       -1.7407  -16.8583  -49.3288 H         1 UNK         0.0800 
@<TRIPOS>BOND
     1    1    2 1    
     2    1  127 1    
     3    1  128 1    
     4    1  129 1    
     5    2    3 2    
     6    2    4 am   BACKBONE|DICT|INTERRES
     7    4    5 1    
     8    4  130 1    
     9    5    6 1    
    10    5   65 1    
    11    5  131 1    
    12    6    7 1    
    13    6  132 1    
    14    6  133 1    
    15    7    8 1    
    16    8    9 1    
    17    8  134 1    
    18    8  135 1    
    19    9   10 ar   
    20    9   14 ar   
    21   10   11 ar   
    22   10  136 1    
    23   11   12 ar   
    24   11  126 1    
    25   12   13 ar   
    26   12  137 1    
    27   13   14 ar   
    28   13   15 1    
    29   14  138 1    
    30   15   16 1    
    31   15  139 1    
    32   15  140 1    
    33   16   17 1    
    34   17   18 1    
    35   17  141 1    
    36   17  142 1    
    37   18   19 1    
    38   18   67 1    
    39   18  143 1    
    40   19   20 am   BACKBONE|DICT|INTERRES
    41   19  144 1    
    42   20   21 2    
    43   20   22 1    
    44   22   23 1    
    45   22   24 1    
    46   22  145 1    
    47   23  146 1    
    48   23  147 1    
    49   23  148 1    
    50   24   25 am   BACKBONE|DICT|INTERRES
    51   24  149 1    
    52   25   26 2    
    53   25   27 1    
    54   27   28 1    
    55   27   29 1    
    56   27  150 1    
    57   28  151 1    
    58   28  152 1    
    59   28  153 1    
    60   29   30 am   BACKBONE|DICT|INTERRES
    61   29  154 1    
    62   30   31 2    
    63   30   32 1    
    64   32   33 1    
    65   32   34 1    
    66   32  155 1    
    67   33  156 1    
    68   33  157 1    
    69   33  158 1    
    70   34   35 am   BACKBONE|DICT|INTERRES
    71   34  159 1    
    72   35   36 2    
    73   35   37 1    
    74   37   38 1    
    75   37   39 1    
    76   37  160 1    
    77   38  161 1    
    78   38  162 1    
    79   38  163 1    
    80   39   40 am   BACKBONE|DICT|INTERRES
    81   39  164 1    
    82   40   41 2    
    83   40   42 1    
    84   42   43 1    
    85   42   44 1    
    86   42  165 1    
    87   43  166 1    
    88   43  167 1    
    89   43  168 1    
    90   44   45 am   BACKBONE|DICT|INTERRES
    91   44  169 1    
    92   45   46 2    
    93   45   47 1    
    94   47   48 1    
    95   47   49 1    
    96   47  170 1    
    97   48  171 1    
    98   48  172 1    
    99   48  173 1    
   100   49   50 am   BACKBONE|DICT|INTERRES
   101   49  174 1    
   102   50   51 2    
   103   50   52 1    
   104   52   53 1    
   105   52   54 1    
   106   52  175 1    
   107   53  176 1    
   108   53  177 1    
   109   53  178 1    
   110   54   55 am   BACKBONE|DICT|INTERRES
   111   54  179 1    
   112   55   56 2    
   113   55   57 1    
   114   57   58 1    
   115   57   59 1    
   116   57  180 1    
   117   58  181 1    
   118   58  182 1    
   119   58  183 1    
   120   59   60 am   BACKBONE|DICT|INTERRES
   121   59  184 1    
   122   60   61 2    
   123   60   62 1    
   124   62   63 1    
   125   62   64 1    
   126   62  185 1    
   127   63  186 1    
   128   63  187 1    
   129   63  188 1    
   130   64   65 am   BACKBONE|DICT|INTERRES
   131   64  189 1    
   132   65   66 2    
   133   67   68 2    
   134   67   69 am   BACKBONE|DICT|INTERRES
   135   69   70 1    
   136   69  190 1    
   137   70   71 1    
   138   70   72 1    
   139   70  191 1    
   140   71  192 1    
   141   71  193 1    
   142   71  194 1    
   143   72   73 2    
   144   72   74 am   BACKBONE|DICT|INTERRES
   145   74   75 1    
   146   74  195 1    
   147   75   76 1    
   148   75   77 1    
   149   75  196 1    
   150   76  197 1    
   151   76  198 1    
   152   76  199 1    
   153   77   78 2    
   154   77   79 am   BACKBONE|DICT|INTERRES
   155   79   80 1    
   156   79  200 1    
   157   80   81 1    
   158   80   82 1    
   159   80  201 1    
   160   81  202 1    
   161   81  203 1    
   162   81  204 1    
   163   82   83 2    
   164   82   84 am   BACKBONE|DICT|INTERRES
   165   84   85 1    
   166   84  205 1    
   167   85   86 1    
   168   85   87 1    
   169   85  206 1    
   170   86  207 1    
   171   86  208 1    
   172   86  209 1    
   173   87   88 2    
   174   87   89 am   BACKBONE|DICT|INTERRES
   175   89   90 1    
   176   89  210 1    
   177   90   91 1    
   178   90   92 1    
   179   90  211 1    
   180   91  212 1    
   181   91  213 1    
   182   91  214 1    
   183   92   93 2    
   184   92   94 am   BACKBONE|DICT|INTERRES
   185   94   95 1    
   186   94  215 1    
   187   95   96 1    
   188   95   97 1    
   189   95  216 1    
   190   96  217 1    
   191   96  218 1    
   192   96  219 1    
   193   97   98 2    
   194   97   99 am   BACKBONE|DICT|INTERRES
   195   99  100 1    
   196   99  220 1    
   197  100  101 1    
   198  100  102 1    
   199  100  221 1    
   200  101  222 1    
   201  101  223 1    
   202  101  224 1    
   203  102  103 2    
   204  102  104 am   BACKBONE|DICT|INTERRES
   205  104  105 1    
   206  104  225 1    
   207  105  106 1    
   208  105  107 1    
   209  105  226 1    
   210  106  227 1    
   211  106  228 1    
   212  106  229 1    
   213  107  108 2    
   214  107  109 am   BACKBONE|DICT|INTERRES
   215  109  110 1    
   216  109  230 1    
   217  110  111 1    
   218  110  112 1    
   219  110  231 1    
   220  111  232 1    
   221  111  233 1    
   222  111  234 1    
   223  112  113 2    
   224  112  114 am   BACKBONE|DICT|INTERRES
   225  114  115 1    
   226  114  235 1    
   227  115  116 1    
   228  115  117 1    
   229  115  236 1    
   230  116  237 1    
   231  116  238 1    
   232  116  239 1    
   233  117  118 2    
   234  117  119 am   BACKBONE|DICT|INTERRES
   235  119  120 1    
   236  119  240 1    
   237  120  121 1    
   238  120  124 1    
   239  120  241 1    
   240  121  122 am   BACKBONE|DICT|INTERRES
   241  121  123 2    
   242  122  242 1    
   243  122  243 1    
   244  124  125 1    
   245  124  244 1    
   246  124  245 1    
   247  125  126 1    
   248  126  246 1    
   249  126  247 1    
@<TRIPOS>SUBSTRUCTURE
     1 UNK         1 GROUP             0       ****    0 ROOT    
