@<TRIPOS>MOLECULE
3R540
247   249    1
SMALL
USER_CHARGES


@<TRIPOS>ATOM
      1 CA          8.8325  -14.5618  -47.8138 C.3       0 UNK        -0.1800 
      2 C           7.3421  -14.4830  -48.1117 C.2       0 UNK         0.5000 
      3 O           6.9307  -13.6957  -48.9641 O.2       0 UNK        -0.5000 
      4 N           6.5347  -15.2806  -47.3994 N.am      1 UNK        -0.5000 
      5 CA          5.0729  -15.4414  -47.5093 C.3       1 UNK         0.1400 
      6 C6          4.5768  -15.8660  -48.9173 C.3       23 UNK        -0.0398 
      7 S7          5.3657  -17.4046  -49.5042 S.3       23 UNK        -0.2404 
      8 C8          4.0496  -18.6307  -49.1871 C.3       23 UNK        -0.0205 
      9 C9          2.8987  -18.6744  -50.1966 C.ar      23 UNK        -0.0193 
     10 C10         2.7638  -17.7730  -51.2627 C.ar      23 UNK        -0.1150 
     11 C11         1.6877  -17.8657  -52.1530 C.ar      23 UNK        -0.0193 
     12 C12         0.7354  -18.8743  -51.9736 C.ar      23 UNK        -0.1150 
     13 C13         0.8512  -19.7744  -50.9122 C.ar      23 UNK        -0.0193 
     14 C14         1.9330  -19.6704  -50.0349 C.ar      23 UNK        -0.1150 
     15 C15        -0.2040  -20.8400  -50.6754 C.3       23 UNK        -0.0205 
     16 S16        -1.3132  -20.2864  -49.3535 S.3       23 UNK        -0.2404 
     17 C17        -2.1321  -21.8143  -48.8174 C.3       23 UNK        -0.0398 
     18 CA         -1.2195  -22.8170  -48.0704 C.3       11 UNK         0.1400 
     19 N          -0.3476  -22.2205  -47.0513 N.am      11 UNK        -0.5000 
     20 C           0.5959  -22.8978  -46.3769 C.2       10 UNK         0.5000 
     21 O           0.8375  -24.0921  -46.5510 O.2       10 UNK        -0.5000 
     22 CA          1.3656  -22.1338  -45.2890 C.3       10 UNK         0.1400 
     23 CB          2.5411  -21.3479  -45.8911 C.3       10 UNK        -0.1800 
     24 N           0.4839  -21.2354  -44.5480 N.am      10 UNK        -0.5000 
     25 C          -0.4236  -21.6456  -43.6506 C.2       9 UNK         0.5000 
     26 O          -0.5660  -22.8203  -43.3100 O.2       9 UNK        -0.5000 
     27 CA         -1.3614  -20.5693  -43.0729 C.3       9 UNK         0.1400 
     28 CB         -0.6951  -19.8403  -41.8971 C.3       9 UNK        -0.1800 
     29 N          -1.7795  -19.5899  -44.0757 N.am      9 UNK        -0.5000 
     30 C          -2.5316  -19.8812  -45.1463 C.2       8 UNK         0.5000 
     31 O          -2.9886  -21.0010  -45.3751 O.2       8 UNK        -0.5000 
     32 CA         -2.7930  -18.7456  -46.1511 C.3       8 UNK         0.1400 
     33 CB         -4.0595  -17.9795  -45.7482 C.3       8 UNK        -0.1800 
     34 N          -1.6944  -17.7898  -46.3170 N.am      8 UNK        -0.5000 
     35 C          -0.4044  -18.0762  -46.5506 C.2       7 UNK         0.5000 
     36 O           0.0493  -19.2180  -46.6080 O.2       7 UNK        -0.5000 
     37 CA          0.5546  -16.8811  -46.6842 C.3       7 UNK         0.1400 
     38 CB          0.5405  -16.3416  -48.1218 C.3       7 UNK        -0.1800 
     39 N           0.2463  -15.7947  -45.7538 N.am      7 UNK        -0.5000 
     40 C           0.2378  -15.8927  -44.4161 C.2       6 UNK         0.5000 
     41 O           0.4922  -16.9277  -43.7984 O.2       6 UNK        -0.5000 
     42 CA         -0.1685  -14.6289  -43.6409 C.3       6 UNK         0.1400 
     43 CB          1.0006  -13.6357  -43.5459 C.3       6 UNK        -0.1800 
     44 N          -1.3163  -13.9805  -44.2738 N.am      6 UNK        -0.5000 
     45 C          -2.5920  -14.3309  -44.0583 C.2       5 UNK         0.5000 
     46 O          -2.9361  -15.1760  -43.2316 O.2       5 UNK        -0.5000 
     47 CA         -3.6718  -13.6275  -44.9065 C.3       5 UNK         0.1400 
     48 CB         -4.2414  -12.4164  -44.1524 C.3       5 UNK        -0.1800 
     49 N          -3.1980  -13.1884  -46.2206 N.am      5 UNK        -0.5000 
     50 C          -2.8299  -14.0136  -47.2103 C.2       4 UNK         0.5000 
     51 O          -2.8557  -15.2386  -47.1208 O.2       4 UNK        -0.5000 
     52 CA         -2.2742  -13.3569  -48.4895 C.3       4 UNK         0.1400 
     53 CB         -3.4169  -12.9830  -49.4448 C.3       4 UNK        -0.1800 
     54 N          -1.4398  -12.1753  -48.2391 N.am      4 UNK        -0.5000 
     55 C          -0.3557  -12.1561  -47.4516 C.2       3 UNK         0.5000 
     56 O           0.0248  -13.1280  -46.7967 O.2       3 UNK        -0.5000 
     57 CA          0.3808  -10.8104  -47.3225 C.3       3 UNK         0.1400 
     58 CB         -0.3379   -9.9118  -46.3034 C.3       3 UNK        -0.1800 
     59 N           1.7682  -10.9838  -46.8908 N.am      3 UNK        -0.5000 
     60 C           2.7375  -11.5484  -47.6227 C.2       2 UNK         0.5000 
     61 O           2.5864  -11.8996  -48.7956 O.2       2 UNK        -0.5000 
     62 CA          4.1221  -11.7164  -46.9577 C.3       2 UNK         0.1400 
     63 CB          4.1372  -11.4728  -45.4308 C.3       2 UNK        -0.1800 
     64 N           4.7287  -13.0089  -47.2851 N.am      2 UNK        -0.5000 
     65 C           4.2689  -14.2311  -46.9841 C.2       1 UNK         0.5000 
     66 O           3.2671  -14.4379  -46.3009 O.2       1 UNK        -0.5000 
     67 C          -2.0825  -23.9511  -47.4945 C.2       11 UNK         0.5000 
     68 O          -2.1546  -25.0165  -48.1045 O.2       11 UNK        -0.5000 
     69 N          -2.6866  -23.7079  -46.3233 N.am      12 UNK        -0.5000 
     70 CA         -3.5045  -24.6717  -45.5916 C.3       12 UNK         0.1400 
     71 CB         -4.2157  -23.9571  -44.4329 C.3       12 UNK        -0.1800 
     72 C          -2.6921  -25.8720  -45.0752 C.2       12 UNK         0.5000 
     73 O          -3.1787  -27.0006  -45.1435 O.2       12 UNK        -0.5000 
     74 N          -1.4669  -25.6151  -44.5935 N.am      13 UNK        -0.5000 
     75 CA         -0.5361  -26.6398  -44.1164 C.3       13 UNK         0.1400 
     76 CB          0.6374  -25.9709  -43.3849 C.3       13 UNK        -0.1800 
     77 C          -0.0263  -27.5517  -45.2474 C.2       13 UNK         0.5000 
     78 O           0.0340  -28.7686  -45.0676 O.2       13 UNK        -0.5000 
     79 N           0.3139  -26.9503  -46.3950 N.am      14 UNK        -0.5000 
     80 CA          0.7722  -27.6534  -47.5944 C.3       14 UNK         0.1400 
     81 CB          1.5180  -26.6531  -48.4918 C.3       14 UNK        -0.1800 
     82 C          -0.3677  -28.3220  -48.3878 C.2       14 UNK         0.5000 
     83 O          -0.0927  -29.2101  -49.1954 O.2       14 UNK        -0.5000 
     84 N          -1.6074  -27.8539  -48.1762 N.am      15 UNK        -0.5000 
     85 CA         -2.8163  -28.1259  -48.9640 C.3       15 UNK         0.1400 
     86 CB         -3.2348  -29.6069  -48.8592 C.3       15 UNK        -0.1800 
     87 C          -2.6743  -27.6260  -50.4200 C.2       15 UNK         0.5000 
     88 O          -3.1445  -28.2760  -51.3555 O.2       15 UNK        -0.5000 
     89 N          -1.9939  -26.4831  -50.5770 N.am      16 UNK        -0.5000 
     90 CA         -1.6292  -25.8871  -51.8608 C.3       16 UNK         0.1400 
     91 CB         -0.3143  -25.1101  -51.6900 C.3       16 UNK        -0.1800 
     92 C          -2.7230  -24.9638  -52.4211 C.2       16 UNK         0.5000 
     93 O          -2.8388  -24.8410  -53.6411 O.2       16 UNK        -0.5000 
     94 N          -3.4987  -24.3313  -51.5339 N.am      17 UNK        -0.5000 
     95 CA         -4.5843  -23.4101  -51.8556 C.3       17 UNK         0.1400 
     96 CB         -4.0304  -22.0630  -52.3711 C.3       17 UNK        -0.1800 
     97 C          -5.4572  -23.2136  -50.6081 C.2       17 UNK         0.5000 
     98 O          -5.0734  -23.6314  -49.5116 O.2       17 UNK        -0.5000 
     99 N          -6.6148  -22.5754  -50.8081 N.am      18 UNK        -0.5000 
    100 CA        -7.5610  -22.1851  -49.7636 C.3       18 UNK         0.1400 
    101 CB        -8.9138  -21.8888  -50.4375 C.3       18 UNK        -0.1800 
    102 C         -7.0671  -20.9725  -48.9447 C.2       18 UNK         0.5000 
    103 O         -5.9824  -20.4422  -49.1954 O.2       18 UNK        -0.5000 
    104 N         -7.9050  -20.5175  -48.0026 N.am      19 UNK        -0.5000 
    105 CA        -7.6595  -19.3827  -47.1030 C.3       19 UNK         0.1400 
    106 CB        -8.8067  -19.3060  -46.0836 C.3       19 UNK        -0.1800 
    107 C         -7.4594  -18.0155  -47.7970 C.2       19 UNK         0.5000 
    108 O         -6.9861  -17.0789  -47.1549 O.2       19 UNK        -0.5000 
    109 N         -7.8064  -17.9196  -49.0873 N.am      20 UNK        -0.5000 
    110 CA        -7.5090  -16.7748  -49.9509 C.3       20 UNK         0.1400 
    111 CB        -8.4521  -16.8204  -51.1635 C.3       20 UNK        -0.1800 
    112 C         -6.0369  -16.7286  -50.4179 C.2       20 UNK         0.5000 
    113 O         -5.6063  -15.6962  -50.9364 O.2       20 UNK        -0.5000 
    114 N         -5.3005  -17.8395  -50.2523 N.am      21 UNK        -0.5000 
    115 CA        -3.9223  -18.0613  -50.6924 C.3       21 UNK         0.1400 
    116 CB        -2.9471  -17.1972  -49.8595 C.3       21 UNK        -0.1800 
    117 C         -3.7799  -17.8791  -52.2181 C.2       21 UNK         0.5000 
    118 O         -4.6413  -18.3430  -52.9685 O.2       21 UNK        -0.5000 
    119 N         -2.7173  -17.1931  -52.6475 N.am      22 UNK        -0.5000 
    120 CA        -2.5171  -16.7100  -54.0201 C.3       22 UNK         0.1400 
    121 C         -3.2163  -15.3480  -54.3240 C.2       22 UNK         0.5000 
    122 N         -4.0248  -14.7857  -53.4313 N.am      22 UNK        -0.7600 
    123 O         -3.0406  -14.7939  -55.4058 O.2       22 UNK        -0.5000 
    124 C124       -1.0165  -16.7232  -54.4153 C.3       23 UNK        -0.0398 
    125 S125        0.0885  -15.8471  -53.2476 S.3       23 UNK        -0.2404 
    126 C126        1.5837  -16.8899  -53.3201 C.3       23 UNK        -0.0205 
    127 H127        9.2012  -13.5904  -47.4843 H         1 UNK         0.0600 
    128 H128        9.3790  -14.8484  -48.7123 H         1 UNK         0.0600 
    129 H129        9.0531  -15.2918  -47.0346 H         1 UNK         0.0600 
    130 H130        6.9593  -15.8723  -46.6991 H         1 UNK         0.3000 
    131 H131        4.8346  -16.2635  -46.8320 H         1 UNK         0.0600 
    132 H132        3.4947  -16.0045  -48.9142 H         1 UNK         0.0800 
    133 H133        4.7715  -15.0819  -49.6502 H         1 UNK         0.0800 
    134 H134        4.5190  -19.6152  -49.1645 H         1 UNK         0.0800 
    135 H135        3.6418  -18.4652  -48.1886 H         1 UNK         0.0800 
    136 H136        3.4953  -16.9940  -51.4149 H         1 UNK         0.1150 
    137 H137       -0.1031  -18.9542  -52.6489 H         1 UNK         0.1150 
    138 H138        2.0107  -20.3626  -49.2078 H         1 UNK         0.1150 
    139 H139       -0.7786  -21.0369  -51.5817 H         1 UNK         0.0800 
    140 H140        0.2837  -21.7747  -50.3983 H         1 UNK         0.0800 
    141 H141       -2.5680  -22.2971  -49.6901 H         1 UNK         0.0800 
    142 H142       -2.9746  -21.5133  -48.1914 H         1 UNK         0.0800 
    143 H143       -0.5558  -23.2722  -48.8067 H         1 UNK         0.0600 
    144 H144       -0.4494  -21.2246  -46.8845 H         1 UNK         0.3000 
    145 H145        1.7761  -22.8658  -44.5903 H         1 UNK         0.0600 
    146 H146        3.0890  -20.8053  -45.1206 H         1 UNK         0.0600 
    147 H147        3.2465  -22.0221  -46.3783 H         1 UNK         0.0600 
    148 H148        2.2136  -20.6271  -46.6398 H         1 UNK         0.0600 
    149 H149        0.4633  -20.2713  -44.8594 H         1 UNK         0.3000 
    150 H150       -2.2560  -21.0731  -42.7009 H         1 UNK         0.0600 
    151 H151       -1.3774  -19.1238  -41.4394 H         1 UNK         0.0600 
    152 H152        0.1972  -19.2981  -42.2132 H         1 UNK         0.0600 
    153 H153       -0.3942  -20.5451  -41.1210 H         1 UNK         0.0600 
    154 H154       -1.4112  -18.6527  -43.9834 H         1 UNK         0.3000 
    155 H155       -2.9720  -19.2090  -47.1219 H         1 UNK         0.0600 
    156 H156       -4.8832  -18.6595  -45.5328 H         1 UNK         0.0600 
    157 H157       -3.8960  -17.3720  -44.8574 H         1 UNK         0.0600 
    158 H158       -4.3872  -17.3179  -46.5492 H         1 UNK         0.0600 
    159 H159       -1.9702  -16.8126  -46.3519 H         1 UNK         0.3000 
    160 H160        1.5637  -17.2313  -46.4585 H         1 UNK         0.0600 
    161 H161        1.2171  -15.4946  -48.2355 H         1 UNK         0.0600 
    162 H162       -0.4562  -16.0142  -48.4143 H         1 UNK         0.0600 
    163 H163        0.8490  -17.1104  -48.8304 H         1 UNK         0.0600 
    164 H164        0.0822  -14.8802  -46.1678 H         1 UNK         0.3000 
    165 H165       -0.4352  -14.9267  -42.6245 H         1 UNK         0.0600 
    166 H166        0.7235  -12.7534  -42.9691 H         1 UNK         0.0600 
    167 H167        1.8593  -14.0928  -43.0527 H         1 UNK         0.0600 
    168 H168        1.3317  -13.3028  -44.5293 H         1 UNK         0.0600 
    169 H169       -1.1060  -13.3379  -45.0269 H         1 UNK         0.3000 
    170 H170       -4.4808  -14.3442  -45.0643 H         1 UNK         0.0600 
    171 H171       -3.4812  -11.6518  -43.9867 H         1 UNK         0.0600 
    172 H172       -5.0643  -11.9598  -44.7026 H         1 UNK         0.0600 
    173 H173       -4.6291  -12.7110  -43.1762 H         1 UNK         0.0600 
    174 H174       -3.1300  -12.1932  -46.3726 H         1 UNK         0.3000 
    175 H175       -1.6475  -14.0960  -48.9907 H         1 UNK         0.0600 
    176 H176       -3.0329  -12.6439  -50.4070 H         1 UNK         0.0600 
    177 H177       -4.0445  -12.1917  -49.0333 H         1 UNK         0.0600 
    178 H178       -4.0602  -13.8419  -49.6392 H         1 UNK         0.0600 
    179 H179       -1.7023  -11.3318  -48.7282 H         1 UNK         0.3000 
    180 H180        0.3808  -10.3166  -48.2964 H         1 UNK         0.0600 
    181 H181       -0.3646  -10.3683  -45.3128 H         1 UNK         0.0600 
    182 H182       -1.3687   -9.7202  -46.6039 H         1 UNK         0.0600 
    183 H183        0.1559   -8.9441  -46.2134 H         1 UNK         0.0600 
    184 H184        1.9701  -10.7514  -45.9302 H         1 UNK         0.3000 
    185 H185        4.7641  -10.9618  -47.4137 H         1 UNK         0.0600 
    186 H186        3.4647  -12.1468  -44.9001 H         1 UNK         0.0600 
    187 H187        5.1378  -11.6205  -45.0243 H         1 UNK         0.0600 
    188 H188        3.8460  -10.4502  -45.1886 H         1 UNK         0.0600 
    189 H189        5.5401  -12.9735  -47.8963 H         1 UNK         0.3000 
    190 H190       -2.6127  -22.7783  -45.9167 H         1 UNK         0.3000 
    191 H191       -4.2648  -25.0529  -46.2768 H         1 UNK         0.0600 
    192 H192       -4.8605  -23.1586  -44.8005 H         1 UNK         0.0600 
    193 H193       -4.8430  -24.6499  -43.8706 H         1 UNK         0.0600 
    194 H194       -3.5027  -23.5153  -43.7353 H         1 UNK         0.0600 
    195 H195       -1.1505  -24.6547  -44.5440 H         1 UNK         0.3000 
    196 H196       -1.0668  -27.2677  -43.3977 H         1 UNK         0.0600 
    197 H197        1.3399  -26.7159  -43.0095 H         1 UNK         0.0600 
    198 H198        0.2893  -25.3926  -42.5289 H         1 UNK         0.0600 
    199 H199        1.1910  -25.2978  -44.0400 H         1 UNK         0.0600 
    200 H200        0.2947  -25.9346  -46.4444 H         1 UNK         0.3000 
    201 H201        1.4736  -28.4360  -47.2977 H         1 UNK         0.0600 
    202 H202        2.3719  -26.2181  -47.9721 H         1 UNK         0.0600 
    203 H203        0.8677  -25.8357  -48.8061 H         1 UNK         0.0600 
    204 H204        1.8973  -27.1378  -49.3923 H         1 UNK         0.0600 
    205 H205       -1.6981  -27.0876  -47.5212 H         1 UNK         0.3000 
    206 H206       -3.6100  -27.5275  -48.5142 H         1 UNK         0.0600 
    207 H207       -3.3135  -29.9200  -47.8181 H         1 UNK         0.0600 
    208 H208       -4.2091  -29.7690  -49.3213 H         1 UNK         0.0600 
    209 H209       -2.5251  -30.2682  -49.3566 H         1 UNK         0.0600 
    210 H210       -1.7207  -25.9845  -49.7360 H         1 UNK         0.3000 
    211 H211       -1.4588  -26.6828  -52.5893 H         1 UNK         0.0600 
    212 H212       -0.4135  -24.3032  -50.9642 H         1 UNK         0.0600 
    213 H213        0.0015  -24.6643  -52.6341 H         1 UNK         0.0600 
    214 H214        0.4900  -25.7662  -51.3572 H         1 UNK         0.0600 
    215 H215       -3.4034  -24.5317  -50.5454 H         1 UNK         0.3000 
    216 H216       -5.2058  -23.8654  -52.6295 H         1 UNK         0.0600 
    217 H217       -4.8382  -21.3849  -52.6484 H         1 UNK         0.0600 
    218 H218       -3.4122  -22.1946  -53.2587 H         1 UNK         0.0600 
    219 H219       -3.4285  -21.5512  -51.6221 H         1 UNK         0.0600 
    220 H220       -6.8281  -22.2466  -51.7380 H         1 UNK         0.3000 
    221 H221       -7.6868  -23.0239  -49.0759 H         1 UNK         0.0600 
    222 H222       -8.8545  -21.0204  -51.0951 H         1 UNK         0.0600 
    223 H223       -9.2484  -22.7368  -51.0357 H         1 UNK         0.0600 
    224 H224       -9.6962  -21.6936  -49.7037 H         1 UNK         0.0600 
    225 H225       -8.7833  -20.9976  -47.8691 H         1 UNK         0.3000 
    226 H226       -6.7387  -19.6002  -46.5603 H         1 UNK         0.0600 
    227 H227       -8.8919  -20.2312  -45.5133 H         1 UNK         0.0600 
    228 H228       -8.6417  -18.5004  -45.3667 H         1 UNK         0.0600 
    229 H229       -9.7646  -19.1204  -46.5710 H         1 UNK         0.0600 
    230 H230       -8.2048  -18.7318  -49.5334 H         1 UNK         0.3000 
    231 H231       -7.7067  -15.8543  -49.3976 H         1 UNK         0.0600 
    232 H232       -8.2968  -17.7206  -51.7596 H         1 UNK         0.0600 
    233 H233       -8.2897  -15.9626  -51.8174 H         1 UNK         0.0600 
    234 H234       -9.4968  -16.7973  -50.8529 H         1 UNK         0.0600 
    235 H235       -5.7414  -18.6559  -49.8389 H         1 UNK         0.3000 
    236 H236       -3.7092  -19.1105  -50.4895 H         1 UNK         0.0600 
    237 H237       -3.1014  -17.3646  -48.7952 H         1 UNK         0.0600 
    238 H238       -1.9066  -17.4463  -50.0700 H         1 UNK         0.0600 
    239 H239       -3.0781  -16.1312  -50.0447 H         1 UNK         0.0600 
    240 H240       -2.0574  -16.8403  -51.9694 H         1 UNK         0.3000 
    241 H241       -3.0080  -17.4144  -54.6940 H         1 UNK         0.0600 
    242 H242       -4.4671  -13.9100  -53.6597 H         1 UNK         0.3800 
    243 H243       -4.2562  -15.2412  -52.5574 H         1 UNK         0.3800 
    244 H244       -0.6946  -17.7610  -54.4985 H         1 UNK         0.0800 
    245 H245       -0.8697  -16.3036  -55.4119 H         1 UNK         0.0800 
    246 H246        2.4494  -16.2261  -53.3334 H         1 UNK         0.0800 
    247 H247        1.6221  -17.4414  -54.2602 H         1 UNK         0.0800 
@<TRIPOS>BOND
     1    1    2 1    
     2    1  127 1    
     3    1  128 1    
     4    1  129 1    
     5    2    3 2    
     6    2    4 am   BACKBONE|DICT|INTERRES
     7    4    5 1    
     8    4  130 1    
     9    5    6 1    
    10    5   65 1    
    11    5  131 1    
    12    6    7 1    
    13    6  132 1    
    14    6  133 1    
    15    7    8 1    
    16    8    9 1    
    17    8  134 1    
    18    8  135 1    
    19    9   10 ar   
    20    9   14 ar   
    21   10   11 ar   
    22   10  136 1    
    23   11   12 ar   
    24   11  126 1    
    25   12   13 ar   
    26   12  137 1    
    27   13   14 ar   
    28   13   15 1    
    29   14  138 1    
    30   15   16 1    
    31   15  139 1    
    32   15  140 1    
    33   16   17 1    
    34   17   18 1    
    35   17  141 1    
    36   17  142 1    
    37   18   19 1    
    38   18   67 1    
    39   18  143 1    
    40   19   20 am   BACKBONE|DICT|INTERRES
    41   19  144 1    
    42   20   21 2    
    43   20   22 1    
    44   22   23 1    
    45   22   24 1    
    46   22  145 1    
    47   23  146 1    
    48   23  147 1    
    49   23  148 1    
    50   24   25 am   BACKBONE|DICT|INTERRES
    51   24  149 1    
    52   25   26 2    
    53   25   27 1    
    54   27   28 1    
    55   27   29 1    
    56   27  150 1    
    57   28  151 1    
    58   28  152 1    
    59   28  153 1    
    60   29   30 am   BACKBONE|DICT|INTERRES
    61   29  154 1    
    62   30   31 2    
    63   30   32 1    
    64   32   33 1    
    65   32   34 1    
    66   32  155 1    
    67   33  156 1    
    68   33  157 1    
    69   33  158 1    
    70   34   35 am   BACKBONE|DICT|INTERRES
    71   34  159 1    
    72   35   36 2    
    73   35   37 1    
    74   37   38 1    
    75   37   39 1    
    76   37  160 1    
    77   38  161 1    
    78   38  162 1    
    79   38  163 1    
    80   39   40 am   BACKBONE|DICT|INTERRES
    81   39  164 1    
    82   40   41 2    
    83   40   42 1    
    84   42   43 1    
    85   42   44 1    
    86   42  165 1    
    87   43  166 1    
    88   43  167 1    
    89   43  168 1    
    90   44   45 am   BACKBONE|DICT|INTERRES
    91   44  169 1    
    92   45   46 2    
    93   45   47 1    
    94   47   48 1    
    95   47   49 1    
    96   47  170 1    
    97   48  171 1    
    98   48  172 1    
    99   48  173 1    
   100   49   50 am   BACKBONE|DICT|INTERRES
   101   49  174 1    
   102   50   51 2    
   103   50   52 1    
   104   52   53 1    
   105   52   54 1    
   106   52  175 1    
   107   53  176 1    
   108   53  177 1    
   109   53  178 1    
   110   54   55 am   BACKBONE|DICT|INTERRES
   111   54  179 1    
   112   55   56 2    
   113   55   57 1    
   114   57   58 1    
   115   57   59 1    
   116   57  180 1    
   117   58  181 1    
   118   58  182 1    
   119   58  183 1    
   120   59   60 am   BACKBONE|DICT|INTERRES
   121   59  184 1    
   122   60   61 2    
   123   60   62 1    
   124   62   63 1    
   125   62   64 1    
   126   62  185 1    
   127   63  186 1    
   128   63  187 1    
   129   63  188 1    
   130   64   65 am   BACKBONE|DICT|INTERRES
   131   64  189 1    
   132   65   66 2    
   133   67   68 2    
   134   67   69 am   BACKBONE|DICT|INTERRES
   135   69   70 1    
   136   69  190 1    
   137   70   71 1    
   138   70   72 1    
   139   70  191 1    
   140   71  192 1    
   141   71  193 1    
   142   71  194 1    
   143   72   73 2    
   144   72   74 am   BACKBONE|DICT|INTERRES
   145   74   75 1    
   146   74  195 1    
   147   75   76 1    
   148   75   77 1    
   149   75  196 1    
   150   76  197 1    
   151   76  198 1    
   152   76  199 1    
   153   77   78 2    
   154   77   79 am   BACKBONE|DICT|INTERRES
   155   79   80 1    
   156   79  200 1    
   157   80   81 1    
   158   80   82 1    
   159   80  201 1    
   160   81  202 1    
   161   81  203 1    
   162   81  204 1    
   163   82   83 2    
   164   82   84 am   BACKBONE|DICT|INTERRES
   165   84   85 1    
   166   84  205 1    
   167   85   86 1    
   168   85   87 1    
   169   85  206 1    
   170   86  207 1    
   171   86  208 1    
   172   86  209 1    
   173   87   88 2    
   174   87   89 am   BACKBONE|DICT|INTERRES
   175   89   90 1    
   176   89  210 1    
   177   90   91 1    
   178   90   92 1    
   179   90  211 1    
   180   91  212 1    
   181   91  213 1    
   182   91  214 1    
   183   92   93 2    
   184   92   94 am   BACKBONE|DICT|INTERRES
   185   94   95 1    
   186   94  215 1    
   187   95   96 1    
   188   95   97 1    
   189   95  216 1    
   190   96  217 1    
   191   96  218 1    
   192   96  219 1    
   193   97   98 2    
   194   97   99 am   BACKBONE|DICT|INTERRES
   195   99  100 1    
   196   99  220 1    
   197  100  101 1    
   198  100  102 1    
   199  100  221 1    
   200  101  222 1    
   201  101  223 1    
   202  101  224 1    
   203  102  103 2    
   204  102  104 am   BACKBONE|DICT|INTERRES
   205  104  105 1    
   206  104  225 1    
   207  105  106 1    
   208  105  107 1    
   209  105  226 1    
   210  106  227 1    
   211  106  228 1    
   212  106  229 1    
   213  107  108 2    
   214  107  109 am   BACKBONE|DICT|INTERRES
   215  109  110 1    
   216  109  230 1    
   217  110  111 1    
   218  110  112 1    
   219  110  231 1    
   220  111  232 1    
   221  111  233 1    
   222  111  234 1    
   223  112  113 2    
   224  112  114 am   BACKBONE|DICT|INTERRES
   225  114  115 1    
   226  114  235 1    
   227  115  116 1    
   228  115  117 1    
   229  115  236 1    
   230  116  237 1    
   231  116  238 1    
   232  116  239 1    
   233  117  118 2    
   234  117  119 am   BACKBONE|DICT|INTERRES
   235  119  120 1    
   236  119  240 1    
   237  120  121 1    
   238  120  124 1    
   239  120  241 1    
   240  121  122 am   BACKBONE|DICT|INTERRES
   241  121  123 2    
   242  122  242 1    
   243  122  243 1    
   244  124  125 1    
   245  124  244 1    
   246  124  245 1    
   247  125  126 1    
   248  126  246 1    
   249  126  247 1    
@<TRIPOS>SUBSTRUCTURE
     1 UNK         1 GROUP             0       ****    0 ROOT    
