@<TRIPOS>MOLECULE
3R540
247   249    1
SMALL
USER_CHARGES


@<TRIPOS>ATOM
      1 CA          2.9723  -11.3193  -49.4829 C.3       0 UNK        -0.1800 
      2 C           2.1659  -12.4623  -50.0827 C.2       0 UNK         0.5000 
      3 O           1.3403  -12.2291  -50.9648 O.2       0 UNK        -0.5000 
      4 N           2.3963  -13.6894  -49.5935 N.am      1 UNK        -0.5000 
      5 CA          1.7529  -14.9477  -50.0155 C.3       1 UNK         0.1400 
      6 C6          1.9721  -15.2918  -51.5172 C.3       23 UNK        -0.0398 
      7 S7          3.7380  -15.3528  -51.9901 S.3       23 UNK        -0.2404 
      8 C8          3.8257  -16.8759  -53.0040 C.3       23 UNK        -0.0205 
      9 C9          3.5636  -18.2003  -52.2804 C.ar      23 UNK        -0.0193 
     10 C10         3.5150  -19.3763  -53.0356 C.ar      23 UNK        -0.1150 
     11 C11         3.2857  -20.6144  -52.4263 C.ar      23 UNK        -0.0193 
     12 C12         3.0646  -20.6722  -51.0465 C.ar      23 UNK        -0.1150 
     13 C13         3.1120  -19.5078  -50.2767 C.ar      23 UNK        -0.0193 
     14 C14         3.3886  -18.2877  -50.8951 C.ar      23 UNK        -0.1150 
     15 C15         2.9110  -19.5560  -48.7702 C.3       23 UNK        -0.0205 
     16 S16         1.5476  -18.4743  -48.2220 S.3       23 UNK        -0.2404 
     17 C17         0.0281  -19.3691  -48.7021 C.3       23 UNK        -0.0398 
     18 CA         -0.0212  -20.8690  -48.3128 C.3       11 UNK         0.1400 
     19 N           0.4546  -21.1329  -46.9500 N.am      11 UNK        -0.5000 
     20 C           0.7060  -22.3542  -46.4584 C.2       10 UNK         0.5000 
     21 O           0.5857  -23.3890  -47.1124 O.2       10 UNK        -0.5000 
     22 CA          1.1131  -22.4394  -44.9790 C.3       10 UNK         0.1400 
     23 CB          2.6263  -22.2350  -44.8132 C.3       10 UNK        -0.1800 
     24 N           0.3818  -21.4672  -44.1672 N.am      10 UNK        -0.5000 
     25 C          -0.9078  -21.6026  -43.8255 C.2       9 UNK         0.5000 
     26 O          -1.5879  -22.5861  -44.1196 O.2       9 UNK        -0.5000 
     27 CA         -1.5613  -20.4282  -43.0695 C.3       9 UNK         0.1400 
     28 CB         -1.3115  -20.5543  -41.5598 C.3       9 UNK        -0.1800 
     29 N          -1.1047  -19.1152  -43.5308 N.am      9 UNK        -0.5000 
     30 C          -1.2769  -18.6539  -44.7779 C.2       8 UNK         0.5000 
     31 O          -1.8877  -19.2664  -45.6509 O.2       8 UNK        -0.5000 
     32 CA         -0.6130  -17.3169  -45.1429 C.3       8 UNK         0.1400 
     33 CB         -1.5705  -16.1454  -44.8866 C.3       8 UNK        -0.1800 
     34 N           0.6561  -17.0643  -44.4609 N.am      8 UNK        -0.5000 
     35 C           1.7409  -17.8521  -44.4887 C.2       7 UNK         0.5000 
     36 O           1.7618  -18.9766  -44.9870 O.2       7 UNK        -0.5000 
     37 CA          3.0062  -17.2922  -43.8253 C.3       7 UNK         0.1400 
     38 CB          3.6257  -16.1835  -44.6918 C.3       7 UNK        -0.1800 
     39 N           2.6890  -16.7587  -42.5036 N.am      7 UNK        -0.5000 
     40 C           2.8152  -17.4436  -41.3600 C.2       6 UNK         0.5000 
     41 O           3.3154  -18.5665  -41.2838 O.2       6 UNK        -0.5000 
     42 CA          2.2799  -16.7701  -40.0803 C.3       6 UNK         0.1400 
     43 CB          3.3981  -15.9835  -39.3795 C.3       6 UNK        -0.1800 
     44 N           1.1407  -15.8776  -40.3084 N.am      6 UNK        -0.5000 
     45 C          -0.0532  -16.2608  -40.7813 C.2       5 UNK         0.5000 
     46 O          -0.3292  -17.4173  -41.1021 O.2       5 UNK        -0.5000 
     47 CA         -1.1094  -15.1552  -40.9631 C.3       5 UNK         0.1400 
     48 CB         -1.8183  -14.8736  -39.6297 C.3       5 UNK        -0.1800 
     49 N          -0.6288  -13.8859  -41.5264 N.am      5 UNK        -0.5000 
     50 C           0.1812  -13.7139  -42.5809 C.2       4 UNK         0.5000 
     51 O           0.7845  -14.6241  -43.1498 O.2       4 UNK        -0.5000 
     52 CA          0.2870  -12.2835  -43.1346 C.3       4 UNK         0.1400 
     53 CB          1.6855  -11.9949  -43.7069 C.3       4 UNK        -0.1800 
     54 N          -0.7021  -12.0912  -44.1928 N.am      4 UNK        -0.5000 
     55 C          -2.0206  -11.9522  -44.0183 C.2       3 UNK         0.5000 
     56 O          -2.5541  -11.8981  -42.9094 O.2       3 UNK        -0.5000 
     57 CA         -2.9029  -11.8595  -45.2810 C.3       3 UNK         0.1400 
     58 CB         -2.9342  -10.4182  -45.8244 C.3       3 UNK        -0.1800 
     59 N          -2.5972  -12.8250  -46.3503 N.am      3 UNK        -0.5000 
     60 C          -1.5054  -12.9115  -47.1224 C.2       2 UNK         0.5000 
     61 O          -0.5033  -12.2021  -46.9872 O.2       2 UNK        -0.5000 
     62 CA         -1.5474  -13.9622  -48.2441 C.3       2 UNK         0.1400 
     63 CB         -2.4897  -13.5049  -49.3747 C.3       2 UNK        -0.1800 
     64 N          -0.1921  -14.1230  -48.7520 N.am      2 UNK        -0.5000 
     65 C           0.2612  -15.0473  -49.6057 C.2       1 UNK         0.5000 
     66 O          -0.4358  -15.9630  -50.0465 O.2       1 UNK        -0.5000 
     67 C          -1.4355  -21.4456  -48.5346 C.2       11 UNK         0.5000 
     68 O          -1.6992  -22.0192  -49.5905 O.2       11 UNK        -0.5000 
     69 N          -2.2994  -21.3163  -47.5177 N.am      12 UNK        -0.5000 
     70 CA         -3.6374  -21.9003  -47.4533 C.3       12 UNK         0.1400 
     71 CB         -4.3765  -21.3432  -46.2274 C.3       12 UNK        -0.1800 
     72 C          -3.6136  -23.4355  -47.4219 C.2       12 UNK         0.5000 
     73 O          -4.3909  -24.0672  -48.1375 O.2       12 UNK        -0.5000 
     74 N          -2.6969  -24.0111  -46.6305 N.am      13 UNK        -0.5000 
     75 CA         -2.4631  -25.4546  -46.5604 C.3       13 UNK         0.1400 
     76 CB         -1.4997  -25.7708  -45.4069 C.3       13 UNK        -0.1800 
     77 C          -1.9412  -26.0322  -47.8893 C.2       13 UNK         0.5000 
     78 O          -2.3895  -27.1020  -48.3006 O.2       13 UNK        -0.5000 
     79 N          -1.0397  -25.2954  -48.5533 N.am      14 UNK        -0.5000 
     80 CA         -0.5034  -25.6217  -49.8746 C.3       14 UNK         0.1400 
     81 CB          0.7133  -24.7303  -50.1604 C.3       14 UNK        -0.1800 
     82 C          -1.5556  -25.5068  -50.9958 C.2       14 UNK         0.5000 
     83 O          -1.5514  -26.3297  -51.9113 O.2       14 UNK        -0.5000 
     84 N          -2.4517  -24.5132  -50.8964 N.am      15 UNK        -0.5000 
     85 CA         -3.6164  -24.3542  -51.7738 C.3       15 UNK         0.1400 
     86 CB         -4.2353  -22.9615  -51.5587 C.3       15 UNK        -0.1800 
     87 C          -4.6949  -25.4296  -51.5383 C.2       15 UNK         0.5000 
     88 O          -5.4456  -25.7447  -52.4620 O.2       15 UNK        -0.5000 
     89 N          -4.7639  -25.9358  -50.2977 N.am      16 UNK        -0.5000 
     90 CA         -5.8035  -26.7987  -49.7301 C.3       16 UNK         0.1400 
     91 CB         -5.8268  -28.1772  -50.4223 C.3       16 UNK        -0.1800 
     92 C          -7.1766  -26.0933  -49.7093 C.2       16 UNK         0.5000 
     93 O          -8.2043  -26.7193  -49.9770 O.2       16 UNK        -0.5000 
     94 N          -7.1580  -24.7883  -49.4121 N.am      17 UNK        -0.5000 
     95 CA         -8.3001  -23.8803  -49.4506 C.3       17 UNK         0.1400 
     96 CB         -8.7027  -23.5930  -50.9167 C.3       17 UNK        -0.1800 
     97 C          -7.9424  -22.6172  -48.6457 C.2       17 UNK         0.5000 
     98 O          -7.3332  -22.7315  -47.5813 O.2       17 UNK        -0.5000 
     99 N          -8.3144  -21.4381  -49.1584 N.am      18 UNK        -0.5000 
    100 CA        -7.8847  -20.1323  -48.6575 C.3       18 UNK         0.1400 
    101 CB        -8.8406  -19.0622  -49.2092 C.3       18 UNK        -0.1800 
    102 C         -6.4336  -19.8266  -49.0771 C.2       18 UNK         0.5000 
    103 O         -5.8904  -20.4987  -49.9579 O.2       18 UNK        -0.5000 
    104 N         -5.8352  -18.7967  -48.4633 N.am      19 UNK        -0.5000 
    105 CA        -4.4815  -18.3050  -48.7424 C.3       19 UNK         0.1400 
    106 CB        -4.0232  -17.4117  -47.5772 C.3       19 UNK        -0.1800 
    107 C         -4.3906  -17.5822  -50.1039 C.2       19 UNK         0.5000 
    108 O         -4.1803  -16.3714  -50.1594 O.2       19 UNK        -0.5000 
    109 N         -4.5728  -18.3479  -51.1823 N.am      20 UNK        -0.5000 
    110 CA        -4.6169  -17.8939  -52.5713 C.3       20 UNK         0.1400 
    111 CB        -5.6699  -18.7401  -53.3104 C.3       20 UNK        -0.1800 
    112 C         -3.2395  -17.9568  -53.2657 C.2       20 UNK         0.5000 
    113 O         -3.1929  -18.0477  -54.4932 O.2       20 UNK        -0.5000 
    114 N         -2.1506  -17.9135  -52.4798 N.am      21 UNK        -0.5000 
    115 CA        -0.7502  -18.0520  -52.8993 C.3       21 UNK         0.1400 
    116 CB        -0.3229  -16.8658  -53.7909 C.3       21 UNK        -0.1800 
    117 C         -0.4808  -19.4294  -53.5413 C.2       21 UNK         0.5000 
    118 O         -0.0119  -19.5011  -54.6781 O.2       21 UNK        -0.5000 
    119 N         -0.8272  -20.4835  -52.7875 N.am      22 UNK        -0.5000 
    120 CA        -0.7978  -21.9060  -53.1648 C.3       22 UNK         0.1400 
    121 C         -1.6207  -22.2605  -54.4430 C.2       22 UNK         0.5000 
    122 N         -1.2303  -23.2616  -55.2215 N.am      22 UNK        -0.7600 
    123 O         -2.6720  -21.6780  -54.6958 O.2       22 UNK        -0.5000 
    124 C124        0.6016  -22.5724  -53.0302 C.3       23 UNK        -0.0398 
    125 S125        1.8496  -22.1195  -54.2821 S.3       23 UNK        -0.2404 
    126 C126        3.3328  -21.8907  -53.2547 C.3       23 UNK        -0.0205 
    127 H127        3.6738  -11.6702  -48.7255 H         1 UNK         0.0600 
    128 H128        2.3046  -10.5942  -49.0176 H         1 UNK         0.0600 
    129 H129        3.5402  -10.8113  -50.2624 H         1 UNK         0.0600 
    130 H130        3.0926  -13.7953  -48.8690 H         1 UNK         0.3000 
    131 H131        2.2455  -15.7217  -49.4279 H         1 UNK         0.0600 
    132 H132        1.4636  -14.5745  -52.1622 H         1 UNK         0.0800 
    133 H133        1.5283  -16.2612  -51.7391 H         1 UNK         0.0800 
    134 H134        3.1284  -16.7778  -53.8366 H         1 UNK         0.0800 
    135 H135        4.8217  -16.9239  -53.4460 H         1 UNK         0.0800 
    136 H136        3.6721  -19.3330  -54.1045 H         1 UNK         0.1150 
    137 H137        2.8850  -21.6252  -50.5690 H         1 UNK         0.1150 
    138 H138        3.4612  -17.4094  -50.2751 H         1 UNK         0.1150 
    139 H139        2.7614  -20.5761  -48.4175 H         1 UNK         0.0800 
    140 H140        3.8288  -19.2110  -48.2924 H         1 UNK         0.0800 
    141 H141       -0.0956  -19.2601  -49.7803 H         1 UNK         0.0800 
    142 H142       -0.8052  -18.8283  -48.2496 H         1 UNK         0.0800 
    143 H143        0.6416  -21.4071  -48.9933 H         1 UNK         0.0600 
    144 H144        0.6177  -20.3266  -46.3587 H         1 UNK         0.3000 
    145 H145        0.8706  -23.4418  -44.6200 H         1 UNK         0.0600 
    146 H146        2.9192  -22.2838  -43.7644 H         1 UNK         0.0600 
    147 H147        3.1805  -23.0109  -45.3426 H         1 UNK         0.0600 
    148 H148        2.9559  -21.2747  -45.2097 H         1 UNK         0.0600 
    149 H149        0.8535  -20.5904  -43.9790 H         1 UNK         0.3000 
    150 H150       -2.6379  -20.4849  -43.2424 H         1 UNK         0.0600 
    151 H151       -1.6378  -21.5264  -41.1877 H         1 UNK         0.0600 
    152 H152       -1.8614  -19.7936  -41.0056 H         1 UNK         0.0600 
    153 H153       -0.2536  -20.4451  -41.3170 H         1 UNK         0.0600 
    154 H154       -0.6127  -18.5395  -42.8556 H         1 UNK         0.3000 
    155 H155       -0.3989  -17.3430  -46.2123 H         1 UNK         0.0600 
    156 H156       -1.8358  -16.0717  -43.8341 H         1 UNK         0.0600 
    157 H157       -2.4977  -16.2607  -45.4467 H         1 UNK         0.0600 
    158 H158       -1.1226  -15.1986  -45.1858 H         1 UNK         0.0600 
    159 H159        0.7334  -16.1614  -43.9961 H         1 UNK         0.3000 
    160 H160        3.7339  -18.1026  -43.7453 H         1 UNK         0.0600 
    161 H161        2.9558  -15.3299  -44.8030 H         1 UNK         0.0600 
    162 H162        3.8548  -16.5537  -45.6921 H         1 UNK         0.0600 
    163 H163        4.5572  -15.8212  -44.2570 H         1 UNK         0.0600 
    164 H164        2.2053  -15.8673  -42.4844 H         1 UNK         0.3000 
    165 H165        1.9479  -17.5645  -39.4086 H         1 UNK         0.0600 
    166 H166        3.0582  -15.5773  -38.4267 H         1 UNK         0.0600 
    167 H167        4.2553  -16.6250  -39.1704 H         1 UNK         0.0600 
    168 H168        3.7510  -15.1536  -39.9931 H         1 UNK         0.0600 
    169 H169        1.2784  -14.9007  -40.0952 H         1 UNK         0.3000 
    170 H170       -1.8601  -15.5416  -41.6524 H         1 UNK         0.0600 
    171 H171       -2.2066  -15.7932  -39.1894 H         1 UNK         0.0600 
    172 H172       -1.1429  -14.4206  -38.9028 H         1 UNK         0.0600 
    173 H173       -2.6644  -14.1999  -39.7669 H         1 UNK         0.0600 
    174 H174       -1.0998  -13.0621  -41.1785 H         1 UNK         0.3000 
    175 H175        0.0948  -11.5741  -42.3271 H         1 UNK         0.0600 
    176 H176        2.4572  -12.1580  -42.9536 H         1 UNK         0.0600 
    177 H177        1.9161  -12.6365  -44.5587 H         1 UNK         0.0600 
    178 H178        1.7676  -10.9599  -44.0389 H         1 UNK         0.0600 
    179 H179       -0.3651  -12.1308  -45.1515 H         1 UNK         0.3000 
    180 H180       -3.9173  -12.1013  -44.9595 H         1 UNK         0.0600 
    181 H181       -1.9517  -10.0866  -46.1614 H         1 UNK         0.0600 
    182 H182       -3.2656   -9.7198  -45.0550 H         1 UNK         0.0600 
    183 H183       -3.6243  -10.3283  -46.6633 H         1 UNK         0.0600 
    184 H184       -3.3458  -13.4775  -46.5371 H         1 UNK         0.3000 
    185 H185       -1.8869  -14.9135  -47.8315 H         1 UNK         0.0600 
    186 H186       -2.5153  -14.2243  -50.1927 H         1 UNK         0.0600 
    187 H187       -3.5137  -13.3966  -49.0160 H         1 UNK         0.0600 
    188 H188       -2.1806  -12.5442  -49.7888 H         1 UNK         0.0600 
    189 H189        0.4472  -13.4137  -48.4137 H         1 UNK         0.3000 
    190 H190       -2.0206  -20.7549  -46.7155 H         1 UNK         0.3000 
    191 H191       -4.1763  -21.6028  -48.3518 H         1 UNK         0.0600 
    192 H192       -3.8497  -21.5713  -45.3010 H         1 UNK         0.0600 
    193 H193       -5.3777  -21.7646  -46.1444 H         1 UNK         0.0600 
    194 H194       -4.4851  -20.2617  -46.2889 H         1 UNK         0.0600 
    195 H195       -2.1247  -23.4259  -46.0333 H         1 UNK         0.3000 
    196 H196       -3.4192  -25.9354  -46.3429 H         1 UNK         0.0600 
    197 H197       -1.3460  -26.8463  -45.3117 H         1 UNK         0.0600 
    198 H198       -1.8930  -25.4129  -44.4553 H         1 UNK         0.0600 
    199 H199       -0.5226  -25.3128  -45.5585 H         1 UNK         0.0600 
    200 H200       -0.6659  -24.4636  -48.1046 H         1 UNK         0.3000 
    201 H201       -0.1617  -26.6585  -49.8498 H         1 UNK         0.0600 
    202 H202        1.4886  -24.8719  -49.4073 H         1 UNK         0.0600 
    203 H203        0.4435  -23.6747  -50.1623 H         1 UNK         0.0600 
    204 H204        1.1561  -24.9686  -51.1277 H         1 UNK         0.0600 
    205 H205       -2.3391  -23.8232  -50.1605 H         1 UNK         0.3000 
    206 H206       -3.2833  -24.4303  -52.8108 H         1 UNK         0.0600 
    207 H207       -3.5281  -22.1587  -51.7568 H         1 UNK         0.0600 
    208 H208       -5.0872  -22.8058  -52.2219 H         1 UNK         0.0600 
    209 H209       -4.5951  -22.8366  -50.5376 H         1 UNK         0.0600 
    210 H210       -4.1301  -25.5406  -49.6132 H         1 UNK         0.3000 
    211 H211       -5.5265  -26.9583  -48.6871 H         1 UNK         0.0600 
    212 H212       -6.1650  -28.1091  -51.4564 H         1 UNK         0.0600 
    213 H213       -6.4996  -28.8612  -49.9039 H         1 UNK         0.0600 
    214 H214       -4.8366  -28.6331  -50.4214 H         1 UNK         0.0600 
    215 H215       -6.2832  -24.3706  -49.1078 H         1 UNK         0.3000 
    216 H216       -9.1400  -24.3546  -48.9397 H         1 UNK         0.0600 
    217 H217       -7.9026  -23.0877  -51.4601 H         1 UNK         0.0600 
    218 H218       -9.5965  -22.9707  -50.9721 H         1 UNK         0.0600 
    219 H219       -8.9328  -24.5124  -51.4549 H         1 UNK         0.0600 
    220 H220       -8.7763  -21.4366  -50.0555 H         1 UNK         0.3000 
    221 H221       -7.9393  -20.1317  -47.5668 H         1 UNK         0.0600 
    222 H222       -9.8718  -19.2697  -48.9225 H         1 UNK         0.0600 
    223 H223       -8.7997  -19.0087  -50.2981 H         1 UNK         0.0600 
    224 H224       -8.5928  -18.0727  -48.8233 H         1 UNK         0.0600 
    225 H225       -6.3597  -18.2718  -47.7786 H         1 UNK         0.3000 
    226 H226       -3.8054  -19.1606  -48.7849 H         1 UNK         0.0600 
    227 H227       -4.0698  -17.9421  -46.6268 H         1 UNK         0.0600 
    228 H228       -2.9891  -17.0968  -47.7206 H         1 UNK         0.0600 
    229 H229       -4.6353  -16.5135  -47.4877 H         1 UNK         0.0600 
    230 H230       -4.8142  -19.3222  -51.0201 H         1 UNK         0.3000 
    231 H231       -4.9424  -16.8521  -52.6020 H         1 UNK         0.0600 
    232 H232       -5.3739  -19.7890  -53.3632 H         1 UNK         0.0600 
    233 H233       -5.8175  -18.3865  -54.3315 H         1 UNK         0.0600 
    234 H234       -6.6375  -18.6907  -52.8102 H         1 UNK         0.0600 
    235 H235       -2.2998  -17.7751  -51.4906 H         1 UNK         0.3000 
    236 H236       -0.1468  -18.0123  -51.9915 H         1 UNK         0.0600 
    237 H237        0.7410  -16.9174  -54.0206 H         1 UNK         0.0600 
    238 H238       -0.8558  -16.8526  -54.7416 H         1 UNK         0.0600 
    239 H239       -0.5058  -15.9140  -53.2923 H         1 UNK         0.0600 
    240 H240       -1.2584  -20.2979  -51.8952 H         1 UNK         0.3000 
    241 H241       -1.3825  -22.3720  -52.3750 H         1 UNK         0.0600 
    242 H242       -1.7860  -23.4962  -56.0289 H         1 UNK         0.3800 
    243 H243       -0.3602  -23.7440  -55.0617 H         1 UNK         0.3800 
    244 H244        0.4956  -23.6575  -53.0487 H         1 UNK         0.0800 
    245 H245        0.9955  -22.3431  -52.0414 H         1 UNK         0.0800 
    246 H246        3.4703  -22.7646  -52.6159 H         1 UNK         0.0800 
    247 H247        4.2056  -21.8563  -53.9083 H         1 UNK         0.0800 
@<TRIPOS>BOND
     1    1    2 1    
     2    1  127 1    
     3    1  128 1    
     4    1  129 1    
     5    2    3 2    
     6    2    4 am   BACKBONE|DICT|INTERRES
     7    4    5 1    
     8    4  130 1    
     9    5    6 1    
    10    5   65 1    
    11    5  131 1    
    12    6    7 1    
    13    6  132 1    
    14    6  133 1    
    15    7    8 1    
    16    8    9 1    
    17    8  134 1    
    18    8  135 1    
    19    9   10 ar   
    20    9   14 ar   
    21   10   11 ar   
    22   10  136 1    
    23   11   12 ar   
    24   11  126 1    
    25   12   13 ar   
    26   12  137 1    
    27   13   14 ar   
    28   13   15 1    
    29   14  138 1    
    30   15   16 1    
    31   15  139 1    
    32   15  140 1    
    33   16   17 1    
    34   17   18 1    
    35   17  141 1    
    36   17  142 1    
    37   18   19 1    
    38   18   67 1    
    39   18  143 1    
    40   19   20 am   BACKBONE|DICT|INTERRES
    41   19  144 1    
    42   20   21 2    
    43   20   22 1    
    44   22   23 1    
    45   22   24 1    
    46   22  145 1    
    47   23  146 1    
    48   23  147 1    
    49   23  148 1    
    50   24   25 am   BACKBONE|DICT|INTERRES
    51   24  149 1    
    52   25   26 2    
    53   25   27 1    
    54   27   28 1    
    55   27   29 1    
    56   27  150 1    
    57   28  151 1    
    58   28  152 1    
    59   28  153 1    
    60   29   30 am   BACKBONE|DICT|INTERRES
    61   29  154 1    
    62   30   31 2    
    63   30   32 1    
    64   32   33 1    
    65   32   34 1    
    66   32  155 1    
    67   33  156 1    
    68   33  157 1    
    69   33  158 1    
    70   34   35 am   BACKBONE|DICT|INTERRES
    71   34  159 1    
    72   35   36 2    
    73   35   37 1    
    74   37   38 1    
    75   37   39 1    
    76   37  160 1    
    77   38  161 1    
    78   38  162 1    
    79   38  163 1    
    80   39   40 am   BACKBONE|DICT|INTERRES
    81   39  164 1    
    82   40   41 2    
    83   40   42 1    
    84   42   43 1    
    85   42   44 1    
    86   42  165 1    
    87   43  166 1    
    88   43  167 1    
    89   43  168 1    
    90   44   45 am   BACKBONE|DICT|INTERRES
    91   44  169 1    
    92   45   46 2    
    93   45   47 1    
    94   47   48 1    
    95   47   49 1    
    96   47  170 1    
    97   48  171 1    
    98   48  172 1    
    99   48  173 1    
   100   49   50 am   BACKBONE|DICT|INTERRES
   101   49  174 1    
   102   50   51 2    
   103   50   52 1    
   104   52   53 1    
   105   52   54 1    
   106   52  175 1    
   107   53  176 1    
   108   53  177 1    
   109   53  178 1    
   110   54   55 am   BACKBONE|DICT|INTERRES
   111   54  179 1    
   112   55   56 2    
   113   55   57 1    
   114   57   58 1    
   115   57   59 1    
   116   57  180 1    
   117   58  181 1    
   118   58  182 1    
   119   58  183 1    
   120   59   60 am   BACKBONE|DICT|INTERRES
   121   59  184 1    
   122   60   61 2    
   123   60   62 1    
   124   62   63 1    
   125   62   64 1    
   126   62  185 1    
   127   63  186 1    
   128   63  187 1    
   129   63  188 1    
   130   64   65 am   BACKBONE|DICT|INTERRES
   131   64  189 1    
   132   65   66 2    
   133   67   68 2    
   134   67   69 am   BACKBONE|DICT|INTERRES
   135   69   70 1    
   136   69  190 1    
   137   70   71 1    
   138   70   72 1    
   139   70  191 1    
   140   71  192 1    
   141   71  193 1    
   142   71  194 1    
   143   72   73 2    
   144   72   74 am   BACKBONE|DICT|INTERRES
   145   74   75 1    
   146   74  195 1    
   147   75   76 1    
   148   75   77 1    
   149   75  196 1    
   150   76  197 1    
   151   76  198 1    
   152   76  199 1    
   153   77   78 2    
   154   77   79 am   BACKBONE|DICT|INTERRES
   155   79   80 1    
   156   79  200 1    
   157   80   81 1    
   158   80   82 1    
   159   80  201 1    
   160   81  202 1    
   161   81  203 1    
   162   81  204 1    
   163   82   83 2    
   164   82   84 am   BACKBONE|DICT|INTERRES
   165   84   85 1    
   166   84  205 1    
   167   85   86 1    
   168   85   87 1    
   169   85  206 1    
   170   86  207 1    
   171   86  208 1    
   172   86  209 1    
   173   87   88 2    
   174   87   89 am   BACKBONE|DICT|INTERRES
   175   89   90 1    
   176   89  210 1    
   177   90   91 1    
   178   90   92 1    
   179   90  211 1    
   180   91  212 1    
   181   91  213 1    
   182   91  214 1    
   183   92   93 2    
   184   92   94 am   BACKBONE|DICT|INTERRES
   185   94   95 1    
   186   94  215 1    
   187   95   96 1    
   188   95   97 1    
   189   95  216 1    
   190   96  217 1    
   191   96  218 1    
   192   96  219 1    
   193   97   98 2    
   194   97   99 am   BACKBONE|DICT|INTERRES
   195   99  100 1    
   196   99  220 1    
   197  100  101 1    
   198  100  102 1    
   199  100  221 1    
   200  101  222 1    
   201  101  223 1    
   202  101  224 1    
   203  102  103 2    
   204  102  104 am   BACKBONE|DICT|INTERRES
   205  104  105 1    
   206  104  225 1    
   207  105  106 1    
   208  105  107 1    
   209  105  226 1    
   210  106  227 1    
   211  106  228 1    
   212  106  229 1    
   213  107  108 2    
   214  107  109 am   BACKBONE|DICT|INTERRES
   215  109  110 1    
   216  109  230 1    
   217  110  111 1    
   218  110  112 1    
   219  110  231 1    
   220  111  232 1    
   221  111  233 1    
   222  111  234 1    
   223  112  113 2    
   224  112  114 am   BACKBONE|DICT|INTERRES
   225  114  115 1    
   226  114  235 1    
   227  115  116 1    
   228  115  117 1    
   229  115  236 1    
   230  116  237 1    
   231  116  238 1    
   232  116  239 1    
   233  117  118 2    
   234  117  119 am   BACKBONE|DICT|INTERRES
   235  119  120 1    
   236  119  240 1    
   237  120  121 1    
   238  120  124 1    
   239  120  241 1    
   240  121  122 am   BACKBONE|DICT|INTERRES
   241  121  123 2    
   242  122  242 1    
   243  122  243 1    
   244  124  125 1    
   245  124  244 1    
   246  124  245 1    
   247  125  126 1    
   248  126  246 1    
   249  126  247 1    
@<TRIPOS>SUBSTRUCTURE
     1 UNK         1 GROUP             0       ****    0 ROOT    
