@<TRIPOS>MOLECULE
3R540
247   249    1
SMALL
USER_CHARGES


@<TRIPOS>ATOM
      1 CA          5.9514  -13.8189  -44.7459 C.3       0 UNK        -0.1800 
      2 C           5.0685  -13.4239  -45.9211 C.2       0 UNK         0.5000 
      3 O           5.5331  -12.7368  -46.8304 O.2       0 UNK        -0.5000 
      4 N           3.8025  -13.8570  -45.8898 N.am      1 UNK        -0.5000 
      5 CA          2.7336  -13.5526  -46.8490 C.3       1 UNK         0.1400 
      6 C6          3.0273  -13.9915  -48.3096 C.3       23 UNK        -0.0398 
      7 S7          3.2584  -15.7967  -48.4435 S.3       23 UNK        -0.2404 
      8 C8          3.1833  -16.0346  -50.2464 C.3       23 UNK        -0.0205 
      9 C9          2.4768  -17.3305  -50.6204 C.ar      23 UNK        -0.0193 
     10 C10         1.2377  -17.2952  -51.2678 C.ar      23 UNK        -0.1150 
     11 C11         0.6056  -18.4795  -51.6557 C.ar      23 UNK        -0.0193 
     12 C12         1.2182  -19.7065  -51.3857 C.ar      23 UNK        -0.1150 
     13 C13         2.4518  -19.7608  -50.7267 C.ar      23 UNK        -0.0193 
     14 C14         3.0755  -18.5658  -50.3518 C.ar      23 UNK        -0.1150 
     15 C15         3.1456  -21.0945  -50.4518 C.3       23 UNK        -0.0205 
     16 S16         2.0308  -22.4195  -49.8711 S.3       23 UNK        -0.2404 
     17 C17         1.3597  -21.6566  -48.3578 C.3       23 UNK        -0.0398 
     18 CA          0.5444  -22.6172  -47.4586 C.3       11 UNK         0.1400 
     19 N           0.1922  -21.9683  -46.1933 N.am      11 UNK        -0.5000 
     20 C          -0.4260  -22.5455  -45.1538 C.2       10 UNK         0.5000 
     21 O          -0.7412  -23.7332  -45.1148 O.2       10 UNK        -0.5000 
     22 CA         -0.8075  -21.6239  -43.9804 C.3       10 UNK         0.1400 
     23 CB          0.4144  -21.3005  -43.1080 C.3       10 UNK        -0.1800 
     24 N          -1.4353  -20.3825  -44.4346 N.am      10 UNK        -0.5000 
     25 C          -2.6046  -20.3264  -45.0891 C.2       9 UNK         0.5000 
     26 O          -3.3064  -21.3097  -45.3254 O.2       9 UNK        -0.5000 
     27 CA         -3.0399  -18.9461  -45.6081 C.3       9 UNK         0.1400 
     28 CB         -3.7355  -18.1384  -44.5023 C.3       9 UNK        -0.1800 
     29 N          -1.9160  -18.1810  -46.1472 N.am      9 UNK        -0.5000 
     30 C          -1.2440  -18.5067  -47.2615 C.2       8 UNK         0.5000 
     31 O          -1.5034  -19.4885  -47.9552 O.2       8 UNK        -0.5000 
     32 CA         -0.0447  -17.6122  -47.6203 C.3       8 UNK         0.1400 
     33 CB         -0.5243  -16.2822  -48.2241 C.3       8 UNK        -0.1800 
     34 N           0.8004  -17.3352  -46.4587 N.am      8 UNK        -0.5000 
     35 C           1.4679  -18.2593  -45.7530 C.2       7 UNK         0.5000 
     36 O           1.4866  -19.4548  -46.0361 O.2       7 UNK        -0.5000 
     37 CA          2.1908  -17.7781  -44.4820 C.3       7 UNK         0.1400 
     38 CB          3.6543  -17.4291  -44.7890 C.3       7 UNK        -0.1800 
     39 N           1.5398  -16.6289  -43.8522 N.am      7 UNK        -0.5000 
     40 C           0.3034  -16.6077  -43.3414 C.2       6 UNK         0.5000 
     41 O          -0.4361  -17.5944  -43.3354 O.2       6 UNK        -0.5000 
     42 CA         -0.1872  -15.2515  -42.7803 C.3       6 UNK         0.1400 
     43 CB         -1.5286  -15.3727  -42.0359 C.3       6 UNK        -0.1800 
     44 N           0.7752  -14.5729  -41.9038 N.am      6 UNK        -0.5000 
     45 C           1.9126  -13.9771  -42.2835 C.2       5 UNK         0.5000 
     46 O           2.3389  -13.9919  -43.4417 O.2       5 UNK        -0.5000 
     47 CA          2.6546  -13.1879  -41.1995 C.3       5 UNK         0.1400 
     48 CB          4.0952  -12.8230  -41.6089 C.3       5 UNK        -0.1800 
     49 N           1.8971  -11.9711  -40.9197 N.am      5 UNK        -0.5000 
     50 C           1.8952  -11.3217  -39.7479 C.2       4 UNK         0.5000 
     51 O           2.4890  -11.7350  -38.7506 O.2       4 UNK        -0.5000 
     52 CA          1.1365   -9.9799  -39.6600 C.3       4 UNK         0.1400 
     53 CB          2.0972   -8.8425  -39.2728 C.3       4 UNK        -0.1800 
     54 N           0.4773   -9.6105  -40.9136 N.am      4 UNK        -0.5000 
     55 C          -0.8079   -9.8409  -41.2113 C.2       3 UNK         0.5000 
     56 O          -1.6044  -10.3806  -40.4429 O.2       3 UNK        -0.5000 
     57 CA         -1.2774   -9.4106  -42.6183 C.3       3 UNK         0.1400 
     58 CB         -1.8969   -8.0055  -42.5703 C.3       3 UNK        -0.1800 
     59 N          -0.2159   -9.4327  -43.6341 N.am      3 UNK        -0.5000 
     60 C           0.4421  -10.5363  -44.0101 C.2       2 UNK         0.5000 
     61 O           0.2208  -11.6469  -43.5242 O.2       2 UNK        -0.5000 
     62 CA          1.5548  -10.3655  -45.0555 C.3       2 UNK         0.1400 
     63 CB          2.7429   -9.5812  -44.4719 C.3       2 UNK        -0.1800 
     64 N           2.0231  -11.6855  -45.4640 N.am      2 UNK        -0.5000 
     65 C           2.3050  -12.0771  -46.7110 C.2       1 UNK         0.5000 
     66 O           2.2478  -11.3382  -47.6957 O.2       1 UNK        -0.5000 
     67 C          -0.7038  -23.1763  -48.1739 C.2       11 UNK         0.5000 
     68 O          -0.7211  -24.3571  -48.5266 O.2       11 UNK        -0.5000 
     69 N          -1.7394  -22.3354  -48.3183 N.am      12 UNK        -0.5000 
     70 CA         -3.0401  -22.6860  -48.8876 C.3       12 UNK         0.1400 
     71 CB         -3.9494  -21.4479  -48.8917 C.3       12 UNK        -0.1800 
     72 C          -3.7206  -23.8586  -48.1617 C.2       12 UNK         0.5000 
     73 O          -4.1778  -24.7904  -48.8216 O.2       12 UNK        -0.5000 
     74 N          -3.7440  -23.8079  -46.8232 N.am      13 UNK        -0.5000 
     75 CA         -4.3008  -24.8550  -45.9684 C.3       13 UNK         0.1400 
     76 CB         -4.3886  -24.3421  -44.5228 C.3       13 UNK        -0.1800 
     77 C          -3.5082  -26.1738  -46.0301 C.2       13 UNK         0.5000 
     78 O          -4.1195  -27.2408  -46.0958 O.2       13 UNK        -0.5000 
     79 N          -2.1716  -26.0808  -46.0027 N.am      14 UNK        -0.5000 
     80 CA         -1.2624  -27.2262  -46.0075 C.3       14 UNK         0.1400 
     81 CB          0.1553  -26.7648  -45.6349 C.3       14 UNK        -0.1800 
     82 C          -1.2494  -27.9817  -47.3462 C.2       14 UNK         0.5000 
     83 O          -1.3441  -29.2100  -47.3483 O.2       14 UNK        -0.5000 
     84 N          -1.1203  -27.2429  -48.4560 N.am      15 UNK        -0.5000 
     85 CA         -1.0305  -27.8146  -49.8005 C.3       15 UNK         0.1400 
     86 CB         -0.2807  -26.8351  -50.7122 C.3       15 UNK        -0.1800 
     87 C          -2.4019  -28.1675  -50.4024 C.2       15 UNK         0.5000 
     88 O          -2.4585  -29.0069  -51.3022 O.2       15 UNK        -0.5000 
     89 N          -3.4699  -27.5111  -49.9243 N.am      16 UNK        -0.5000 
     90 CA         -4.8772  -27.6075  -50.3355 C.3       16 UNK         0.1400 
     91 CB         -5.4300  -29.0349  -50.1610 C.3       16 UNK        -0.1800 
     92 C          -5.1465  -27.0612  -51.7506 C.2       16 UNK         0.5000 
     93 O          -5.9953  -26.1855  -51.9143 O.2       16 UNK        -0.5000 
     94 N          -4.4035  -27.5578  -52.7470 N.am      17 UNK        -0.5000 
     95 CA         -4.4826  -27.1479  -54.1510 C.3       17 UNK         0.1400 
     96 CB         -3.6745  -28.1365  -55.0044 C.3       17 UNK        -0.1800 
     97 C          -3.9963  -25.7058  -54.3912 C.2       17 UNK         0.5000 
     98 O          -4.4627  -25.0532  -55.3255 O.2       17 UNK        -0.5000 
     99 N          -3.0893  -25.2241  -53.5290 N.am      18 UNK        -0.5000 
    100 CA        -2.5296  -23.8717  -53.5701 C.3       18 UNK         0.1400 
    101 CB        -1.2694  -23.8160  -52.6923 C.3       18 UNK        -0.1800 
    102 C         -3.5211  -22.7731  -53.1421 C.2       18 UNK         0.5000 
    103 O         -3.2129  -21.5996  -53.3316 O.2       18 UNK        -0.5000 
    104 N         -4.6755  -23.1498  -52.5701 N.am      19 UNK        -0.5000 
    105 CA        -5.7126  -22.2306  -52.0962 C.3       19 UNK         0.1400 
    106 CB        -6.7326  -23.0107  -51.2548 C.3       19 UNK        -0.1800 
    107 C         -6.4225  -21.4391  -53.2109 C.2       19 UNK         0.5000 
    108 O         -6.9938  -20.3864  -52.9200 O.2       19 UNK        -0.5000 
    109 N         -6.3679  -21.9372  -54.4553 N.am      20 UNK        -0.5000 
    110 CA        -6.8862  -21.2775  -55.6548 C.3       20 UNK         0.1400 
    111 CB        -6.6663  -22.1956  -56.8669 C.3       20 UNK        -0.1800 
    112 C         -6.2178  -19.9058  -55.8689 C.2       20 UNK         0.5000 
    113 O         -4.9928  -19.8407  -55.9829 O.2       20 UNK        -0.5000 
    114 N         -7.0281  -18.8384  -55.8431 N.am      21 UNK        -0.5000 
    115 CA        -6.6761  -17.4082  -55.8780 C.3       21 UNK         0.1400 
    116 CB        -5.8961  -17.0466  -57.1571 C.3       21 UNK        -0.1800 
    117 C         -5.9543  -16.8839  -54.6151 C.2       21 UNK         0.5000 
    118 O         -6.1201  -15.7120  -54.2743 O.2       21 UNK        -0.5000 
    119 N         -5.1875  -17.7457  -53.9394 N.am      22 UNK        -0.5000 
    120 CA        -4.5060  -17.4921  -52.6620 C.3       22 UNK         0.1400 
    121 C         -5.4808  -17.2515  -51.4732 C.2       22 UNK         0.5000 
    122 N         -6.5961  -17.9687  -51.3933 N.am      22 UNK        -0.7600 
    123 O         -5.2339  -16.3961  -50.6279 O.2       22 UNK        -0.5000 
    124 C124       -3.5193  -18.6442  -52.3535 C.3       23 UNK        -0.0398 
    125 S125       -2.1243  -18.1873  -51.2717 S.3       23 UNK        -0.2404 
    126 C126       -0.7195  -18.4378  -52.4005 C.3       23 UNK        -0.0205 
    127 H127        6.8696  -14.2838  -45.1047 H         1 UNK         0.0600 
    128 H128        5.4505  -14.5270  -44.0852 H         1 UNK         0.0600 
    129 H129        6.2176  -12.9369  -44.1634 H         1 UNK         0.0600 
    130 H130        3.4815  -14.3095  -45.0423 H         1 UNK         0.3000 
    131 H131        1.8690  -14.1290  -46.5156 H         1 UNK         0.0600 
    132 H132        2.1907  -13.7127  -48.9523 H         1 UNK         0.0800 
    133 H133        3.9046  -13.4847  -48.7126 H         1 UNK         0.0800 
    134 H134        4.1984  -16.0451  -50.6455 H         1 UNK         0.0800 
    135 H135        2.6819  -15.1875  -50.7161 H         1 UNK         0.0800 
    136 H136        0.7669  -16.3462  -51.4827 H         1 UNK         0.1150 
    137 H137        0.7345  -20.6222  -51.6951 H         1 UNK         0.1150 
    138 H138        4.0357  -18.5913  -49.8559 H         1 UNK         0.1150 
    139 H139        3.6312  -21.4262  -51.3702 H         1 UNK         0.0800 
    140 H140        3.9389  -20.9658  -49.7137 H         1 UNK         0.0800 
    141 H141        0.7585  -20.7905  -48.6377 H         1 UNK         0.0800 
    142 H142        2.2065  -21.2655  -47.7927 H         1 UNK         0.0800 
    143 H143        1.1834  -23.4668  -47.2094 H         1 UNK         0.0600 
    144 H144        0.4535  -20.9881  -46.1161 H         1 UNK         0.3000 
    145 H145       -1.5335  -22.1554  -43.3615 H         1 UNK         0.0600 
    146 H146        0.1434  -20.6576  -42.2702 H         1 UNK         0.0600 
    147 H147        1.1965  -20.7985  -43.6765 H         1 UNK         0.0600 
    148 H148        0.8466  -22.2121  -42.6939 H         1 UNK         0.0600 
    149 H149       -0.9392  -19.5177  -44.2540 H         1 UNK         0.3000 
    150 H150       -3.7585  -19.1010  -46.4152 H         1 UNK         0.0600 
    151 H151       -4.6158  -18.6661  -44.1332 H         1 UNK         0.0600 
    152 H152       -4.0691  -17.1682  -44.8706 H         1 UNK         0.0600 
    153 H153       -3.0778  -17.9674  -43.6500 H         1 UNK         0.0600 
    154 H154       -1.5963  -17.3986  -45.5965 H         1 UNK         0.3000 
    155 H155        0.5576  -18.1366  -48.3651 H         1 UNK         0.0600 
    156 H156       -1.1806  -16.4547  -49.0768 H         1 UNK         0.0600 
    157 H157        0.3117  -15.6836  -48.5825 H         1 UNK         0.0600 
    158 H158       -1.0797  -15.6839  -47.5011 H         1 UNK         0.0600 
    159 H159        0.8517  -16.3771  -46.1518 H         1 UNK         0.3000 
    160 H160        2.1794  -18.5981  -43.7621 H         1 UNK         0.0600 
    161 H161        3.7322  -16.6253  -45.5202 H         1 UNK         0.0600 
    162 H162        4.1813  -18.2920  -45.1981 H         1 UNK         0.0600 
    163 H163        4.1861  -17.1196  -43.8892 H         1 UNK         0.0600 
    164 H164        2.0666  -15.7621  -43.8027 H         1 UNK         0.3000 
    165 H165       -0.3543  -14.6055  -43.6448 H         1 UNK         0.0600 
    166 H166       -1.8813  -14.3978  -41.6983 H         1 UNK         0.0600 
    167 H167       -2.3029  -15.7855  -42.6836 H         1 UNK         0.0600 
    168 H168       -1.4466  -16.0224  -41.1638 H         1 UNK         0.0600 
    169 H169        0.5078  -14.5059  -40.9326 H         1 UNK         0.3000 
    170 H170        2.6951  -13.8175  -40.3081 H         1 UNK         0.0600 
    171 H171        4.1151  -12.1846  -42.4930 H         1 UNK         0.0600 
    172 H172        4.6135  -12.2976  -40.8068 H         1 UNK         0.0600 
    173 H173        4.6737  -13.7192  -41.8344 H         1 UNK         0.0600 
    174 H174        1.3202  -11.6307  -41.6809 H         1 UNK         0.3000 
    175 H175        0.3948  -10.0800  -38.8650 H         1 UNK         0.0600 
    176 H176        2.8852   -8.7108  -40.0154 H         1 UNK         0.0600 
    177 H177        1.5666   -7.8951  -39.1745 H         1 UNK         0.0600 
    178 H178        2.5788   -9.0419  -38.3146 H         1 UNK         0.0600 
    179 H179        1.0536   -9.1582  -41.6080 H         1 UNK         0.3000 
    180 H180       -2.0518  -10.1141  -42.9312 H         1 UNK         0.0600 
    181 H181       -2.3150   -7.7249  -43.5372 H         1 UNK         0.0600 
    182 H182       -1.1615   -7.2507  -42.2892 H         1 UNK         0.0600 
    183 H183       -2.7081   -7.9605  -41.8423 H         1 UNK         0.0600 
    184 H184        0.0142   -8.5488  -44.0654 H         1 UNK         0.3000 
    185 H185        1.1381   -9.8269  -45.9090 H         1 UNK         0.0600 
    186 H186        3.1505  -10.0690  -43.5854 H         1 UNK         0.0600 
    187 H187        3.5485   -9.4911  -45.2009 H         1 UNK         0.0600 
    188 H188        2.4513   -8.5695  -44.1880 H         1 UNK         0.0600 
    189 H189        2.0373  -12.3775  -44.7206 H         1 UNK         0.3000 
    190 H190       -1.6289  -21.3666  -48.0273 H         1 UNK         0.3000 
    191 H191       -2.8792  -22.9909  -49.9225 H         1 UNK         0.0600 
    192 H192       -3.5775  -20.6892  -49.5807 H         1 UNK         0.0600 
    193 H193       -4.0157  -20.9954  -47.9036 H         1 UNK         0.0600 
    194 H194       -4.9653  -21.7017  -49.1921 H         1 UNK         0.0600 
    195 H195       -3.3741  -22.9861  -46.3538 H         1 UNK         0.3000 
    196 H196       -5.3154  -25.0629  -46.3144 H         1 UNK         0.0600 
    197 H197       -5.0276  -23.4614  -44.4563 H         1 UNK         0.0600 
    198 H198       -3.4071  -24.0718  -44.1315 H         1 UNK         0.0600 
    199 H199       -4.8099  -25.1010  -43.8623 H         1 UNK         0.0600 
    200 H200       -1.7426  -25.1641  -45.9045 H         1 UNK         0.3000 
    201 H201       -1.5987  -27.9240  -45.2377 H         1 UNK         0.0600 
    202 H202        0.1768  -26.3299  -44.6356 H         1 UNK         0.0600 
    203 H203        0.5318  -26.0161  -46.3332 H         1 UNK         0.0600 
    204 H204        0.8546  -27.6018  -45.6396 H         1 UNK         0.0600 
    205 H205       -1.0356  -26.2312  -48.3793 H         1 UNK         0.3000 
    206 H206       -0.4476  -28.7372  -49.7565 H         1 UNK         0.0600 
    207 H207       -0.7977  -25.8799  -50.7675 H         1 UNK         0.0600 
    208 H208        0.7278  -26.6460  -50.3440 H         1 UNK         0.0600 
    209 H209       -0.1913  -27.2251  -51.7270 H         1 UNK         0.0600 
    210 H210       -3.2995  -26.7983  -49.2249 H         1 UNK         0.3000 
    211 H211       -5.4297  -26.9688  -49.6451 H         1 UNK         0.0600 
    212 H212       -4.9547  -29.7484  -50.8344 H         1 UNK         0.0600 
    213 H213       -6.5010  -29.0618  -50.3650 H         1 UNK         0.0600 
    214 H214       -5.2845  -29.3891  -49.1404 H         1 UNK         0.0600 
    215 H215       -3.7062  -28.2567  -52.5030 H         1 UNK         0.3000 
    216 H216       -5.5283  -27.1995  -54.4611 H         1 UNK         0.0600 
    217 H217       -3.7263  -27.8743  -56.0620 H         1 UNK         0.0600 
    218 H218       -4.0598  -29.1512  -54.9027 H         1 UNK         0.0600 
    219 H219       -2.6218  -28.1472  -54.7186 H         1 UNK         0.0600 
    220 H220       -2.7721  -25.8275  -52.7855 H         1 UNK         0.3000 
    221 H221       -2.2347  -23.6591  -54.5999 H         1 UNK         0.0600 
    222 H222       -1.5115  -23.9313  -51.6363 H         1 UNK         0.0600 
    223 H223       -0.5548  -24.5916  -52.9679 H         1 UNK         0.0600 
    224 H224       -0.7613  -22.8567  -52.8008 H         1 UNK         0.0600 
    225 H225       -4.8634  -24.1369  -52.4541 H         1 UNK         0.3000 
    226 H226       -5.2308  -21.4950  -51.4530 H         1 UNK         0.0600 
    227 H227       -6.2481  -23.5458  -50.4377 H         1 UNK         0.0600 
    228 H228       -7.4695  -22.3392  -50.8124 H         1 UNK         0.0600 
    229 H229       -7.2739  -23.7406  -51.8578 H         1 UNK         0.0600 
    230 H230       -5.8481  -22.7909  -54.6017 H         1 UNK         0.3000 
    231 H231       -7.9606  -21.1367  -55.5215 H         1 UNK         0.0600 
    232 H232       -7.0469  -21.7354  -57.7796 H         1 UNK         0.0600 
    233 H233       -7.1844  -23.1465  -56.7410 H         1 UNK         0.0600 
    234 H234       -5.6080  -22.4101  -57.0225 H         1 UNK         0.0600 
    235 H235       -8.0122  -19.0146  -55.6936 H         1 UNK         0.3000 
    236 H236       -7.6293  -16.8791  -55.9218 H         1 UNK         0.0600 
    237 H237       -4.9020  -17.4937  -57.1714 H         1 UNK         0.0600 
    238 H238       -6.4269  -17.3765  -58.0501 H         1 UNK         0.0600 
    239 H239       -5.7649  -15.9669  -57.2375 H         1 UNK         0.0600 
    240 H240       -5.0819  -18.6733  -54.3329 H         1 UNK         0.3000 
    241 H241       -3.9275  -16.5764  -52.7979 H         1 UNK         0.0600 
    242 H242       -7.2347  -17.8046  -50.6321 H         1 UNK         0.3800 
    243 H243       -6.7931  -18.7099  -52.0611 H         1 UNK         0.3800 
    244 H244       -4.0380  -19.4925  -51.9067 H         1 UNK         0.0800 
    245 H245       -3.1061  -19.0191  -53.2902 H         1 UNK         0.0800 
    246 H246       -0.7052  -17.6390  -53.1434 H         1 UNK         0.0800 
    247 H247       -0.8568  -19.3700  -52.9515 H         1 UNK         0.0800 
@<TRIPOS>BOND
     1    1    2 1    
     2    1  127 1    
     3    1  128 1    
     4    1  129 1    
     5    2    3 2    
     6    2    4 am   BACKBONE|DICT|INTERRES
     7    4    5 1    
     8    4  130 1    
     9    5    6 1    
    10    5   65 1    
    11    5  131 1    
    12    6    7 1    
    13    6  132 1    
    14    6  133 1    
    15    7    8 1    
    16    8    9 1    
    17    8  134 1    
    18    8  135 1    
    19    9   10 ar   
    20    9   14 ar   
    21   10   11 ar   
    22   10  136 1    
    23   11   12 ar   
    24   11  126 1    
    25   12   13 ar   
    26   12  137 1    
    27   13   14 ar   
    28   13   15 1    
    29   14  138 1    
    30   15   16 1    
    31   15  139 1    
    32   15  140 1    
    33   16   17 1    
    34   17   18 1    
    35   17  141 1    
    36   17  142 1    
    37   18   19 1    
    38   18   67 1    
    39   18  143 1    
    40   19   20 am   BACKBONE|DICT|INTERRES
    41   19  144 1    
    42   20   21 2    
    43   20   22 1    
    44   22   23 1    
    45   22   24 1    
    46   22  145 1    
    47   23  146 1    
    48   23  147 1    
    49   23  148 1    
    50   24   25 am   BACKBONE|DICT|INTERRES
    51   24  149 1    
    52   25   26 2    
    53   25   27 1    
    54   27   28 1    
    55   27   29 1    
    56   27  150 1    
    57   28  151 1    
    58   28  152 1    
    59   28  153 1    
    60   29   30 am   BACKBONE|DICT|INTERRES
    61   29  154 1    
    62   30   31 2    
    63   30   32 1    
    64   32   33 1    
    65   32   34 1    
    66   32  155 1    
    67   33  156 1    
    68   33  157 1    
    69   33  158 1    
    70   34   35 am   BACKBONE|DICT|INTERRES
    71   34  159 1    
    72   35   36 2    
    73   35   37 1    
    74   37   38 1    
    75   37   39 1    
    76   37  160 1    
    77   38  161 1    
    78   38  162 1    
    79   38  163 1    
    80   39   40 am   BACKBONE|DICT|INTERRES
    81   39  164 1    
    82   40   41 2    
    83   40   42 1    
    84   42   43 1    
    85   42   44 1    
    86   42  165 1    
    87   43  166 1    
    88   43  167 1    
    89   43  168 1    
    90   44   45 am   BACKBONE|DICT|INTERRES
    91   44  169 1    
    92   45   46 2    
    93   45   47 1    
    94   47   48 1    
    95   47   49 1    
    96   47  170 1    
    97   48  171 1    
    98   48  172 1    
    99   48  173 1    
   100   49   50 am   BACKBONE|DICT|INTERRES
   101   49  174 1    
   102   50   51 2    
   103   50   52 1    
   104   52   53 1    
   105   52   54 1    
   106   52  175 1    
   107   53  176 1    
   108   53  177 1    
   109   53  178 1    
   110   54   55 am   BACKBONE|DICT|INTERRES
   111   54  179 1    
   112   55   56 2    
   113   55   57 1    
   114   57   58 1    
   115   57   59 1    
   116   57  180 1    
   117   58  181 1    
   118   58  182 1    
   119   58  183 1    
   120   59   60 am   BACKBONE|DICT|INTERRES
   121   59  184 1    
   122   60   61 2    
   123   60   62 1    
   124   62   63 1    
   125   62   64 1    
   126   62  185 1    
   127   63  186 1    
   128   63  187 1    
   129   63  188 1    
   130   64   65 am   BACKBONE|DICT|INTERRES
   131   64  189 1    
   132   65   66 2    
   133   67   68 2    
   134   67   69 am   BACKBONE|DICT|INTERRES
   135   69   70 1    
   136   69  190 1    
   137   70   71 1    
   138   70   72 1    
   139   70  191 1    
   140   71  192 1    
   141   71  193 1    
   142   71  194 1    
   143   72   73 2    
   144   72   74 am   BACKBONE|DICT|INTERRES
   145   74   75 1    
   146   74  195 1    
   147   75   76 1    
   148   75   77 1    
   149   75  196 1    
   150   76  197 1    
   151   76  198 1    
   152   76  199 1    
   153   77   78 2    
   154   77   79 am   BACKBONE|DICT|INTERRES
   155   79   80 1    
   156   79  200 1    
   157   80   81 1    
   158   80   82 1    
   159   80  201 1    
   160   81  202 1    
   161   81  203 1    
   162   81  204 1    
   163   82   83 2    
   164   82   84 am   BACKBONE|DICT|INTERRES
   165   84   85 1    
   166   84  205 1    
   167   85   86 1    
   168   85   87 1    
   169   85  206 1    
   170   86  207 1    
   171   86  208 1    
   172   86  209 1    
   173   87   88 2    
   174   87   89 am   BACKBONE|DICT|INTERRES
   175   89   90 1    
   176   89  210 1    
   177   90   91 1    
   178   90   92 1    
   179   90  211 1    
   180   91  212 1    
   181   91  213 1    
   182   91  214 1    
   183   92   93 2    
   184   92   94 am   BACKBONE|DICT|INTERRES
   185   94   95 1    
   186   94  215 1    
   187   95   96 1    
   188   95   97 1    
   189   95  216 1    
   190   96  217 1    
   191   96  218 1    
   192   96  219 1    
   193   97   98 2    
   194   97   99 am   BACKBONE|DICT|INTERRES
   195   99  100 1    
   196   99  220 1    
   197  100  101 1    
   198  100  102 1    
   199  100  221 1    
   200  101  222 1    
   201  101  223 1    
   202  101  224 1    
   203  102  103 2    
   204  102  104 am   BACKBONE|DICT|INTERRES
   205  104  105 1    
   206  104  225 1    
   207  105  106 1    
   208  105  107 1    
   209  105  226 1    
   210  106  227 1    
   211  106  228 1    
   212  106  229 1    
   213  107  108 2    
   214  107  109 am   BACKBONE|DICT|INTERRES
   215  109  110 1    
   216  109  230 1    
   217  110  111 1    
   218  110  112 1    
   219  110  231 1    
   220  111  232 1    
   221  111  233 1    
   222  111  234 1    
   223  112  113 2    
   224  112  114 am   BACKBONE|DICT|INTERRES
   225  114  115 1    
   226  114  235 1    
   227  115  116 1    
   228  115  117 1    
   229  115  236 1    
   230  116  237 1    
   231  116  238 1    
   232  116  239 1    
   233  117  118 2    
   234  117  119 am   BACKBONE|DICT|INTERRES
   235  119  120 1    
   236  119  240 1    
   237  120  121 1    
   238  120  124 1    
   239  120  241 1    
   240  121  122 am   BACKBONE|DICT|INTERRES
   241  121  123 2    
   242  122  242 1    
   243  122  243 1    
   244  124  125 1    
   245  124  244 1    
   246  124  245 1    
   247  125  126 1    
   248  126  246 1    
   249  126  247 1    
@<TRIPOS>SUBSTRUCTURE
     1 UNK         1 GROUP             0       ****    0 ROOT    
