@<TRIPOS>MOLECULE
3R540
247   249    1
SMALL
USER_CHARGES


@<TRIPOS>ATOM
      1 CA          3.4822  -10.3995  -48.8481 C.3       0 UNK        -0.1800 
      2 C           2.4573  -11.1477  -48.0096 C.2       0 UNK         0.5000 
      3 O           2.3992  -10.9501  -46.7966 O.2       0 UNK        -0.5000 
      4 N           1.6351  -11.9886  -48.6510 N.am      1 UNK        -0.5000 
      5 CA          0.6207  -12.8609  -48.0362 C.3       1 UNK         0.1400 
      6 C6         -0.0651  -13.7621  -49.0908 C.3       23 UNK        -0.0398 
      7 S7          1.1062  -14.8537  -49.9692 S.3       23 UNK        -0.2404 
      8 C8          0.6750  -16.4742  -49.2578 C.3       23 UNK        -0.0205 
      9 C9          1.1102  -17.6415  -50.1316 C.ar      23 UNK        -0.0193 
     10 C10         0.7072  -17.7022  -51.4686 C.ar      23 UNK        -0.1150 
     11 C11         1.0396  -18.7980  -52.2662 C.ar      23 UNK        -0.0193 
     12 C12         1.7892  -19.8423  -51.7197 C.ar      23 UNK        -0.1150 
     13 C13         2.1964  -19.7988  -50.3828 C.ar      23 UNK        -0.0193 
     14 C14         1.8576  -18.6942  -49.5933 C.ar      23 UNK        -0.1150 
     15 C15         2.9933  -20.9542  -49.7966 C.3       23 UNK        -0.0205 
     16 S16         1.9218  -22.3628  -49.3677 S.3       23 UNK        -0.2404 
     17 C17         1.0420  -21.7085  -47.9109 C.3       23 UNK        -0.0398 
     18 CA          0.4699  -22.8338  -47.0146 C.3       11 UNK         0.1400 
     19 N           0.3201  -22.4096  -45.6201 N.am      11 UNK        -0.5000 
     20 C           0.0029  -23.2241  -44.6033 C.2       10 UNK         0.5000 
     21 O          -0.1641  -24.4371  -44.7244 O.2       10 UNK        -0.5000 
     22 CA         -0.2119  -22.5700  -43.2273 C.3       10 UNK         0.1400 
     23 CB          1.1318  -22.2660  -42.5487 C.3       10 UNK        -0.1800 
     24 N          -1.0209  -21.3529  -43.3032 N.am      10 UNK        -0.5000 
     25 C          -2.2978  -21.3208  -43.7120 C.2       9 UNK         0.5000 
     26 O          -2.9390  -22.3223  -44.0289 O.2       9 UNK        -0.5000 
     27 CA         -2.9613  -19.9374  -43.8268 C.3       9 UNK         0.1400 
     28 CB         -3.4231  -19.4379  -42.4498 C.3       9 UNK        -0.1800 
     29 N          -2.0910  -18.9388  -44.4470 N.am      9 UNK        -0.5000 
     30 C          -1.6126  -19.0136  -45.6975 C.2       8 UNK         0.5000 
     31 O          -1.8716  -19.9266  -46.4804 O.2       8 UNK        -0.5000 
     32 CA         -0.6264  -17.9128  -46.1233 C.3       8 UNK         0.1400 
     33 CB         -1.3600  -16.5905  -46.3982 C.3       8 UNK        -0.1800 
     34 N           0.4236  -17.6960  -45.1285 N.am      8 UNK        -0.5000 
     35 C           1.2963  -18.6305  -44.7239 C.2       7 UNK         0.5000 
     36 O           1.3554  -19.7648  -45.1953 O.2       7 UNK        -0.5000 
     37 CA          2.2235  -18.2520  -43.5588 C.3       7 UNK         0.1400 
     38 CB          3.4433  -17.4687  -44.0645 C.3       7 UNK        -0.1800 
     39 N           1.5169  -17.4795  -42.5368 N.am      7 UNK        -0.5000 
     40 C           0.5750  -17.9880  -41.7284 C.2       6 UNK         0.5000 
     41 O           0.2341  -19.1705  -41.7348 O.2       6 UNK        -0.5000 
     42 CA         -0.1351  -16.9993  -40.7861 C.3       6 UNK         0.1400 
     43 CB          0.7029  -16.7541  -39.5227 C.3       6 UNK        -0.1800 
     44 N          -0.4230  -15.7204  -41.4361 N.am      6 UNK        -0.5000 
     45 C          -1.2912  -15.5654  -42.4456 C.2       5 UNK         0.5000 
     46 O          -1.9802  -16.4789  -42.8981 O.2       5 UNK        -0.5000 
     47 CA         -1.3678  -14.1682  -43.0870 C.3       5 UNK         0.1400 
     48 CB         -2.4151  -13.2979  -42.3781 C.3       5 UNK        -0.1800 
     49 N          -0.0848  -13.4636  -43.0985 N.am      5 UNK        -0.5000 
     50 C           1.0093  -13.8628  -43.7589 C.2       4 UNK         0.5000 
     51 O           1.0716  -14.9223  -44.3858 O.2       4 UNK        -0.5000 
     52 CA          2.2251  -12.9150  -43.7018 C.3       4 UNK         0.1400 
     53 CB          3.3905  -13.3889  -44.5879 C.3       4 UNK        -0.1800 
     54 N           1.8637  -11.5552  -44.0989 N.am      4 UNK        -0.5000 
     55 C           1.2909  -10.6311  -43.3171 C.2       3 UNK         0.5000 
     56 O           0.9844  -10.8296  -42.1409 O.2       3 UNK        -0.5000 
     57 CA          0.9623   -9.2849  -43.9791 C.3       3 UNK         0.1400 
     58 CB          2.2384   -8.4614  -44.2158 C.3       3 UNK        -0.1800 
     59 N           0.2798   -9.5039  -45.2525 N.am      3 UNK        -0.5000 
     60 C          -1.0505   -9.5712  -45.3999 C.2       2 UNK         0.5000 
     61 O          -1.8525   -9.3691  -44.4875 O.2       2 UNK        -0.5000 
     62 CA         -1.5786   -9.9321  -46.8027 C.3       2 UNK         0.1400 
     63 CB         -1.8175   -8.6613  -47.6321 C.3       2 UNK        -0.1800 
     64 N          -0.6786  -10.8214  -47.5387 N.am      2 UNK        -0.5000 
     65 C          -0.4550  -12.1053  -47.2233 C.2       1 UNK         0.5000 
     66 O          -1.0557  -12.6965  -46.3271 O.2       1 UNK        -0.5000 
     67 C          -0.8480  -23.4006  -47.5794 C.2       11 UNK         0.5000 
     68 O          -0.8425  -24.4900  -48.1547 O.2       11 UNK        -0.5000 
     69 N          -1.9577  -22.6837  -47.3484 N.am      12 UNK        -0.5000 
     70 CA         -3.3067  -23.0869  -47.7414 C.3       12 UNK         0.1400 
     71 CB         -4.2991  -21.9591  -47.4220 C.3       12 UNK        -0.1800 
     72 C          -3.7519  -24.4045  -47.0867 C.2       12 UNK         0.5000 
     73 O          -4.3304  -25.2463  -47.7694 O.2       12 UNK        -0.5000 
     74 N          -3.4492  -24.5800  -45.7937 N.am      13 UNK        -0.5000 
     75 CA         -3.7183  -25.8093  -45.0490 C.3       13 UNK         0.1400 
     76 CB         -3.4909  -25.5618  -43.5499 C.3       13 UNK        -0.1800 
     77 C          -2.8763  -27.0025  -45.5387 C.2       13 UNK         0.5000 
     78 O          -3.4048  -28.1092  -45.6511 O.2       13 UNK        -0.5000 
     79 N          -1.5882  -26.7601  -45.8157 N.am      14 UNK        -0.5000 
     80 CA         -0.6306  -27.7763  -46.2464 C.3       14 UNK         0.1400 
     81 CB          0.7993  -27.2392  -46.0740 C.3       14 UNK        -0.1800 
     82 C          -0.8589  -28.2532  -47.6908 C.2       14 UNK         0.5000 
     83 O          -0.9180  -29.4608  -47.9270 O.2       14 UNK        -0.5000 
     84 N          -0.9526  -27.3055  -48.6322 N.am      15 UNK        -0.5000 
     85 CA         -0.9850  -27.5851  -50.0698 C.3       15 UNK         0.1400 
     86 CB         -0.2065  -26.4824  -50.8016 C.3       15 UNK        -0.1800 
     87 C          -2.4071  -27.7050  -50.6443 C.2       15 UNK         0.5000 
     88 O          -2.5458  -28.1217  -51.7953 O.2       15 UNK        -0.5000 
     89 N          -3.4295  -27.3135  -49.8695 N.am      16 UNK        -0.5000 
     90 CA         -4.8655  -27.2759  -50.1873 C.3       16 UNK         0.1400 
     91 CB         -5.4045  -28.6664  -50.5769 C.3       16 UNK        -0.1800 
     92 C          -5.2483  -26.2098  -51.2339 C.2       16 UNK         0.5000 
     93 O          -6.1697  -25.4279  -50.9986 O.2       16 UNK        -0.5000 
     94 N          -4.5421  -26.1962  -52.3696 N.am      17 UNK        -0.5000 
     95 CA         -4.7816  -25.3036  -53.5031 C.3       17 UNK         0.1400 
     96 CB         -4.2069  -25.9562  -54.7695 C.3       17 UNK        -0.1800 
     97 C          -4.1872  -23.8958  -53.3148 C.2       17 UNK         0.5000 
     98 O          -4.6361  -22.9604  -53.9796 O.2       17 UNK        -0.5000 
     99 N          -3.1896  -23.7537  -52.4304 N.am      18 UNK        -0.5000 
    100 CA        -2.4341  -22.5174  -52.2055 C.3       18 UNK         0.1400 
    101 CB        -1.0449  -22.8617  -51.6441 C.3       18 UNK        -0.1800 
    102 C         -3.1853  -21.4979  -51.3226 C.2       18 UNK         0.5000 
    103 O         -2.6300  -20.9886  -50.3487 O.2       18 UNK        -0.5000 
    104 N         -4.4437  -21.2101  -51.6721 N.am      19 UNK        -0.5000 
    105 CA        -5.3643  -20.3229  -50.9578 C.3       19 UNK         0.1400 
    106 CB        -6.8024  -20.6935  -51.3613 C.3       19 UNK        -0.1800 
    107 C         -5.0507  -18.8243  -51.1699 C.2       19 UNK         0.5000 
    108 O         -5.9374  -18.0568  -51.5486 O.2       19 UNK        -0.5000 
    109 N         -3.7860  -18.4424  -50.9469 N.am      20 UNK        -0.5000 
    110 CA        -3.1649  -17.1133  -51.0425 C.3       20 UNK         0.1400 
    111 CB        -3.7826  -16.1358  -50.0262 C.3       20 UNK        -0.1800 
    112 C         -3.1320  -16.4976  -52.4571 C.2       20 UNK         0.5000 
    113 O         -2.1055  -15.9406  -52.8454 O.2       20 UNK        -0.5000 
    114 N         -4.2359  -16.6051  -53.2054 N.am      21 UNK        -0.5000 
    115 CA        -4.3399  -16.2065  -54.6091 C.3       21 UNK         0.1400 
    116 CB        -5.8221  -16.1088  -55.0013 C.3       21 UNK        -0.1800 
    117 C         -3.5914  -17.1855  -55.5313 C.2       21 UNK         0.5000 
    118 O         -2.9125  -16.7487  -56.4611 O.2       21 UNK        -0.5000 
    119 N         -3.7147  -18.4861  -55.2281 N.am      22 UNK        -0.5000 
    120 CA        -2.9855  -19.6072  -55.8512 C.3       22 UNK         0.1400 
    121 C         -3.3009  -19.8528  -57.3595 C.2       22 UNK         0.5000 
    122 N         -4.4054  -19.3457  -57.8933 N.am      22 UNK        -0.7600 
    123 O         -2.5551  -20.5388  -58.0534 O.2       22 UNK        -0.5000 
    124 C124       -1.4594  -19.5615  -55.5533 C.3       23 UNK        -0.0398 
    125 S125       -1.1248  -19.5445  -53.7612 S.3       23 UNK        -0.2404 
    126 C126        0.5548  -18.8631  -53.7042 C.3       23 UNK        -0.0205 
    127 H127        3.3318   -9.3244  -48.7515 H         1 UNK         0.0600 
    128 H128        3.4114  -10.6610  -49.9041 H         1 UNK         0.0600 
    129 H129        4.4892  -10.6362  -48.5049 H         1 UNK         0.0600 
    130 H130        1.7442  -12.1056  -49.6486 H         1 UNK         0.3000 
    131 H131        1.1429  -13.5071  -47.3271 H         1 UNK         0.0600 
    132 H132       -0.8475  -14.3673  -48.6304 H         1 UNK         0.0800 
    133 H133       -0.5718  -13.1491  -49.8384 H         1 UNK         0.0800 
    134 H134       -0.4049  -16.5468  -49.1329 H         1 UNK         0.0800 
    135 H135        1.1189  -16.5430  -48.2636 H         1 UNK         0.0800 
    136 H136        0.1168  -16.8999  -51.8868 H         1 UNK         0.1150 
    137 H137        2.0376  -20.7010  -52.3277 H         1 UNK         0.1150 
    138 H138        2.1598  -18.6649  -48.5556 H         1 UNK         0.1150 
    139 H139        3.7347  -21.2868  -50.5246 H         1 UNK         0.0800 
    140 H140        3.5549  -20.6334  -48.9179 H         1 UNK         0.0800 
    141 H141        0.2680  -21.0068  -48.2294 H         1 UNK         0.0800 
    142 H142        1.7646  -21.1224  -47.3437 H         1 UNK         0.0800 
    143 H143        1.1921  -23.6533  -46.9992 H         1 UNK         0.0600 
    144 H144        0.4756  -21.4231  -45.4277 H         1 UNK         0.3000 
    145 H145       -0.7499  -23.2858  -42.6024 H         1 UNK         0.0600 
    146 H146        0.9849  -21.8806  -41.5397 H         1 UNK         0.0600 
    147 H147        1.7404  -23.1674  -42.4671 H         1 UNK         0.0600 
    148 H148        1.7091  -21.5295  -43.1074 H         1 UNK         0.0600 
    149 H149       -0.5741  -20.4894  -43.0114 H         1 UNK         0.3000 
    150 H150       -3.8432  -20.0457  -44.4613 H         1 UNK         0.0600 
    151 H151       -4.0828  -20.1629  -41.9716 H         1 UNK         0.0600 
    152 H152       -3.9759  -18.5023  -42.5360 H         1 UNK         0.0600 
    153 H153       -2.5802  -19.2666  -41.7797 H         1 UNK         0.0600 
    154 H154       -1.8568  -18.1287  -43.8795 H         1 UNK         0.3000 
    155 H155       -0.1431  -18.2410  -47.0452 H         1 UNK         0.0600 
    156 H156       -1.9540  -16.2691  -45.5438 H         1 UNK         0.0600 
    157 H157       -0.6612  -15.7871  -46.6307 H         1 UNK         0.0600 
    158 H158       -2.0405  -16.6938  -47.2432 H         1 UNK         0.0600 
    159 H159        0.4857  -16.7680  -44.7200 H         1 UNK         0.3000 
    160 H160        2.5826  -19.1747  -43.0982 H         1 UNK         0.0600 
    161 H161        4.0408  -18.0811  -44.7408 H         1 UNK         0.0600 
    162 H162        3.1498  -16.5748  -44.6136 H         1 UNK         0.0600 
    163 H163        4.0909  -17.1649  -43.2421 H         1 UNK         0.0600 
    164 H164        1.6961  -16.4869  -42.5130 H         1 UNK         0.3000 
    165 H165       -1.0837  -17.4491  -40.4848 H         1 UNK         0.0600 
    166 H166        0.1733  -16.1140  -38.8168 H         1 UNK         0.0600 
    167 H167        0.9184  -17.6926  -39.0102 H         1 UNK         0.0600 
    168 H168        1.6573  -16.2802  -39.7554 H         1 UNK         0.0600 
    169 H169        0.1006  -14.9161  -41.1238 H         1 UNK         0.3000 
    170 H170       -1.6811  -14.2992  -44.1244 H         1 UNK         0.0600 
    171 H171       -3.3904  -13.7863  -42.3737 H         1 UNK         0.0600 
    172 H172       -2.1402  -13.1003  -41.3413 H         1 UNK         0.0600 
    173 H173       -2.5346  -12.3387  -42.8830 H         1 UNK         0.0600 
    174 H174       -0.0411  -12.5763  -42.6104 H         1 UNK         0.3000 
    175 H175        2.5778  -12.9002  -42.6687 H         1 UNK         0.0600 
    176 H176        3.0865  -13.5021  -45.6293 H         1 UNK         0.0600 
    177 H177        4.2207  -12.6830  -44.5584 H         1 UNK         0.0600 
    178 H178        3.7747  -14.3498  -44.2470 H         1 UNK         0.0600 
    179 H179        2.0570  -11.3154  -45.0697 H         1 UNK         0.3000 
    180 H180        0.3193   -8.7196  -43.3010 H         1 UNK         0.0600 
    181 H181        2.9289   -8.9640  -44.8942 H         1 UNK         0.0600 
    182 H182        2.7680   -8.2857  -43.2787 H         1 UNK         0.0600 
    183 H183        2.0020   -7.4869  -44.6432 H         1 UNK         0.0600 
    184 H184        0.8693   -9.7489  -46.0390 H         1 UNK         0.3000 
    185 H185       -2.5359  -10.4423  -46.6757 H         1 UNK         0.0600 
    186 H186       -2.2578   -8.8990  -48.6006 H         1 UNK         0.0600 
    187 H187       -2.5046   -7.9855  -47.1211 H         1 UNK         0.0600 
    188 H188       -0.8902   -8.1148  -47.8086 H         1 UNK         0.0600 
    189 H189       -0.1486  -10.4130  -48.2946 H         1 UNK         0.3000 
    190 H190       -1.8751  -21.7769  -46.8950 H         1 UNK         0.3000 
    191 H191       -3.3003  -23.2419  -48.8217 H         1 UNK         0.0600 
    192 H192       -4.3623  -21.7693  -46.3503 H         1 UNK         0.0600 
    193 H193       -5.3005  -22.2093  -47.7737 H         1 UNK         0.0600 
    194 H194       -4.0045  -21.0280  -47.9057 H         1 UNK         0.0600 
    195 H195       -3.0211  -23.8159  -45.2784 H         1 UNK         0.3000 
    196 H196       -4.7703  -26.0650  -45.1922 H         1 UNK         0.0600 
    197 H197       -3.6947  -26.4620  -42.9689 H         1 UNK         0.0600 
    198 H198       -4.1494  -24.7774  -43.1765 H         1 UNK         0.0600 
    199 H199       -2.4634  -25.2611  -43.3425 H         1 UNK         0.0600 
    200 H200       -1.2181  -25.8281  -45.6534 H         1 UNK         0.3000 
    201 H201       -0.7398  -28.6431  -45.5911 H         1 UNK         0.0600 
    202 H202        1.0070  -27.0041  -45.0300 H         1 UNK         0.0600 
    203 H203        0.9635  -26.3329  -46.6583 H         1 UNK         0.0600 
    204 H204        1.5369  -27.9763  -46.3940 H         1 UNK         0.0600 
    205 H205       -0.9057  -26.3239  -48.3616 H         1 UNK         0.3000 
    206 H206       -0.4784  -28.5315  -50.2706 H         1 UNK         0.0600 
    207 H207        0.8188  -26.4131  -50.4378 H         1 UNK         0.0600 
    208 H208       -0.1598  -26.6742  -51.8743 H         1 UNK         0.0600 
    209 H209       -0.6761  -25.5114  -50.6610 H         1 UNK         0.0600 
    210 H210       -3.1989  -26.9384  -48.9582 H         1 UNK         0.3000 
    211 H211       -5.3712  -27.0010  -49.2619 H         1 UNK         0.0600 
    212 H212       -4.9948  -29.0199  -51.5232 H         1 UNK         0.0600 
    213 H213       -6.4895  -28.6429  -50.6848 H         1 UNK         0.0600 
    214 H214       -5.1704  -29.4071  -49.8121 H         1 UNK         0.0600 
    215 H215       -3.8000  -26.8851  -52.4650 H         1 UNK         0.3000 
    216 H216       -5.8592  -25.1892  -53.6388 H         1 UNK         0.0600 
    217 H217       -4.3845  -25.3332  -55.6472 H         1 UNK         0.0600 
    218 H218       -4.6719  -26.9237  -54.9597 H         1 UNK         0.0600 
    219 H219       -3.1302  -26.1117  -54.6884 H         1 UNK         0.0600 
    220 H220       -2.9097  -24.5619  -51.8959 H         1 UNK         0.3000 
    221 H221       -2.2817  -22.0476  -53.1773 H         1 UNK         0.0600 
    222 H222       -1.1120  -23.2711  -50.6368 H         1 UNK         0.0600 
    223 H223       -0.5239  -23.5815  -52.2751 H         1 UNK         0.0600 
    224 H224       -0.4185  -21.9703  -51.5876 H         1 UNK         0.0600 
    225 H225       -4.8029  -21.6610  -52.5076 H         1 UNK         0.3000 
    226 H226       -5.2659  -20.5145  -49.8884 H         1 UNK         0.0600 
    227 H227       -7.0133  -21.7417  -51.1473 H         1 UNK         0.0600 
    228 H228       -7.5319  -20.0990  -50.8097 H         1 UNK         0.0600 
    229 H229       -6.9766  -20.5272  -52.4252 H         1 UNK         0.0600 
    230 H230       -3.1502  -19.1882  -50.6726 H         1 UNK         0.3000 
    231 H231       -2.1257  -17.2683  -50.7518 H         1 UNK         0.0600 
    232 H232       -3.2372  -15.1913  -50.0147 H         1 UNK         0.0600 
    233 H233       -3.7493  -16.5438  -49.0163 H         1 UNK         0.0600 
    234 H234       -4.8230  -15.9094  -50.2611 H         1 UNK         0.0600 
    235 H235       -5.0417  -17.0599  -52.7819 H         1 UNK         0.3000 
    236 H236       -3.8888  -15.2188  -54.7258 H         1 UNK         0.0600 
    237 H237       -6.3406  -15.3667  -54.3940 H         1 UNK         0.0600 
    238 H238       -5.9310  -15.8085  -56.0443 H         1 UNK         0.0600 
    239 H239       -6.3378  -17.0618  -54.8765 H         1 UNK         0.0600 
    240 H240       -4.3017  -18.7322  -54.4460 H         1 UNK         0.3000 
    241 H241       -3.3724  -20.5009  -55.3597 H         1 UNK         0.0600 
    242 H242       -4.6106  -19.5151  -58.8655 H         1 UNK         0.3800 
    243 H243       -5.0320  -18.7855  -57.3381 H         1 UNK         0.3800 
    244 H244       -0.9542  -20.4333  -55.9720 H         1 UNK         0.0800 
    245 H245       -1.0042  -18.6864  -56.0190 H         1 UNK         0.0800 
    246 H246        1.2234  -19.4811  -54.3055 H         1 UNK         0.0800 
    247 H247        0.5605  -17.8659  -54.1474 H         1 UNK         0.0800 
@<TRIPOS>BOND
     1    1    2 1    
     2    1  127 1    
     3    1  128 1    
     4    1  129 1    
     5    2    3 2    
     6    2    4 am   BACKBONE|DICT|INTERRES
     7    4    5 1    
     8    4  130 1    
     9    5    6 1    
    10    5   65 1    
    11    5  131 1    
    12    6    7 1    
    13    6  132 1    
    14    6  133 1    
    15    7    8 1    
    16    8    9 1    
    17    8  134 1    
    18    8  135 1    
    19    9   10 ar   
    20    9   14 ar   
    21   10   11 ar   
    22   10  136 1    
    23   11   12 ar   
    24   11  126 1    
    25   12   13 ar   
    26   12  137 1    
    27   13   14 ar   
    28   13   15 1    
    29   14  138 1    
    30   15   16 1    
    31   15  139 1    
    32   15  140 1    
    33   16   17 1    
    34   17   18 1    
    35   17  141 1    
    36   17  142 1    
    37   18   19 1    
    38   18   67 1    
    39   18  143 1    
    40   19   20 am   BACKBONE|DICT|INTERRES
    41   19  144 1    
    42   20   21 2    
    43   20   22 1    
    44   22   23 1    
    45   22   24 1    
    46   22  145 1    
    47   23  146 1    
    48   23  147 1    
    49   23  148 1    
    50   24   25 am   BACKBONE|DICT|INTERRES
    51   24  149 1    
    52   25   26 2    
    53   25   27 1    
    54   27   28 1    
    55   27   29 1    
    56   27  150 1    
    57   28  151 1    
    58   28  152 1    
    59   28  153 1    
    60   29   30 am   BACKBONE|DICT|INTERRES
    61   29  154 1    
    62   30   31 2    
    63   30   32 1    
    64   32   33 1    
    65   32   34 1    
    66   32  155 1    
    67   33  156 1    
    68   33  157 1    
    69   33  158 1    
    70   34   35 am   BACKBONE|DICT|INTERRES
    71   34  159 1    
    72   35   36 2    
    73   35   37 1    
    74   37   38 1    
    75   37   39 1    
    76   37  160 1    
    77   38  161 1    
    78   38  162 1    
    79   38  163 1    
    80   39   40 am   BACKBONE|DICT|INTERRES
    81   39  164 1    
    82   40   41 2    
    83   40   42 1    
    84   42   43 1    
    85   42   44 1    
    86   42  165 1    
    87   43  166 1    
    88   43  167 1    
    89   43  168 1    
    90   44   45 am   BACKBONE|DICT|INTERRES
    91   44  169 1    
    92   45   46 2    
    93   45   47 1    
    94   47   48 1    
    95   47   49 1    
    96   47  170 1    
    97   48  171 1    
    98   48  172 1    
    99   48  173 1    
   100   49   50 am   BACKBONE|DICT|INTERRES
   101   49  174 1    
   102   50   51 2    
   103   50   52 1    
   104   52   53 1    
   105   52   54 1    
   106   52  175 1    
   107   53  176 1    
   108   53  177 1    
   109   53  178 1    
   110   54   55 am   BACKBONE|DICT|INTERRES
   111   54  179 1    
   112   55   56 2    
   113   55   57 1    
   114   57   58 1    
   115   57   59 1    
   116   57  180 1    
   117   58  181 1    
   118   58  182 1    
   119   58  183 1    
   120   59   60 am   BACKBONE|DICT|INTERRES
   121   59  184 1    
   122   60   61 2    
   123   60   62 1    
   124   62   63 1    
   125   62   64 1    
   126   62  185 1    
   127   63  186 1    
   128   63  187 1    
   129   63  188 1    
   130   64   65 am   BACKBONE|DICT|INTERRES
   131   64  189 1    
   132   65   66 2    
   133   67   68 2    
   134   67   69 am   BACKBONE|DICT|INTERRES
   135   69   70 1    
   136   69  190 1    
   137   70   71 1    
   138   70   72 1    
   139   70  191 1    
   140   71  192 1    
   141   71  193 1    
   142   71  194 1    
   143   72   73 2    
   144   72   74 am   BACKBONE|DICT|INTERRES
   145   74   75 1    
   146   74  195 1    
   147   75   76 1    
   148   75   77 1    
   149   75  196 1    
   150   76  197 1    
   151   76  198 1    
   152   76  199 1    
   153   77   78 2    
   154   77   79 am   BACKBONE|DICT|INTERRES
   155   79   80 1    
   156   79  200 1    
   157   80   81 1    
   158   80   82 1    
   159   80  201 1    
   160   81  202 1    
   161   81  203 1    
   162   81  204 1    
   163   82   83 2    
   164   82   84 am   BACKBONE|DICT|INTERRES
   165   84   85 1    
   166   84  205 1    
   167   85   86 1    
   168   85   87 1    
   169   85  206 1    
   170   86  207 1    
   171   86  208 1    
   172   86  209 1    
   173   87   88 2    
   174   87   89 am   BACKBONE|DICT|INTERRES
   175   89   90 1    
   176   89  210 1    
   177   90   91 1    
   178   90   92 1    
   179   90  211 1    
   180   91  212 1    
   181   91  213 1    
   182   91  214 1    
   183   92   93 2    
   184   92   94 am   BACKBONE|DICT|INTERRES
   185   94   95 1    
   186   94  215 1    
   187   95   96 1    
   188   95   97 1    
   189   95  216 1    
   190   96  217 1    
   191   96  218 1    
   192   96  219 1    
   193   97   98 2    
   194   97   99 am   BACKBONE|DICT|INTERRES
   195   99  100 1    
   196   99  220 1    
   197  100  101 1    
   198  100  102 1    
   199  100  221 1    
   200  101  222 1    
   201  101  223 1    
   202  101  224 1    
   203  102  103 2    
   204  102  104 am   BACKBONE|DICT|INTERRES
   205  104  105 1    
   206  104  225 1    
   207  105  106 1    
   208  105  107 1    
   209  105  226 1    
   210  106  227 1    
   211  106  228 1    
   212  106  229 1    
   213  107  108 2    
   214  107  109 am   BACKBONE|DICT|INTERRES
   215  109  110 1    
   216  109  230 1    
   217  110  111 1    
   218  110  112 1    
   219  110  231 1    
   220  111  232 1    
   221  111  233 1    
   222  111  234 1    
   223  112  113 2    
   224  112  114 am   BACKBONE|DICT|INTERRES
   225  114  115 1    
   226  114  235 1    
   227  115  116 1    
   228  115  117 1    
   229  115  236 1    
   230  116  237 1    
   231  116  238 1    
   232  116  239 1    
   233  117  118 2    
   234  117  119 am   BACKBONE|DICT|INTERRES
   235  119  120 1    
   236  119  240 1    
   237  120  121 1    
   238  120  124 1    
   239  120  241 1    
   240  121  122 am   BACKBONE|DICT|INTERRES
   241  121  123 2    
   242  122  242 1    
   243  122  243 1    
   244  124  125 1    
   245  124  244 1    
   246  124  245 1    
   247  125  126 1    
   248  126  246 1    
   249  126  247 1    
@<TRIPOS>SUBSTRUCTURE
     1 UNK         1 GROUP             0       ****    0 ROOT    
