@<TRIPOS>MOLECULE
3R540
247   249    1
SMALL
USER_CHARGES


@<TRIPOS>ATOM
      1 CA         -4.6508  -16.8249  -44.7881 C.3       0 UNK        -0.1800 
      2 C          -4.2977  -15.4965  -45.4412 C.2       0 UNK         0.5000 
      3 O          -4.9814  -14.4970  -45.2192 O.2       0 UNK        -0.5000 
      4 N          -3.2266  -15.4839  -46.2419 N.am      1 UNK        -0.5000 
      5 CA         -2.6554  -14.2959  -46.8756 C.3       1 UNK         0.1400 
      6 C6         -1.8467  -14.6962  -48.1320 C.3       23 UNK        -0.0398 
      7 S7         -1.0841  -13.3034  -49.0381 S.3       23 UNK        -0.2404 
      8 C8          0.6927  -13.6928  -48.8907 C.3       23 UNK        -0.0205 
      9 C9          1.0329  -15.0553  -49.4800 C.ar      23 UNK        -0.0193 
     10 C10         0.9589  -15.2645  -50.8590 C.ar      23 UNK        -0.1150 
     11 C11         1.2011  -16.5309  -51.4027 C.ar      23 UNK        -0.0193 
     12 C12         1.5647  -17.5822  -50.5538 C.ar      23 UNK        -0.1150 
     13 C13         1.6711  -17.3776  -49.1750 C.ar      23 UNK        -0.0193 
     14 C14         1.3969  -16.1149  -48.6447 C.ar      23 UNK        -0.1150 
     15 C15         2.0933  -18.5104  -48.2538 C.3       23 UNK        -0.0205 
     16 S16         0.6925  -19.5995  -47.8372 S.3       23 UNK        -0.2404 
     17 C17         1.1036  -21.0946  -48.8052 C.3       23 UNK        -0.0398 
     18 CA          0.5337  -22.4157  -48.2238 C.3       11 UNK         0.1400 
     19 N           0.8787  -22.5850  -46.8128 N.am      11 UNK        -0.5000 
     20 C           0.8945  -23.7492  -46.1521 C.2       10 UNK         0.5000 
     21 O           0.6716  -24.8401  -46.6813 O.2       10 UNK        -0.5000 
     22 CA          1.2375  -23.6613  -44.6508 C.3       10 UNK         0.1400 
     23 CB          1.6073  -25.0208  -44.0228 C.3       10 UNK        -0.1800 
     24 N           2.2680  -22.6558  -44.3765 N.am      10 UNK        -0.5000 
     25 C           3.5359  -22.6358  -44.8161 C.2       9 UNK         0.5000 
     26 O           4.0498  -23.5215  -45.5002 O.2       9 UNK        -0.5000 
     27 CA          4.3733  -21.4038  -44.4227 C.3       9 UNK         0.1400 
     28 CB          4.2147  -20.2952  -45.4755 C.3       9 UNK        -0.1800 
     29 N           4.0152  -20.8696  -43.1079 N.am      9 UNK        -0.5000 
     30 C           4.2074  -21.5041  -41.9420 C.2       8 UNK         0.5000 
     31 O           4.7819  -22.5881  -41.8352 O.2       8 UNK        -0.5000 
     32 CA          3.6373  -20.8207  -40.6880 C.3       8 UNK         0.1400 
     33 CB          4.6161  -19.7663  -40.1492 C.3       8 UNK        -0.1800 
     34 N           2.3427  -20.1970  -40.9673 N.am      8 UNK        -0.5000 
     35 C           1.1780  -20.8610  -40.9947 C.2       7 UNK         0.5000 
     36 O           1.0667  -22.0556  -40.7188 O.2       7 UNK        -0.5000 
     37 CA         -0.0757  -20.0664  -41.4109 C.3       7 UNK         0.1400 
     38 CB         -0.7866  -19.4920  -40.1767 C.3       7 UNK        -0.1800 
     39 N           0.2121  -18.9782  -42.3460 N.am      7 UNK        -0.5000 
     40 C           0.5871  -19.1550  -43.6194 C.2       6 UNK         0.5000 
     41 O           0.7169  -20.2588  -44.1480 O.2       6 UNK        -0.5000 
     42 CA          0.9101  -17.8849  -44.4250 C.3       6 UNK         0.1400 
     43 CB         -0.3618  -17.3138  -45.0697 C.3       6 UNK        -0.1800 
     44 N           1.5833  -16.8348  -43.6540 N.am      6 UNK        -0.5000 
     45 C           2.7430  -16.9742  -42.9958 C.2       5 UNK         0.5000 
     46 O           3.3407  -18.0476  -42.9008 O.2       5 UNK        -0.5000 
     47 CA          3.3350  -15.6962  -42.3644 C.3       5 UNK         0.1400 
     48 CB          4.6269  -15.9663  -41.5729 C.3       5 UNK        -0.1800 
     49 N           3.6118  -14.6879  -43.3892 N.am      5 UNK        -0.5000 
     50 C           2.6952  -13.8721  -43.9213 C.2       4 UNK         0.5000 
     51 O           1.5209  -13.8474  -43.5443 O.2       4 UNK        -0.5000 
     52 CA          3.1654  -12.9638  -45.0693 C.3       4 UNK         0.1400 
     53 CB          3.6770  -13.7812  -46.2691 C.3       4 UNK        -0.1800 
     54 N           2.0539  -12.1229  -45.5003 N.am      4 UNK        -0.5000 
     55 C           2.1461  -10.8393  -45.8687 C.2       3 UNK         0.5000 
     56 O           3.2167  -10.2395  -45.9764 O.2       3 UNK        -0.5000 
     57 CA          0.8316  -10.0825  -46.1625 C.3       3 UNK         0.1400 
     58 CB          0.6669   -9.8458  -47.6717 C.3       3 UNK        -0.1800 
     59 N          -0.3634  -10.7622  -45.6593 N.am      3 UNK        -0.5000 
     60 C          -0.6795  -10.9134  -44.3658 C.2       2 UNK         0.5000 
     61 O          -0.0433  -10.3910  -43.4496 O.2       2 UNK        -0.5000 
     62 CA         -1.8980  -11.7997  -44.0281 C.3       2 UNK         0.1400 
     63 CB         -3.0284  -10.9552  -43.4184 C.3       2 UNK        -0.1800 
     64 N          -2.4476  -12.5704  -45.1499 N.am      2 UNK        -0.5000 
     65 C          -1.8187  -13.5442  -45.8214 C.2       1 UNK         0.5000 
     66 O          -0.6485  -13.8689  -45.6222 O.2       1 UNK        -0.5000 
     67 C          -0.9844  -22.5576  -48.4588 C.2       11 UNK         0.5000 
     68 O          -1.7771  -22.5448  -47.5106 O.2       11 UNK        -0.5000 
     69 N          -1.3692  -22.6613  -49.7381 N.am      12 UNK        -0.5000 
     70 CA         -2.7506  -22.8381  -50.1899 C.3       12 UNK         0.1400 
     71 CB         -2.7619  -23.0655  -51.7035 C.3       12 UNK        -0.1800 
     72 C          -3.7063  -21.6933  -49.8051 C.2       12 UNK         0.5000 
     73 O          -4.9175  -21.9131  -49.7944 O.2       12 UNK        -0.5000 
     74 N          -3.1570  -20.5176  -49.4708 N.am      13 UNK        -0.5000 
     75 CA         -3.8840  -19.3837  -48.9042 C.3       13 UNK         0.1400 
     76 CB         -2.9603  -18.1573  -48.8638 C.3       13 UNK        -0.1800 
     77 C          -4.4209  -19.6760  -47.4924 C.2       13 UNK         0.5000 
     78 O          -5.5615  -19.3263  -47.1914 O.2       13 UNK        -0.5000 
     79 N          -3.5912  -20.3172  -46.6575 N.am      14 UNK        -0.5000 
     80 CA         -3.9333  -20.6981  -45.2875 C.3       14 UNK         0.1400 
     81 CB         -2.6479  -20.8478  -44.4622 C.3       14 UNK        -0.1800 
     82 C          -4.7700  -21.9850  -45.2431 C.2       14 UNK         0.5000 
     83 O          -5.6724  -22.0929  -44.4124 O.2       14 UNK        -0.5000 
     84 N          -4.4762  -22.9254  -46.1519 N.am      15 UNK        -0.5000 
     85 CA         -5.2241  -24.1755  -46.3083 C.3       15 UNK         0.1400 
     86 CB         -4.3717  -25.1709  -47.1096 C.3       15 UNK        -0.1800 
     87 C          -6.6008  -23.9858  -46.9800 C.2       15 UNK         0.5000 
     88 O          -7.4419  -24.8792  -46.8773 O.2       15 UNK        -0.5000 
     89 N          -6.7920  -22.8476  -47.6673 N.am      16 UNK        -0.5000 
     90 CA         -7.9475  -22.4809  -48.4962 C.3       16 UNK         0.1400 
     91 CB         -9.2148  -22.3050  -47.6345 C.3       16 UNK        -0.1800 
     92 C          -8.1413  -23.4508  -49.6826 C.2       16 UNK         0.5000 
     93 O          -9.2695  -23.8167  -50.0175 O.2       16 UNK        -0.5000 
     94 N          -7.0165  -23.8654  -50.2779 N.am      17 UNK        -0.5000 
     95 CA         -6.9408  -24.8823  -51.3272 C.3       17 UNK         0.1400 
     96 CB         -5.7253  -25.7803  -51.0421 C.3       17 UNK        -0.1800 
     97 C          -6.8468  -24.2839  -52.7427 C.2       17 UNK         0.5000 
     98 O          -6.9941  -25.0305  -53.7112 O.2       17 UNK        -0.5000 
     99 N          -6.5935  -22.9687  -52.8414 N.am      18 UNK        -0.5000 
    100 CA        -6.3271  -22.1899  -54.0577 C.3       18 UNK         0.1400 
    101 CB        -7.5225  -22.2048  -55.0341 C.3       18 UNK        -0.1800 
    102 C         -4.9986  -22.6088  -54.7171 C.2       18 UNK         0.5000 
    103 O         -3.9836  -21.9401  -54.5073 O.2       18 UNK        -0.5000 
    104 N         -5.0320  -23.7153  -55.4746 N.am      19 UNK        -0.5000 
    105 CA        -3.9080  -24.4875  -56.0270 C.3       19 UNK         0.1400 
    106 CB        -3.1639  -25.1926  -54.8750 C.3       19 UNK        -0.1800 
    107 C         -2.9262  -23.7113  -56.9340 C.2       19 UNK         0.5000 
    108 O         -1.8289  -24.2074  -57.1944 O.2       19 UNK        -0.5000 
    109 N         -3.3170  -22.5052  -57.3733 N.am      20 UNK        -0.5000 
    110 CA        -2.4807  -21.4881  -58.0247 C.3       20 UNK         0.1400 
    111 CB        -2.0323  -21.9508  -59.4270 C.3       20 UNK        -0.1800 
    112 C         -1.3031  -21.0183  -57.1356 C.2       20 UNK         0.5000 
    113 O         -0.2655  -20.6031  -57.6546 O.2       20 UNK        -0.5000 
    114 N         -1.4910  -21.0880  -55.8107 N.am      21 UNK        -0.5000 
    115 CA        -0.5087  -20.7507  -54.7817 C.3       21 UNK         0.1400 
    116 CB         0.0848  -22.0477  -54.2019 C.3       21 UNK        -0.1800 
    117 C         -1.1518  -19.8428  -53.7187 C.2       21 UNK         0.5000 
    118 O         -0.9027  -20.0072  -52.5233 O.2       21 UNK        -0.5000 
    119 N         -1.9754  -18.8995  -54.1945 N.am      22 UNK        -0.5000 
    120 CA        -2.6945  -17.8702  -53.4226 C.3       22 UNK         0.1400 
    121 C         -3.8870  -18.3921  -52.5676 C.2       22 UNK         0.5000 
    122 N         -4.2676  -19.6598  -52.6413 N.am      22 UNK        -0.7600 
    123 O         -4.5121  -17.6201  -51.8465 O.2       22 UNK        -0.5000 
    124 C124       -1.7560  -16.9479  -52.5953 C.3       23 UNK        -0.0398 
    125 S125       -0.4857  -16.1104  -53.6078 S.3       23 UNK        -0.2404 
    126 C126        1.0627  -16.7759  -52.9024 C.3       23 UNK        -0.0205 
    127 H127       -5.5833  -17.2108  -45.2001 H         1 UNK         0.0600 
    128 H128       -3.8712  -17.5697  -44.9481 H         1 UNK         0.0600 
    129 H129       -4.7779  -16.6949  -43.7134 H         1 UNK         0.0600 
    130 H130       -2.6903  -16.3309  -46.3512 H         1 UNK         0.3000 
    131 H131       -3.4672  -13.6430  -47.2042 H         1 UNK         0.0600 
    132 H132       -2.5057  -15.1981  -48.8403 H         1 UNK         0.0800 
    133 H133       -1.0920  -15.4330  -47.8617 H         1 UNK         0.0800 
    134 H134        0.9808  -13.6405  -47.8403 H         1 UNK         0.0800 
    135 H135        1.2708  -12.9249  -49.4060 H         1 UNK         0.0800 
    136 H136        0.6748  -14.4463  -51.5057 H         1 UNK         0.1150 
    137 H137        1.7588  -18.5638  -50.9628 H         1 UNK         0.1150 
    138 H138        1.4533  -15.9622  -47.5768 H         1 UNK         0.1150 
    139 H139        2.9065  -19.0706  -48.7158 H         1 UNK         0.0800 
    140 H140        2.5104  -18.1025  -47.3331 H         1 UNK         0.0800 
    141 H141        2.1888  -21.1929  -48.8450 H         1 UNK         0.0800 
    142 H142        0.7901  -20.9386  -49.8390 H         1 UNK         0.0800 
    143 H143        1.0032  -23.2352  -48.7725 H         1 UNK         0.0600 
    144 H144        1.0205  -21.7322  -46.2883 H         1 UNK         0.3000 
    145 H145        0.3322  -23.3063  -44.1559 H         1 UNK         0.0600 
    146 H146        1.8370  -24.9136  -42.9625 H         1 UNK         0.0600 
    147 H147        0.7800  -25.7264  -44.1059 H         1 UNK         0.0600 
    148 H148        2.4718  -25.4725  -44.5098 H         1 UNK         0.0600 
    149 H149        1.9291  -21.8228  -43.9064 H         1 UNK         0.3000 
    150 H150        5.4225  -21.7046  -44.3924 H         1 UNK         0.0600 
    151 H151        4.5268  -20.6439  -46.4607 H         1 UNK         0.0600 
    152 H152        4.8223  -19.4243  -45.2289 H         1 UNK         0.0600 
    153 H153        3.1785  -19.9677  -45.5587 H         1 UNK         0.0600 
    154 H154        3.5995  -19.9427  -43.0900 H         1 UNK         0.3000 
    155 H155        3.5063  -21.5819  -39.9158 H         1 UNK         0.0600 
    156 H156        4.8547  -19.0137  -40.9003 H         1 UNK         0.0600 
    157 H157        5.5554  -20.2305  -39.8463 H         1 UNK         0.0600 
    158 H158        4.2088  -19.2557  -39.2765 H         1 UNK         0.0600 
    159 H159        2.3630  -19.2328  -41.2698 H         1 UNK         0.3000 
    160 H160       -0.7575  -20.7642  -41.9019 H         1 UNK         0.0600 
    161 H161       -1.0391  -20.2824  -39.4685 H         1 UNK         0.0600 
    162 H162       -1.7171  -18.9959  -40.4530 H         1 UNK         0.0600 
    163 H163       -0.1616  -18.7683  -39.6521 H         1 UNK         0.0600 
    164 H164        0.1365  -18.0361  -41.9916 H         1 UNK         0.3000 
    165 H165        1.5907  -18.1807  -45.2224 H         1 UNK         0.0600 
    166 H166       -0.1179  -16.5071  -45.7596 H         1 UNK         0.0600 
    167 H167       -0.8909  -18.0774  -45.6414 H         1 UNK         0.0600 
    168 H168       -1.0521  -16.9206  -44.3225 H         1 UNK         0.0600 
    169 H169        1.1785  -15.9051  -43.6966 H         1 UNK         0.3000 
    170 H170        2.5952  -15.3054  -41.6625 H         1 UNK         0.0600 
    171 H171        4.4407  -16.6559  -40.7493 H         1 UNK         0.0600 
    172 H172        5.0222  -15.0480  -41.1385 H         1 UNK         0.0600 
    173 H173        5.4048  -16.4020  -42.2013 H         1 UNK         0.0600 
    174 H174        4.5508  -14.6782  -43.7604 H         1 UNK         0.3000 
    175 H175        3.9748  -12.3415  -44.6822 H         1 UNK         0.0600 
    176 H176        3.9271  -13.1355  -47.1111 H         1 UNK         0.0600 
    177 H177        4.5776  -14.3403  -46.0145 H         1 UNK         0.0600 
    178 H178        2.9316  -14.4989  -46.6083 H         1 UNK         0.0600 
    179 H179        1.1374  -12.5418  -45.3725 H         1 UNK         0.3000 
    180 H180        0.9009   -9.1100  -45.6709 H         1 UNK         0.0600 
    181 H181        0.5815  -10.7843  -48.2188 H         1 UNK         0.0600 
    182 H182        1.5224   -9.3056  -48.0792 H         1 UNK         0.0600 
    183 H183       -0.2219   -9.2513  -47.8839 H         1 UNK         0.0600 
    184 H184       -0.9384  -11.2309  -46.3434 H         1 UNK         0.3000 
    185 H185       -1.5630  -12.5159  -43.2749 H         1 UNK         0.0600 
    186 H186       -3.4189  -10.2314  -44.1348 H         1 UNK         0.0600 
    187 H187       -3.8564  -11.5829  -43.0884 H         1 UNK         0.0600 
    188 H188       -2.6790  -10.3993  -42.5472 H         1 UNK         0.0600 
    189 H189       -3.4228  -12.4061  -45.3587 H         1 UNK         0.3000 
    190 H190       -0.6700  -22.6406  -50.4663 H         1 UNK         0.3000 
    191 H191       -3.1277  -23.7445  -49.7180 H         1 UNK         0.0600 
    192 H192       -2.1235  -23.9034  -51.9825 H         1 UNK         0.0600 
    193 H193       -2.4212  -22.1824  -52.2407 H         1 UNK         0.0600 
    194 H194       -3.7671  -23.2922  -52.0567 H         1 UNK         0.0600 
    195 H195       -2.1563  -20.4197  -49.5558 H         1 UNK         0.3000 
    196 H196       -4.7337  -19.1620  -49.5527 H         1 UNK         0.0600 
    197 H197       -3.5130  -17.2825  -48.5227 H         1 UNK         0.0600 
    198 H198       -2.5623  -17.9254  -49.8498 H         1 UNK         0.0600 
    199 H199       -2.1144  -18.3016  -48.1908 H         1 UNK         0.0600 
    200 H200       -2.7001  -20.6478  -47.0067 H         1 UNK         0.3000 
    201 H201       -4.5313  -19.9046  -44.8351 H         1 UNK         0.0600 
    202 H202       -2.1224  -19.8967  -44.3968 H         1 UNK         0.0600 
    203 H203       -1.9656  -21.5801  -44.8960 H         1 UNK         0.0600 
    204 H204       -2.8694  -21.1655  -43.4427 H         1 UNK         0.0600 
    205 H205       -3.6726  -22.7838  -46.7553 H         1 UNK         0.3000 
    206 H206       -5.3955  -24.5993  -45.3165 H         1 UNK         0.0600 
    207 H207       -3.3782  -25.2867  -46.6755 H         1 UNK         0.0600 
    208 H208       -4.8383  -26.1566  -47.1245 H         1 UNK         0.0600 
    209 H209       -4.2542  -24.8546  -48.1443 H         1 UNK         0.0600 
    210 H210       -6.0153  -22.2027  -47.7154 H         1 UNK         0.3000 
    211 H211       -7.7104  -21.5099  -48.9335 H         1 UNK         0.0600 
    212 H212       -9.5537  -23.2504  -47.2103 H         1 UNK         0.0600 
    213 H213      -10.0360  -21.9006  -48.2272 H         1 UNK         0.0600 
    214 H214       -9.0372  -21.6123  -46.8118 H         1 UNK         0.0600 
    215 H215       -6.1437  -23.4474  -49.9720 H         1 UNK         0.3000 
    216 H216       -7.8341  -25.5098  -51.3006 H         1 UNK         0.0600 
    217 H217       -5.6390  -26.5728  -51.7866 H         1 UNK         0.0600 
    218 H218       -5.8130  -26.2606  -50.0672 H         1 UNK         0.0600 
    219 H219       -4.7925  -25.2175  -51.0535 H         1 UNK         0.0600 
    220 H220       -6.4872  -22.4636  -51.9730 H         1 UNK         0.3000 
    221 H221       -6.2064  -21.1564  -53.7357 H         1 UNK         0.0600 
    222 H222       -7.7592  -23.2023  -55.4033 H         1 UNK         0.0600 
    223 H223       -8.4188  -21.8111  -54.5548 H         1 UNK         0.0600 
    224 H224       -7.3196  -21.5772  -55.9026 H         1 UNK         0.0600 
    225 H225       -5.9273  -24.1854  -55.5253 H         1 UNK         0.3000 
    226 H226       -4.3537  -25.2588  -56.6564 H         1 UNK         0.0600 
    227 H227       -3.8556  -25.7229  -54.2200 H         1 UNK         0.0600 
    228 H228       -2.4517  -25.9262  -55.2544 H         1 UNK         0.0600 
    229 H229       -2.6059  -24.4794  -54.2689 H         1 UNK         0.0600 
    230 H230       -4.2383  -22.1985  -57.0955 H         1 UNK         0.3000 
    231 H231       -3.1194  -20.6141  -58.1586 H         1 UNK         0.0600 
    232 H232       -2.8824  -22.2809  -60.0238 H         1 UNK         0.0600 
    233 H233       -1.3181  -22.7729  -59.3757 H         1 UNK         0.0600 
    234 H234       -1.5521  -21.1370  -59.9715 H         1 UNK         0.0600 
    235 H235       -2.3844  -21.4274  -55.4621 H         1 UNK         0.3000 
    236 H236        0.3080  -20.1699  -55.2148 H         1 UNK         0.0600 
    237 H237        0.8133  -21.8362  -53.4183 H         1 UNK         0.0600 
    238 H238       -0.6875  -22.6877  -53.7768 H         1 UNK         0.0600 
    239 H239        0.5977  -22.6202  -54.9748 H         1 UNK         0.0600 
    240 H240       -2.1227  -18.8704  -55.1925 H         1 UNK         0.3000 
    241 H241       -3.1682  -17.2410  -54.1766 H         1 UNK         0.0600 
    242 H242       -5.0368  -19.9584  -52.0673 H         1 UNK         0.3800 
    243 H243       -3.8112  -20.3143  -53.2636 H         1 UNK         0.3800 
    244 H244       -2.3295  -16.1632  -52.0992 H         1 UNK         0.0800 
    245 H245       -1.2827  -17.5162  -51.7949 H         1 UNK         0.0800 
    246 H246        1.1131  -17.8430  -53.1229 H         1 UNK         0.0800 
    247 H247        1.9091  -16.3144  -53.4121 H         1 UNK         0.0800 
@<TRIPOS>BOND
     1    1    2 1    
     2    1  127 1    
     3    1  128 1    
     4    1  129 1    
     5    2    3 2    
     6    2    4 am   BACKBONE|DICT|INTERRES
     7    4    5 1    
     8    4  130 1    
     9    5    6 1    
    10    5   65 1    
    11    5  131 1    
    12    6    7 1    
    13    6  132 1    
    14    6  133 1    
    15    7    8 1    
    16    8    9 1    
    17    8  134 1    
    18    8  135 1    
    19    9   10 ar   
    20    9   14 ar   
    21   10   11 ar   
    22   10  136 1    
    23   11   12 ar   
    24   11  126 1    
    25   12   13 ar   
    26   12  137 1    
    27   13   14 ar   
    28   13   15 1    
    29   14  138 1    
    30   15   16 1    
    31   15  139 1    
    32   15  140 1    
    33   16   17 1    
    34   17   18 1    
    35   17  141 1    
    36   17  142 1    
    37   18   19 1    
    38   18   67 1    
    39   18  143 1    
    40   19   20 am   BACKBONE|DICT|INTERRES
    41   19  144 1    
    42   20   21 2    
    43   20   22 1    
    44   22   23 1    
    45   22   24 1    
    46   22  145 1    
    47   23  146 1    
    48   23  147 1    
    49   23  148 1    
    50   24   25 am   BACKBONE|DICT|INTERRES
    51   24  149 1    
    52   25   26 2    
    53   25   27 1    
    54   27   28 1    
    55   27   29 1    
    56   27  150 1    
    57   28  151 1    
    58   28  152 1    
    59   28  153 1    
    60   29   30 am   BACKBONE|DICT|INTERRES
    61   29  154 1    
    62   30   31 2    
    63   30   32 1    
    64   32   33 1    
    65   32   34 1    
    66   32  155 1    
    67   33  156 1    
    68   33  157 1    
    69   33  158 1    
    70   34   35 am   BACKBONE|DICT|INTERRES
    71   34  159 1    
    72   35   36 2    
    73   35   37 1    
    74   37   38 1    
    75   37   39 1    
    76   37  160 1    
    77   38  161 1    
    78   38  162 1    
    79   38  163 1    
    80   39   40 am   BACKBONE|DICT|INTERRES
    81   39  164 1    
    82   40   41 2    
    83   40   42 1    
    84   42   43 1    
    85   42   44 1    
    86   42  165 1    
    87   43  166 1    
    88   43  167 1    
    89   43  168 1    
    90   44   45 am   BACKBONE|DICT|INTERRES
    91   44  169 1    
    92   45   46 2    
    93   45   47 1    
    94   47   48 1    
    95   47   49 1    
    96   47  170 1    
    97   48  171 1    
    98   48  172 1    
    99   48  173 1    
   100   49   50 am   BACKBONE|DICT|INTERRES
   101   49  174 1    
   102   50   51 2    
   103   50   52 1    
   104   52   53 1    
   105   52   54 1    
   106   52  175 1    
   107   53  176 1    
   108   53  177 1    
   109   53  178 1    
   110   54   55 am   BACKBONE|DICT|INTERRES
   111   54  179 1    
   112   55   56 2    
   113   55   57 1    
   114   57   58 1    
   115   57   59 1    
   116   57  180 1    
   117   58  181 1    
   118   58  182 1    
   119   58  183 1    
   120   59   60 am   BACKBONE|DICT|INTERRES
   121   59  184 1    
   122   60   61 2    
   123   60   62 1    
   124   62   63 1    
   125   62   64 1    
   126   62  185 1    
   127   63  186 1    
   128   63  187 1    
   129   63  188 1    
   130   64   65 am   BACKBONE|DICT|INTERRES
   131   64  189 1    
   132   65   66 2    
   133   67   68 2    
   134   67   69 am   BACKBONE|DICT|INTERRES
   135   69   70 1    
   136   69  190 1    
   137   70   71 1    
   138   70   72 1    
   139   70  191 1    
   140   71  192 1    
   141   71  193 1    
   142   71  194 1    
   143   72   73 2    
   144   72   74 am   BACKBONE|DICT|INTERRES
   145   74   75 1    
   146   74  195 1    
   147   75   76 1    
   148   75   77 1    
   149   75  196 1    
   150   76  197 1    
   151   76  198 1    
   152   76  199 1    
   153   77   78 2    
   154   77   79 am   BACKBONE|DICT|INTERRES
   155   79   80 1    
   156   79  200 1    
   157   80   81 1    
   158   80   82 1    
   159   80  201 1    
   160   81  202 1    
   161   81  203 1    
   162   81  204 1    
   163   82   83 2    
   164   82   84 am   BACKBONE|DICT|INTERRES
   165   84   85 1    
   166   84  205 1    
   167   85   86 1    
   168   85   87 1    
   169   85  206 1    
   170   86  207 1    
   171   86  208 1    
   172   86  209 1    
   173   87   88 2    
   174   87   89 am   BACKBONE|DICT|INTERRES
   175   89   90 1    
   176   89  210 1    
   177   90   91 1    
   178   90   92 1    
   179   90  211 1    
   180   91  212 1    
   181   91  213 1    
   182   91  214 1    
   183   92   93 2    
   184   92   94 am   BACKBONE|DICT|INTERRES
   185   94   95 1    
   186   94  215 1    
   187   95   96 1    
   188   95   97 1    
   189   95  216 1    
   190   96  217 1    
   191   96  218 1    
   192   96  219 1    
   193   97   98 2    
   194   97   99 am   BACKBONE|DICT|INTERRES
   195   99  100 1    
   196   99  220 1    
   197  100  101 1    
   198  100  102 1    
   199  100  221 1    
   200  101  222 1    
   201  101  223 1    
   202  101  224 1    
   203  102  103 2    
   204  102  104 am   BACKBONE|DICT|INTERRES
   205  104  105 1    
   206  104  225 1    
   207  105  106 1    
   208  105  107 1    
   209  105  226 1    
   210  106  227 1    
   211  106  228 1    
   212  106  229 1    
   213  107  108 2    
   214  107  109 am   BACKBONE|DICT|INTERRES
   215  109  110 1    
   216  109  230 1    
   217  110  111 1    
   218  110  112 1    
   219  110  231 1    
   220  111  232 1    
   221  111  233 1    
   222  111  234 1    
   223  112  113 2    
   224  112  114 am   BACKBONE|DICT|INTERRES
   225  114  115 1    
   226  114  235 1    
   227  115  116 1    
   228  115  117 1    
   229  115  236 1    
   230  116  237 1    
   231  116  238 1    
   232  116  239 1    
   233  117  118 2    
   234  117  119 am   BACKBONE|DICT|INTERRES
   235  119  120 1    
   236  119  240 1    
   237  120  121 1    
   238  120  124 1    
   239  120  241 1    
   240  121  122 am   BACKBONE|DICT|INTERRES
   241  121  123 2    
   242  122  242 1    
   243  122  243 1    
   244  124  125 1    
   245  124  244 1    
   246  124  245 1    
   247  125  126 1    
   248  126  246 1    
   249  126  247 1    
@<TRIPOS>SUBSTRUCTURE
     1 UNK         1 GROUP             0       ****    0 ROOT    
