@<TRIPOS>MOLECULE
3R540
247   249    1
SMALL
USER_CHARGES


@<TRIPOS>ATOM
      1 CA          5.5300  -14.4167  -52.5585 C.3       0 UNK        -0.1800 
      2 C           5.6411  -15.9181  -52.3374 C.2       0 UNK         0.5000 
      3 O           6.7430  -16.4328  -52.1454 O.2       0 UNK        -0.5000 
      4 N           4.5041  -16.6229  -52.3396 N.am      1 UNK        -0.5000 
      5 CA          4.3584  -18.0718  -52.1371 C.3       1 UNK         0.1400 
      6 C6          3.0471  -18.5967  -52.7913 C.3       23 UNK        -0.0398 
      7 S7          1.5388  -17.6689  -52.3144 S.3       23 UNK        -0.2404 
      8 C8          0.5968  -18.9191  -51.3850 C.3       23 UNK        -0.0205 
      9 C9         -0.1744  -18.2855  -50.2410 C.ar      23 UNK        -0.0193 
     10 C10        -1.5357  -17.9886  -50.3665 C.ar      23 UNK        -0.1150 
     11 C11        -2.2296  -17.3992  -49.3040 C.ar      23 UNK        -0.0193 
     12 C12        -1.5526  -17.1106  -48.1150 C.ar      23 UNK        -0.1150 
     13 C13        -0.1921  -17.3987  -47.9841 C.ar      23 UNK        -0.0193 
     14 C14         0.4892  -17.9919  -49.0474 C.ar      23 UNK        -0.1150 
     15 C15         0.5526  -17.0217  -46.7164 C.3       23 UNK        -0.0205 
     16 S16         0.3213  -18.2230  -45.3803 S.3       23 UNK        -0.2404 
     17 C17         1.4655  -19.5699  -45.8198 C.3       23 UNK        -0.0398 
     18 CA          0.8116  -20.9721  -45.8335 C.3       11 UNK         0.1400 
     19 N          -0.0477  -21.2334  -44.6731 N.am      11 UNK        -0.5000 
     20 C          -0.4701  -22.4523  -44.3130 C.2       10 UNK         0.5000 
     21 O          -0.1619  -23.4849  -44.9067 O.2       10 UNK        -0.5000 
     22 CA         -1.4304  -22.5294  -43.1190 C.3       10 UNK         0.1400 
     23 CB         -0.6808  -22.3386  -41.7912 C.3       10 UNK        -0.1800 
     24 N          -2.5093  -21.5504  -43.2306 N.am      10 UNK        -0.5000 
     25 C          -3.5469  -21.6696  -44.0705 C.2       9 UNK         0.5000 
     26 O          -3.6723  -22.5971  -44.8701 O.2       9 UNK        -0.5000 
     27 CA         -4.6292  -20.5747  -44.0115 C.3       9 UNK         0.1400 
     28 CB         -5.7151  -20.9480  -42.9914 C.3       9 UNK        -0.1800 
     29 N          -4.1003  -19.2501  -43.6860 N.am      9 UNK        -0.5000 
     30 C          -3.3286  -18.5353  -44.5142 C.2       8 UNK         0.5000 
     31 O          -2.9897  -18.9259  -45.6293 O.2       8 UNK        -0.5000 
     32 CA         -2.8426  -17.1636  -44.0084 C.3       8 UNK         0.1400 
     33 CB         -3.9316  -16.1051  -44.2411 C.3       8 UNK        -0.1800 
     34 N          -2.4022  -17.1127  -42.6070 N.am      8 UNK        -0.5000 
     35 C          -1.5934  -17.9805  -41.9754 C.2       7 UNK         0.5000 
     36 O          -1.2064  -19.0449  -42.4594 O.2       7 UNK        -0.5000 
     37 CA         -1.1336  -17.5670  -40.5664 C.3       7 UNK         0.1400 
     38 CB         -0.0787  -18.5194  -39.9739 C.3       7 UNK        -0.1800 
     39 N          -0.5779  -16.2189  -40.6297 N.am      7 UNK        -0.5000 
     40 C          -0.9063  -15.1938  -39.8326 C.2       6 UNK         0.5000 
     41 O          -1.6891  -15.2884  -38.8866 O.2       6 UNK        -0.5000 
     42 CA         -0.2723  -13.8208  -40.1520 C.3       6 UNK         0.1400 
     43 CB          0.9389  -13.5649  -39.2422 C.3       6 UNK        -0.1800 
     44 N           0.1487  -13.6831  -41.5486 N.am      6 UNK        -0.5000 
     45 C          -0.6747  -13.7106  -42.6051 C.2       5 UNK         0.5000 
     46 O          -1.9015  -13.7032  -42.5030 O.2       5 UNK        -0.5000 
     47 CA         -0.0383  -13.8076  -44.0081 C.3       5 UNK         0.1400 
     48 CB         -0.2017  -12.4841  -44.7701 C.3       5 UNK        -0.1800 
     49 N           1.3760  -14.2018  -44.0531 N.am      5 UNK        -0.5000 
     50 C           1.9184  -15.3250  -43.5630 C.2       4 UNK         0.5000 
     51 O           1.2955  -16.1308  -42.8701 O.2       4 UNK        -0.5000 
     52 CA          3.3997  -15.5793  -43.9199 C.3       4 UNK         0.1400 
     53 CB          3.9404  -16.8767  -43.2929 C.3       4 UNK        -0.1800 
     54 N           3.6037  -15.6464  -45.3684 N.am      4 UNK        -0.5000 
     55 C           3.6462  -14.6179  -46.2214 C.2       3 UNK         0.5000 
     56 O           3.5750  -13.4452  -45.8481 O.2       3 UNK        -0.5000 
     57 CA          3.7416  -14.9505  -47.7325 C.3       3 UNK         0.1400 
     58 CB          3.9427  -13.6934  -48.5988 C.3       3 UNK        -0.1800 
     59 N           4.7651  -15.9314  -48.1121 N.am      3 UNK        -0.5000 
     60 C           4.8208  -17.2355  -47.8049 C.2       2 UNK         0.5000 
     61 O           4.0552  -17.7963  -47.0209 O.2       2 UNK        -0.5000 
     62 CA          5.8855  -18.0429  -48.5725 C.3       2 UNK         0.1400 
     63 CB          6.0441  -19.4909  -48.0613 C.3       2 UNK        -0.1800 
     64 N           5.6059  -18.0035  -50.0133 N.am      2 UNK        -0.5000 
     65 C           4.5222  -18.4771  -50.6493 C.2       1 UNK         0.5000 
     66 O           3.6741  -19.1831  -50.1064 O.2       1 UNK        -0.5000 
     67 C           0.1033  -21.2845  -47.1656 C.2       11 UNK         0.5000 
     68 O           0.7309  -21.8672  -48.0502 O.2       11 UNK        -0.5000 
     69 N          -1.1978  -20.9719  -47.2629 N.am      12 UNK        -0.5000 
     70 CA         -2.0356  -21.3170  -48.4115 C.3       12 UNK         0.1400 
     71 CB         -3.4256  -20.6967  -48.2394 C.3       12 UNK        -0.1800 
     72 C          -2.1624  -22.8353  -48.6271 C.2       12 UNK         0.5000 
     73 O          -2.1202  -23.2907  -49.7718 O.2       12 UNK        -0.5000 
     74 N          -2.3026  -23.5890  -47.5275 N.am      13 UNK        -0.5000 
     75 CA         -2.3404  -25.0494  -47.5290 C.3       13 UNK         0.1400 
     76 CB         -2.8616  -25.5586  -46.1771 C.3       13 UNK        -0.1800 
     77 C          -0.9703  -25.6653  -47.8587 C.2       13 UNK         0.5000 
     78 O          -0.9055  -26.5757  -48.6841 O.2       13 UNK        -0.5000 
     79 N           0.0995  -25.1437  -47.2400 N.am      14 UNK        -0.5000 
     80 CA          1.4821  -25.5911  -47.4357 C.3       14 UNK         0.1400 
     81 CB          2.4016  -24.8830  -46.4300 C.3       14 UNK        -0.1800 
     82 C           1.9931  -25.3830  -48.8730 C.2       14 UNK         0.5000 
     83 O           2.6880  -26.2509  -49.4026 O.2       14 UNK        -0.5000 
     84 N           1.6108  -24.2569  -49.4895 N.am      15 UNK        -0.5000 
     85 CA          1.8915  -23.9401  -50.8909 C.3       15 UNK         0.1400 
     86 CB          1.7120  -22.4283  -51.0964 C.3       15 UNK        -0.1800 
     87 C           1.0038  -24.7160  -51.8855 C.2       15 UNK         0.5000 
     88 O           1.2877  -24.6876  -53.0835 O.2       15 UNK        -0.5000 
     89 N          -0.0647  -25.3574  -51.3845 N.am      16 UNK        -0.5000 
     90 CA         -1.1368  -26.0307  -52.1281 C.3       16 UNK         0.1400 
     91 CB         -0.5998  -27.2649  -52.8817 C.3       16 UNK        -0.1800 
     92 C          -1.9332  -25.0644  -53.0328 C.2       16 UNK         0.5000 
     93 O          -2.4591  -25.4718  -54.0701 O.2       16 UNK        -0.5000 
     94 N          -2.0015  -23.7948  -52.6155 N.am      17 UNK        -0.5000 
     95 CA         -2.7023  -22.7140  -53.3013 C.3       17 UNK         0.1400 
     96 CB         -1.9819  -21.3945  -52.9837 C.3       17 UNK        -0.1800 
     97 C          -4.1796  -22.6423  -52.8796 C.2       17 UNK         0.5000 
     98 O          -5.0214  -22.2767  -53.7008 O.2       17 UNK        -0.5000 
     99 N          -4.4511  -23.0084  -51.6157 N.am      18 UNK        -0.5000 
    100 CA        -5.7359  -22.9589  -50.9091 C.3       18 UNK         0.1400 
    101 CB        -6.7978  -23.8213  -51.6226 C.3       18 UNK        -0.1800 
    102 C         -6.2400  -21.5216  -50.6620 C.2       18 UNK         0.5000 
    103 O         -5.6860  -20.5532  -51.1870 O.2       18 UNK        -0.5000 
    104 N         -7.2889  -21.3995  -49.8362 N.am      19 UNK        -0.5000 
    105 CA        -7.8812  -20.1222  -49.4183 C.3       19 UNK         0.1400 
    106 CB        -8.9961  -20.3916  -48.3975 C.3       19 UNK        -0.1800 
    107 C         -8.4124  -19.2657  -50.5844 C.2       19 UNK         0.5000 
    108 O         -8.4082  -18.0382  -50.4884 O.2       19 UNK        -0.5000 
    109 N         -8.8003  -19.9227  -51.6861 N.am      20 UNK        -0.5000 
    110 CA        -9.2348  -19.3124  -52.9440 C.3       20 UNK         0.1400 
    111 CB        -9.6795  -20.4279  -53.9025 C.3       20 UNK        -0.1800 
    112 C         -8.1757  -18.4146  -53.6190 C.2       20 UNK         0.5000 
    113 O         -8.5472  -17.5517  -54.4154 O.2       20 UNK        -0.5000 
    114 N         -6.8896  -18.6092  -53.2887 N.am      21 UNK        -0.5000 
    115 CA        -5.7861  -17.7698  -53.7572 C.3       21 UNK         0.1400 
    116 CB        -4.4596  -18.5094  -53.5325 C.3       21 UNK        -0.1800 
    117 C         -5.7503  -16.3798  -53.0903 C.2       21 UNK         0.5000 
    118 O         -5.1872  -15.4553  -53.6785 O.2       21 UNK        -0.5000 
    119 N         -6.3434  -16.2536  -51.8954 N.am      22 UNK        -0.5000 
    120 CA        -6.4266  -15.0019  -51.1247 C.3       22 UNK         0.1400 
    121 C         -7.8817  -14.4793  -50.9747 C.2       22 UNK         0.5000 
    122 N         -8.9002  -15.3292  -50.9487 N.am      22 UNK        -0.7600 
    123 O         -8.0934  -13.2723  -50.8933 O.2       22 UNK        -0.5000 
    124 C124       -5.7534  -15.1402  -49.7367 C.3       23 UNK        -0.0398 
    125 S125       -3.9413  -15.3174  -49.8601 S.3       23 UNK        -0.2404 
    126 C126       -3.7088  -17.0679  -49.4290 C.3       23 UNK        -0.0205 
    127 H127        6.0965  -14.1248  -53.4428 H         1 UNK         0.0600 
    128 H128        4.4951  -14.1032  -52.6982 H         1 UNK         0.0600 
    129 H129        5.9344  -13.8801  -51.7002 H         1 UNK         0.0600 
    130 H130        3.6275  -16.1367  -52.4700 H         1 UNK         0.3000 
    131 H131        5.1823  -18.5607  -52.6612 H         1 UNK         0.0600 
    132 H132        2.9169  -19.6638  -52.6047 H         1 UNK         0.0800 
    133 H133        3.1396  -18.5113  -53.8747 H         1 UNK         0.0800 
    134 H134        1.2665  -19.6724  -50.9731 H         1 UNK         0.0800 
    135 H135       -0.0756  -19.4406  -52.0654 H         1 UNK         0.0800 
    136 H136       -2.0518  -18.2095  -51.2900 H         1 UNK         0.1150 
    137 H137       -2.0843  -16.6526  -47.2930 H         1 UNK         0.1150 
    138 H138        1.5435  -18.2116  -48.9540 H         1 UNK         0.1150 
    139 H139        1.6159  -16.9252  -46.9151 H         1 UNK         0.0800 
    140 H140        0.2138  -16.0435  -46.3745 H         1 UNK         0.0800 
    141 H141        2.2673  -19.5570  -45.0809 H         1 UNK         0.0800 
    142 H142        1.9501  -19.3607  -46.7746 H         1 UNK         0.0800 
    143 H143        1.6367  -21.6841  -45.7678 H         1 UNK         0.0600 
    144 H144       -0.3627  -20.4232  -44.1510 H         1 UNK         0.3000 
    145 H145       -1.8736  -23.5277  -43.1103 H         1 UNK         0.0600 
    146 H146       -1.3596  -22.4072  -40.9411 H         1 UNK         0.0600 
    147 H147        0.0806  -23.1088  -41.6629 H         1 UNK         0.0600 
    148 H148       -0.1775  -21.3729  -41.7411 H         1 UNK         0.0600 
    149 H149       -2.4020  -20.6955  -42.6967 H         1 UNK         0.3000 
    150 H150       -5.0955  -20.5213  -44.9978 H         1 UNK         0.0600 
    151 H151       -6.1466  -21.9234  -43.2204 H         1 UNK         0.0600 
    152 H152       -6.5298  -20.2237  -42.9993 H         1 UNK         0.0600 
    153 H153       -5.3160  -20.9952  -41.9774 H         1 UNK         0.0600 
    154 H154       -4.3257  -18.8694  -42.7790 H         1 UNK         0.3000 
    155 H155       -1.9865  -16.8764  -44.6167 H         1 UNK         0.0600 
    156 H156       -4.7976  -16.2706  -43.5993 H         1 UNK         0.0600 
    157 H157       -4.2799  -16.1224  -45.2750 H         1 UNK         0.0600 
    158 H158       -3.5574  -15.1005  -44.0480 H         1 UNK         0.0600 
    159 H159       -2.6407  -16.2646  -42.1124 H         1 UNK         0.3000 
    160 H160       -2.0181  -17.5906  -39.9269 H         1 UNK         0.0600 
    161 H161        0.2216  -18.2017  -38.9754 H         1 UNK         0.0600 
    162 H162        0.8165  -18.5607  -40.5961 H         1 UNK         0.0600 
    163 H163       -0.4699  -19.5338  -39.8884 H         1 UNK         0.0600 
    164 H164        0.0684  -16.0590  -41.4004 H         1 UNK         0.3000 
    165 H165       -1.0242  -13.0555  -39.9490 H         1 UNK         0.0600 
    166 H166        1.3526  -12.5695  -39.4054 H         1 UNK         0.0600 
    167 H167        0.6582  -13.6303  -38.1901 H         1 UNK         0.0600 
    168 H168        1.7326  -14.2927  -39.4161 H         1 UNK         0.0600 
    169 H169        1.1419  -13.6986  -41.7255 H         1 UNK         0.3000 
    170 H170       -0.5981  -14.5764  -44.5438 H         1 UNK         0.0600 
    171 H171       -1.2468  -12.1726  -44.7991 H         1 UNK         0.0600 
    172 H172        0.3686  -11.6805  -44.3027 H         1 UNK         0.0600 
    173 H173        0.1353  -12.5790  -45.8027 H         1 UNK         0.0600 
    174 H174        1.9855  -13.6109  -44.6095 H         1 UNK         0.3000 
    175 H175        3.9804  -14.7458  -43.5200 H         1 UNK         0.0600 
    176 H176        3.4008  -17.7521  -43.6569 H         1 UNK         0.0600 
    177 H177        4.9968  -17.0155  -43.5228 H         1 UNK         0.0600 
    178 H178        3.8437  -16.8579  -42.2067 H         1 UNK         0.0600 
    179 H179        3.6700  -16.5791  -45.7726 H         1 UNK         0.3000 
    180 H180        2.7766  -15.3695  -48.0180 H         1 UNK         0.0600 
    181 H181        4.8957  -13.2077  -48.3858 H         1 UNK         0.0600 
    182 H182        3.1529  -12.9617  -48.4229 H         1 UNK         0.0600 
    183 H183        3.9192  -13.9372  -49.6613 H         1 UNK         0.0600 
    184 H184        5.4647  -15.5830  -48.7503 H         1 UNK         0.3000 
    185 H185        6.8401  -17.5363  -48.4227 H         1 UNK         0.0600 
    186 H186        6.3550  -19.4981  -47.0162 H         1 UNK         0.0600 
    187 H187        5.1144  -20.0569  -48.1240 H         1 UNK         0.0600 
    188 H188        6.8022  -20.0284  -48.6306 H         1 UNK         0.0600 
    189 H189        6.2420  -17.4427  -50.5735 H         1 UNK         0.3000 
    190 H190       -1.6400  -20.4463  -46.5172 H         1 UNK         0.3000 
    191 H191       -1.5731  -20.8870  -49.3020 H         1 UNK         0.0600 
    192 H192       -4.0303  -20.8697  -49.1250 H         1 UNK         0.0600 
    193 H193       -3.9565  -21.1124  -47.3824 H         1 UNK         0.0600 
    194 H194       -3.3643  -19.6200  -48.1027 H         1 UNK         0.0600 
    195 H195       -2.3680  -23.1348  -46.6247 H         1 UNK         0.3000 
    196 H196       -3.0433  -25.3697  -48.3012 H         1 UNK         0.0600 
    197 H197       -2.8989  -26.6485  -46.1575 H         1 UNK         0.0600 
    198 H198       -3.8712  -25.1955  -45.9841 H         1 UNK         0.0600 
    199 H199       -2.2282  -25.2358  -45.3504 H         1 UNK         0.0600 
    200 H200       -0.0449  -24.4218  -46.5380 H         1 UNK         0.3000 
    201 H201        1.5133  -26.6624  -47.2268 H         1 UNK         0.0600 
    202 H202        2.0933  -25.0826  -45.4037 H         1 UNK         0.0600 
    203 H203        2.3997  -23.8031  -46.5779 H         1 UNK         0.0600 
    204 H204        3.4317  -25.2267  -46.5327 H         1 UNK         0.0600 
    205 H205        1.0987  -23.5548  -48.9614 H         1 UNK         0.3000 
    206 H206        2.9311  -24.1945  -51.1073 H         1 UNK         0.0600 
    207 H207        2.3732  -21.8604  -50.4408 H         1 UNK         0.0600 
    208 H208        1.9438  -22.1375  -52.1216 H         1 UNK         0.0600 
    209 H209        0.6870  -22.1170  -50.8894 H         1 UNK         0.0600 
    210 H210       -0.1906  -25.3423  -50.3803 H         1 UNK         0.3000 
    211 H211       -1.8435  -26.3871  -51.3775 H         1 UNK         0.0600 
    212 H212        0.0583  -26.9850  -53.7045 H         1 UNK         0.0600 
    213 H213       -1.4171  -27.8510  -53.3033 H         1 UNK         0.0600 
    214 H214       -0.0424  -27.9215  -52.2135 H         1 UNK         0.0600 
    215 H215       -1.6101  -23.5740  -51.7065 H         1 UNK         0.3000 
    216 H216       -2.6594  -22.8788  -54.3800 H         1 UNK         0.0600 
    217 H217       -2.4146  -20.5677  -53.5455 H         1 UNK         0.0600 
    218 H218       -0.9270  -21.4499  -53.2532 H         1 UNK         0.0600 
    219 H219       -2.0458  -21.1431  -51.9239 H         1 UNK         0.0600 
    220 H220       -3.6558  -23.2557  -51.0362 H         1 UNK         0.3000 
    221 H221       -5.5468  -23.3988  -49.9287 H         1 UNK         0.0600 
    222 H222       -7.1231  -23.3751  -52.5628 H         1 UNK         0.0600 
    223 H223       -6.4135  -24.8178  -51.8409 H         1 UNK         0.0600 
    224 H224       -7.6851  -23.9492  -51.0022 H         1 UNK         0.0600 
    225 H225       -7.6963  -22.2317  -49.4348 H         1 UNK         0.3000 
    226 H226       -7.0982  -19.5428  -48.9245 H         1 UNK         0.0600 
    227 H227       -9.7955  -20.9981  -48.8251 H         1 UNK         0.0600 
    228 H228       -9.4418  -19.4584  -48.0502 H         1 UNK         0.0600 
    229 H229       -8.6111  -20.9115  -47.5200 H         1 UNK         0.0600 
    230 H230       -8.7501  -20.9304  -51.6724 H         1 UNK         0.3000 
    231 H231      -10.0990  -18.6828  -52.7233 H         1 UNK         0.0600 
    232 H232      -10.4925  -21.0156  -53.4757 H         1 UNK         0.0600 
    233 H233       -8.8583  -21.1073  -54.1352 H         1 UNK         0.0600 
    234 H234      -10.0405  -20.0140  -54.8451 H         1 UNK         0.0600 
    235 H235       -6.6489  -19.3421  -52.6295 H         1 UNK         0.3000 
    236 H236       -5.9056  -17.6154  -54.8316 H         1 UNK         0.0600 
    237 H237       -4.4619  -19.4719  -54.0435 H         1 UNK         0.0600 
    238 H238       -3.6180  -17.9344  -53.9207 H         1 UNK         0.0600 
    239 H239       -4.2721  -18.6910  -52.4743 H         1 UNK         0.0600 
    240 H240       -6.8281  -17.0506  -51.5035 H         1 UNK         0.3000 
    241 H241       -5.8961  -14.2105  -51.6577 H         1 UNK         0.0600 
    242 H242       -9.8368  -14.9689  -50.8615 H         1 UNK         0.3800 
    243 H243       -8.7466  -16.3343  -50.9042 H         1 UNK         0.3800 
    244 H244       -6.1800  -15.9787  -49.1835 H         1 UNK         0.0800 
    245 H245       -5.9404  -14.2522  -49.1300 H         1 UNK         0.0800 
    246 H246       -4.1826  -17.6988  -50.1826 H         1 UNK         0.0800 
    247 H247       -4.2099  -17.2818  -48.4835 H         1 UNK         0.0800 
@<TRIPOS>BOND
     1    1    2 1    
     2    1  127 1    
     3    1  128 1    
     4    1  129 1    
     5    2    3 2    
     6    2    4 am   BACKBONE|DICT|INTERRES
     7    4    5 1    
     8    4  130 1    
     9    5    6 1    
    10    5   65 1    
    11    5  131 1    
    12    6    7 1    
    13    6  132 1    
    14    6  133 1    
    15    7    8 1    
    16    8    9 1    
    17    8  134 1    
    18    8  135 1    
    19    9   10 ar   
    20    9   14 ar   
    21   10   11 ar   
    22   10  136 1    
    23   11   12 ar   
    24   11  126 1    
    25   12   13 ar   
    26   12  137 1    
    27   13   14 ar   
    28   13   15 1    
    29   14  138 1    
    30   15   16 1    
    31   15  139 1    
    32   15  140 1    
    33   16   17 1    
    34   17   18 1    
    35   17  141 1    
    36   17  142 1    
    37   18   19 1    
    38   18   67 1    
    39   18  143 1    
    40   19   20 am   BACKBONE|DICT|INTERRES
    41   19  144 1    
    42   20   21 2    
    43   20   22 1    
    44   22   23 1    
    45   22   24 1    
    46   22  145 1    
    47   23  146 1    
    48   23  147 1    
    49   23  148 1    
    50   24   25 am   BACKBONE|DICT|INTERRES
    51   24  149 1    
    52   25   26 2    
    53   25   27 1    
    54   27   28 1    
    55   27   29 1    
    56   27  150 1    
    57   28  151 1    
    58   28  152 1    
    59   28  153 1    
    60   29   30 am   BACKBONE|DICT|INTERRES
    61   29  154 1    
    62   30   31 2    
    63   30   32 1    
    64   32   33 1    
    65   32   34 1    
    66   32  155 1    
    67   33  156 1    
    68   33  157 1    
    69   33  158 1    
    70   34   35 am   BACKBONE|DICT|INTERRES
    71   34  159 1    
    72   35   36 2    
    73   35   37 1    
    74   37   38 1    
    75   37   39 1    
    76   37  160 1    
    77   38  161 1    
    78   38  162 1    
    79   38  163 1    
    80   39   40 am   BACKBONE|DICT|INTERRES
    81   39  164 1    
    82   40   41 2    
    83   40   42 1    
    84   42   43 1    
    85   42   44 1    
    86   42  165 1    
    87   43  166 1    
    88   43  167 1    
    89   43  168 1    
    90   44   45 am   BACKBONE|DICT|INTERRES
    91   44  169 1    
    92   45   46 2    
    93   45   47 1    
    94   47   48 1    
    95   47   49 1    
    96   47  170 1    
    97   48  171 1    
    98   48  172 1    
    99   48  173 1    
   100   49   50 am   BACKBONE|DICT|INTERRES
   101   49  174 1    
   102   50   51 2    
   103   50   52 1    
   104   52   53 1    
   105   52   54 1    
   106   52  175 1    
   107   53  176 1    
   108   53  177 1    
   109   53  178 1    
   110   54   55 am   BACKBONE|DICT|INTERRES
   111   54  179 1    
   112   55   56 2    
   113   55   57 1    
   114   57   58 1    
   115   57   59 1    
   116   57  180 1    
   117   58  181 1    
   118   58  182 1    
   119   58  183 1    
   120   59   60 am   BACKBONE|DICT|INTERRES
   121   59  184 1    
   122   60   61 2    
   123   60   62 1    
   124   62   63 1    
   125   62   64 1    
   126   62  185 1    
   127   63  186 1    
   128   63  187 1    
   129   63  188 1    
   130   64   65 am   BACKBONE|DICT|INTERRES
   131   64  189 1    
   132   65   66 2    
   133   67   68 2    
   134   67   69 am   BACKBONE|DICT|INTERRES
   135   69   70 1    
   136   69  190 1    
   137   70   71 1    
   138   70   72 1    
   139   70  191 1    
   140   71  192 1    
   141   71  193 1    
   142   71  194 1    
   143   72   73 2    
   144   72   74 am   BACKBONE|DICT|INTERRES
   145   74   75 1    
   146   74  195 1    
   147   75   76 1    
   148   75   77 1    
   149   75  196 1    
   150   76  197 1    
   151   76  198 1    
   152   76  199 1    
   153   77   78 2    
   154   77   79 am   BACKBONE|DICT|INTERRES
   155   79   80 1    
   156   79  200 1    
   157   80   81 1    
   158   80   82 1    
   159   80  201 1    
   160   81  202 1    
   161   81  203 1    
   162   81  204 1    
   163   82   83 2    
   164   82   84 am   BACKBONE|DICT|INTERRES
   165   84   85 1    
   166   84  205 1    
   167   85   86 1    
   168   85   87 1    
   169   85  206 1    
   170   86  207 1    
   171   86  208 1    
   172   86  209 1    
   173   87   88 2    
   174   87   89 am   BACKBONE|DICT|INTERRES
   175   89   90 1    
   176   89  210 1    
   177   90   91 1    
   178   90   92 1    
   179   90  211 1    
   180   91  212 1    
   181   91  213 1    
   182   91  214 1    
   183   92   93 2    
   184   92   94 am   BACKBONE|DICT|INTERRES
   185   94   95 1    
   186   94  215 1    
   187   95   96 1    
   188   95   97 1    
   189   95  216 1    
   190   96  217 1    
   191   96  218 1    
   192   96  219 1    
   193   97   98 2    
   194   97   99 am   BACKBONE|DICT|INTERRES
   195   99  100 1    
   196   99  220 1    
   197  100  101 1    
   198  100  102 1    
   199  100  221 1    
   200  101  222 1    
   201  101  223 1    
   202  101  224 1    
   203  102  103 2    
   204  102  104 am   BACKBONE|DICT|INTERRES
   205  104  105 1    
   206  104  225 1    
   207  105  106 1    
   208  105  107 1    
   209  105  226 1    
   210  106  227 1    
   211  106  228 1    
   212  106  229 1    
   213  107  108 2    
   214  107  109 am   BACKBONE|DICT|INTERRES
   215  109  110 1    
   216  109  230 1    
   217  110  111 1    
   218  110  112 1    
   219  110  231 1    
   220  111  232 1    
   221  111  233 1    
   222  111  234 1    
   223  112  113 2    
   224  112  114 am   BACKBONE|DICT|INTERRES
   225  114  115 1    
   226  114  235 1    
   227  115  116 1    
   228  115  117 1    
   229  115  236 1    
   230  116  237 1    
   231  116  238 1    
   232  116  239 1    
   233  117  118 2    
   234  117  119 am   BACKBONE|DICT|INTERRES
   235  119  120 1    
   236  119  240 1    
   237  120  121 1    
   238  120  124 1    
   239  120  241 1    
   240  121  122 am   BACKBONE|DICT|INTERRES
   241  121  123 2    
   242  122  242 1    
   243  122  243 1    
   244  124  125 1    
   245  124  244 1    
   246  124  245 1    
   247  125  126 1    
   248  126  246 1    
   249  126  247 1    
@<TRIPOS>SUBSTRUCTURE
     1 UNK         1 GROUP             0       ****    0 ROOT    
