@<TRIPOS>MOLECULE
3R540
247   249    1
SMALL
USER_CHARGES


@<TRIPOS>ATOM
      1 CA          5.9706  -15.1340  -48.7726 C.3       0 UNK        -0.1800 
      2 C           4.7244  -15.4253  -47.9494 C.2       0 UNK         0.5000 
      3 O           4.5103  -16.5667  -47.5454 O.2       0 UNK        -0.5000 
      4 N           3.9039  -14.3997  -47.7023 N.am      1 UNK        -0.5000 
      5 CA          2.6457  -14.4971  -46.9588 C.3       1 UNK         0.1400 
      6 C6          1.4623  -15.0361  -47.8045 C.3       23 UNK        -0.0398 
      7 S7          1.1407  -14.1223  -49.3569 S.3       23 UNK        -0.2404 
      8 C8          1.8743  -15.2160  -50.6193 C.3       23 UNK        -0.0205 
      9 C9          1.2453  -16.6025  -50.6298 C.ar      23 UNK        -0.0193 
     10 C10        -0.0720  -16.7787  -51.0637 C.ar      23 UNK        -0.1150 
     11 C11        -0.6578  -18.0480  -51.0554 C.ar      23 UNK        -0.0193 
     12 C12         0.0833  -19.1429  -50.6024 C.ar      23 UNK        -0.1150 
     13 C13         1.4092  -18.9852  -50.1894 C.ar      23 UNK        -0.0193 
     14 C14         1.9851  -17.7119  -50.2089 C.ar      23 UNK        -0.1150 
     15 C15         2.2264  -20.1987  -49.7654 C.3       23 UNK        -0.0205 
     16 S16         2.9382  -20.0567  -48.0926 S.3       23 UNK        -0.2404 
     17 C17         1.4698  -19.8162  -47.0398 C.3       23 UNK        -0.0398 
     18 CA          0.6963  -21.1346  -46.7650 C.3       11 UNK         0.1400 
     19 N           0.3477  -21.2866  -45.3501 N.am      11 UNK        -0.5000 
     20 C          -0.2112  -22.3767  -44.8057 C.2       10 UNK         0.5000 
     21 O          -0.4362  -23.4157  -45.4249 O.2       10 UNK        -0.5000 
     22 CA         -0.6435  -22.2638  -43.3344 C.3       10 UNK         0.1400 
     23 CB          0.5287  -22.5714  -42.3909 C.3       10 UNK        -0.1800 
     24 N          -1.1919  -20.9403  -43.0352 N.am      10 UNK        -0.5000 
     25 C          -2.3754  -20.4997  -43.4856 C.2       9 UNK         0.5000 
     26 O          -3.1465  -21.1828  -44.1589 O.2       9 UNK        -0.5000 
     27 CA         -2.7381  -19.0374  -43.1689 C.3       9 UNK         0.1400 
     28 CB         -3.3337  -18.9193  -41.7583 C.3       9 UNK        -0.1800 
     29 N          -1.5973  -18.1284  -43.2923 N.am      9 UNK        -0.5000 
     30 C          -0.9654  -17.8563  -44.4426 C.2       8 UNK         0.5000 
     31 O          -1.2823  -18.3363  -45.5297 O.2       8 UNK        -0.5000 
     32 CA          0.2536  -16.9206  -44.3597 C.3       8 UNK         0.1400 
     33 CB         -0.2118  -15.4587  -44.3845 C.3       8 UNK        -0.1800 
     34 N           1.1055  -17.1296  -43.1848 N.am      8 UNK        -0.5000 
     35 C           1.6389  -18.2968  -42.7928 C.2       7 UNK         0.5000 
     36 O           1.4290  -19.3688  -43.3633 O.2       7 UNK        -0.5000 
     37 CA          2.5575  -18.2332  -41.5559 C.3       7 UNK         0.1400 
     38 CB          3.2132  -19.5850  -41.2065 C.3       7 UNK        -0.1800 
     39 N           3.5572  -17.1703  -41.6849 N.am      7 UNK        -0.5000 
     40 C           4.5269  -17.0643  -42.6059 C.2       6 UNK         0.5000 
     41 O           4.7971  -17.9408  -43.4267 O.2       6 UNK        -0.5000 
     42 CA          5.3121  -15.7389  -42.6429 C.3       6 UNK         0.1400 
     43 CB          4.9748  -14.9738  -43.9275 C.3       6 UNK        -0.1800 
     44 N           5.0073  -14.8717  -41.5032 N.am      6 UNK        -0.5000 
     45 C           5.6963  -14.8505  -40.3550 C.2       5 UNK         0.5000 
     46 O           6.7098  -15.5190  -40.1493 O.2       5 UNK        -0.5000 
     47 CA          5.1386  -13.9512  -39.2350 C.3       5 UNK         0.1400 
     48 CB          5.6974  -12.5254  -39.3549 C.3       5 UNK        -0.1800 
     49 N           3.6746  -13.8981  -39.2259 N.am      5 UNK        -0.5000 
     50 C           2.8762  -14.9351  -38.9329 C.2       4 UNK         0.5000 
     51 O           3.2936  -16.0450  -38.6042 O.2       4 UNK        -0.5000 
     52 CA          1.3569  -14.7172  -39.0633 C.3       4 UNK         0.1400 
     53 CB          0.7398  -14.4044  -37.6920 C.3       4 UNK        -0.1800 
     54 N           0.9854  -13.6595  -40.0055 N.am      4 UNK        -0.5000 
     55 C           1.2079  -13.6802  -41.3262 C.2       3 UNK         0.5000 
     56 O           1.7762  -14.6141  -41.9000 O.2       3 UNK        -0.5000 
     57 CA          0.6883  -12.4714  -42.1380 C.3       3 UNK         0.1400 
     58 CB          0.4719  -11.1996  -41.2869 C.3       3 UNK        -0.1800 
     59 N           1.5163  -12.1534  -43.3042 N.am      3 UNK        -0.5000 
     60 C           2.8178  -11.8384  -43.3246 C.2       2 UNK         0.5000 
     61 O           3.5432  -11.8498  -42.3278 O.2       2 UNK        -0.5000 
     62 CA          3.3945  -11.4626  -44.7091 C.3       2 UNK         0.1400 
     63 CB          4.8112  -10.8678  -44.6153 C.3       2 UNK        -0.1800 
     64 N           3.4277  -12.6102  -45.6170 N.am      2 UNK        -0.5000 
     65 C           2.3673  -13.1839  -46.2025 C.2       1 UNK         0.5000 
     66 O           1.2253  -12.7276  -46.1278 O.2       1 UNK        -0.5000 
     67 C          -0.5516  -21.2577  -47.6646 C.2       11 UNK         0.5000 
     68 O          -0.5493  -22.0401  -48.6156 O.2       11 UNK        -0.5000 
     69 N          -1.6145  -20.5198  -47.3135 N.am      12 UNK        -0.5000 
     70 CA         -2.9114  -20.5590  -47.9850 C.3       12 UNK         0.1400 
     71 CB         -3.8277  -19.4675  -47.4152 C.3       12 UNK        -0.1800 
     72 C          -3.5828  -21.9395  -47.9064 C.2       12 UNK         0.5000 
     73 O          -4.1178  -22.3984  -48.9138 O.2       12 UNK        -0.5000 
     74 N          -3.5058  -22.5957  -46.7395 N.am      13 UNK        -0.5000 
     75 CA         -3.9952  -23.9589  -46.5272 C.3       13 UNK         0.1400 
     76 CB         -3.9253  -24.3152  -45.0352 C.3       13 UNK        -0.1800 
     77 C          -3.2463  -25.0020  -47.3774 C.2       13 UNK         0.5000 
     78 O          -3.8901  -25.8739  -47.9606 O.2       13 UNK        -0.5000 
     79 N          -1.9150  -24.8713  -47.4750 N.am      14 UNK        -0.5000 
     80 CA         -1.0550  -25.7079  -48.3173 C.3       14 UNK         0.1400 
     81 CB          0.4193  -25.4247  -47.9910 C.3       14 UNK        -0.1800 
     82 C          -1.3291  -25.5250  -49.8231 C.2       14 UNK         0.5000 
     83 O          -1.3026  -26.5038  -50.5697 O.2       14 UNK        -0.5000 
     84 N          -1.6266  -24.2847  -50.2327 N.am      15 UNK        -0.5000 
     85 CA         -2.0579  -23.9241  -51.5861 C.3       15 UNK         0.1400 
     86 CB         -1.8744  -22.4094  -51.7679 C.3       15 UNK        -0.1800 
     87 C          -3.5126  -24.3313  -51.9059 C.2       15 UNK         0.5000 
     88 O          -3.9028  -24.2915  -53.0734 O.2       15 UNK        -0.5000 
     89 N          -4.2828  -24.6896  -50.8681 N.am      16 UNK        -0.5000 
     90 CA         -5.7157  -24.9991  -50.8654 C.3       16 UNK         0.1400 
     91 CB         -6.0169  -26.2692  -51.6865 C.3       16 UNK        -0.1800 
     92 C          -6.6048  -23.7894  -51.2317 C.2       16 UNK         0.5000 
     93 O          -7.7190  -23.9721  -51.7236 O.2       16 UNK        -0.5000 
     94 N          -6.1034  -22.5829  -50.9293 N.am      17 UNK        -0.5000 
     95 CA         -6.7309  -21.2704  -51.0823 C.3       17 UNK         0.1400 
     96 CB         -7.8314  -21.0936  -50.0121 C.3       17 UNK        -0.1800 
     97 C          -7.1928  -20.9649  -52.5264 C.2       17 UNK         0.5000 
     98 O          -6.4916  -21.3096  -53.4818 O.2       17 UNK        -0.5000 
     99 N          -8.3335  -20.2735  -52.6541 N.am      18 UNK        -0.5000 
    100 CA        -8.9758  -19.9190  -53.9178 C.3       18 UNK         0.1400 
    101 CB       -10.0981  -18.9078  -53.6378 C.3       18 UNK        -0.1800 
    102 C         -9.5308  -21.1563  -54.6466 C.2       18 UNK         0.5000 
    103 O         -9.9206  -22.1297  -53.9980 O.2       18 UNK        -0.5000 
    104 N         -9.5638  -21.0780  -55.9847 N.am      19 UNK        -0.5000 
    105 CA        -9.9234  -22.1523  -56.9232 C.3       19 UNK         0.1400 
    106 CB       -11.3961  -22.5824  -56.7528 C.3       19 UNK        -0.1800 
    107 C         -8.9374  -23.3437  -56.8941 C.2       19 UNK         0.5000 
    108 O         -9.2997  -24.4577  -57.2771 O.2       19 UNK        -0.5000 
    109 N         -7.7007  -23.0742  -56.4637 N.am      20 UNK        -0.5000 
    110 CA        -6.5746  -23.9978  -56.4256 C.3       20 UNK         0.1400 
    111 CB        -6.5138  -24.6896  -55.0538 C.3       20 UNK        -0.1800 
    112 C         -5.3073  -23.2130  -56.8060 C.2       20 UNK         0.5000 
    113 O         -5.3730  -22.3896  -57.7232 O.2       20 UNK        -0.5000 
    114 N         -4.1804  -23.4421  -56.1157 N.am      21 UNK        -0.5000 
    115 CA        -2.8891  -22.8152  -56.4272 C.3       21 UNK         0.1400 
    116 CB        -1.7673  -23.5251  -55.6554 C.3       21 UNK        -0.1800 
    117 C         -2.8537  -21.2905  -56.1915 C.2       21 UNK         0.5000 
    118 O         -2.0259  -20.6117  -56.8010 O.2       21 UNK        -0.5000 
    119 N         -3.7683  -20.7823  -55.3567 N.am      22 UNK        -0.5000 
    120 CA        -4.0308  -19.3498  -55.1475 C.3       22 UNK         0.1400 
    121 C         -5.4109  -18.9134  -55.7249 C.2       22 UNK         0.5000 
    122 N         -6.0182  -19.6612  -56.6416 N.am      22 UNK        -0.7600 
    123 O         -5.9332  -17.8607  -55.3689 O.2       22 UNK        -0.5000 
    124 C124       -3.8257  -18.9412  -53.6641 C.3       23 UNK        -0.0398 
    125 S125       -2.0662  -19.0343  -53.1981 S.3       23 UNK        -0.2404 
    126 C126       -2.0786  -18.2448  -51.5614 C.3       23 UNK        -0.0205 
    127 H127        5.9694  -15.7389  -49.6794 H         1 UNK         0.0600 
    128 H128        6.8645  -15.3786  -48.1990 H         1 UNK         0.0600 
    129 H129        6.0290  -14.0849  -49.0638 H         1 UNK         0.0600 
    130 H130        4.1174  -13.4828  -48.0713 H         1 UNK         0.3000 
    131 H131        2.7946  -15.2228  -46.1561 H         1 UNK         0.0600 
    132 H132        1.6441  -16.0866  -48.0253 H         1 UNK         0.0800 
    133 H133        0.5415  -15.0337  -47.2214 H         1 UNK         0.0800 
    134 H134        1.7435  -14.7580  -51.6005 H         1 UNK         0.0800 
    135 H135        2.9506  -15.2798  -50.4551 H         1 UNK         0.0800 
    136 H136       -0.6388  -15.9244  -51.4065 H         1 UNK         0.1150 
    137 H137       -0.3684  -20.1240  -50.6004 H         1 UNK         0.1150 
    138 H138        3.0090  -17.5862  -49.8844 H         1 UNK         0.1150 
    139 H139        1.6320  -21.1110  -49.8240 H         1 UNK         0.0800 
    140 H140        3.0429  -20.3288  -50.4767 H         1 UNK         0.0800 
    141 H141        0.8363  -19.0295  -47.4545 H         1 UNK         0.0800 
    142 H142        1.8489  -19.4015  -46.1048 H         1 UNK         0.0800 
    143 H143        1.3439  -21.9816  -47.0023 H         1 UNK         0.0600 
    144 H144        0.5411  -20.4972  -44.7417 H         1 UNK         0.3000 
    145 H145       -1.4241  -23.0056  -43.1541 H         1 UNK         0.0600 
    146 H146        0.2275  -22.4934  -41.3462 H         1 UNK         0.0600 
    147 H147        0.8954  -23.5863  -42.5489 H         1 UNK         0.0600 
    148 H148        1.3681  -21.8949  -42.5510 H         1 UNK         0.0600 
    149 H149       -0.5807  -20.2949  -42.5557 H         1 UNK         0.3000 
    150 H150       -3.4982  -18.7225  -43.8871 H         1 UNK         0.0600 
    151 H151       -4.1979  -19.5751  -41.6440 H         1 UNK         0.0600 
    152 H152       -3.6703  -17.9023  -41.5564 H         1 UNK         0.0600 
    153 H153       -2.6100  -19.1929  -40.9895 H         1 UNK         0.0600 
    154 H154       -1.2642  -17.6927  -42.4452 H         1 UNK         0.3000 
    155 H155        0.8689  -17.1023  -45.2429 H         1 UNK         0.0600 
    156 H156       -0.8309  -15.2535  -45.2586 H         1 UNK         0.0600 
    157 H157        0.6377  -14.7795  -44.4172 H         1 UNK         0.0600 
    158 H158       -0.8012  -15.2102  -43.5013 H         1 UNK         0.0600 
    159 H159        1.3615  -16.2897  -42.6710 H         1 UNK         0.3000 
    160 H160        1.9216  -17.9524  -40.7152 H         1 UNK         0.0600 
    161 H161        3.8027  -19.9807  -42.0340 H         1 UNK         0.0600 
    162 H162        2.4561  -20.3301  -40.9609 H         1 UNK         0.0600 
    163 H163        3.8688  -19.4922  -40.3408 H         1 UNK         0.0600 
    164 H164        3.4318  -16.3816  -41.0667 H         1 UNK         0.3000 
    165 H165        6.3767  -15.9811  -42.6568 H         1 UNK         0.0600 
    166 H166        3.9105  -14.7424  -43.9682 H         1 UNK         0.0600 
    167 H167        5.5331  -14.0400  -43.9868 H         1 UNK         0.0600 
    168 H168        5.2216  -15.5606  -44.8132 H         1 UNK         0.0600 
    169 H169        4.1886  -14.2823  -41.5901 H         1 UNK         0.3000 
    170 H170        5.4679  -14.3672  -38.2804 H         1 UNK         0.0600 
    171 H171        6.7880  -12.5311  -39.3370 H         1 UNK         0.0600 
    172 H172        5.3874  -12.0476  -40.2850 H         1 UNK         0.0600 
    173 H173        5.3626  -11.8992  -38.5278 H         1 UNK         0.0600 
    174 H174        3.2499  -13.0269  -39.5096 H         1 UNK         0.3000 
    175 H175        0.9250  -15.6521  -39.4265 H         1 UNK         0.0600 
    176 H176        1.1144  -13.4633  -37.2873 H         1 UNK         0.0600 
    177 H177       -0.3464  -14.3356  -37.7540 H         1 UNK         0.0600 
    178 H178        0.9730  -15.1882  -36.9699 H         1 UNK         0.0600 
    179 H179        0.5142  -12.8575  -39.6126 H         1 UNK         0.3000 
    180 H180       -0.2820  -12.7736  -42.5336 H         1 UNK         0.0600 
    181 H181        1.3868  -10.8888  -40.7807 H         1 UNK         0.0600 
    182 H182       -0.2978  -11.3485  -40.5288 H         1 UNK         0.0600 
    183 H183        0.1411  -10.3670  -41.9081 H         1 UNK         0.0600 
    184 H184        1.0480  -12.2028  -44.2036 H         1 UNK         0.3000 
    185 H185        2.7429  -10.6982  -45.1376 H         1 UNK         0.0600 
    186 H186        4.8228   -9.9897  -43.9683 H         1 UNK         0.0600 
    187 H187        5.5265  -11.5833  -44.2085 H         1 UNK         0.0600 
    188 H188        5.1721  -10.5524  -45.5944 H         1 UNK         0.0600 
    189 H189        4.3251  -13.0600  -45.7229 H         1 UNK         0.3000 
    190 H190       -1.5247  -19.8617  -46.5424 H         1 UNK         0.3000 
    191 H191       -2.7393  -20.3400  -49.0394 H         1 UNK         0.0600 
    192 H192       -3.3909  -18.4779  -47.5511 H         1 UNK         0.0600 
    193 H193       -4.0077  -19.6095  -46.3491 H         1 UNK         0.0600 
    194 H194       -4.7962  -19.4686  -47.9169 H         1 UNK         0.0600 
    195 H195       -3.0998  -22.1264  -45.9365 H         1 UNK         0.3000 
    196 H196       -5.0447  -23.9813  -46.8283 H         1 UNK         0.0600 
    197 H197       -4.3189  -25.3162  -44.8546 H         1 UNK         0.0600 
    198 H198       -4.5150  -23.6214  -44.4359 H         1 UNK         0.0600 
    199 H199       -2.9016  -24.2938  -44.6624 H         1 UNK         0.0600 
    200 H200       -1.4507  -24.1555  -46.9229 H         1 UNK         0.3000 
    201 H201       -1.2609  -26.7512  -48.0694 H         1 UNK         0.0600 
    202 H202        0.6358  -25.6267  -46.9418 H         1 UNK         0.0600 
    203 H203        0.6862  -24.3871  -48.1923 H         1 UNK         0.0600 
    204 H204        1.0796  -26.0555  -48.5872 H         1 UNK         0.0600 
    205 H205       -1.5504  -23.5250  -49.5631 H         1 UNK         0.3000 
    206 H206       -1.4142  -24.4357  -52.3043 H         1 UNK         0.0600 
    207 H207       -0.8216  -22.1356  -51.7062 H         1 UNK         0.0600 
    208 H208       -2.2400  -22.0738  -52.7384 H         1 UNK         0.0600 
    209 H209       -2.4145  -21.8433  -51.0095 H         1 UNK         0.0600 
    210 H210       -3.8541  -24.6681  -49.9521 H         1 UNK         0.3000 
    211 H211       -5.9607  -25.2275  -49.8274 H         1 UNK         0.0600 
    212 H212       -5.8021  -26.1317  -52.7442 H         1 UNK         0.0600 
    213 H213       -5.4223  -27.1117  -51.3334 H         1 UNK         0.0600 
    214 H214       -7.0656  -26.5553  -51.5998 H         1 UNK         0.0600 
    215 H215       -5.2014  -22.5703  -50.4607 H         1 UNK         0.3000 
    216 H216       -5.9458  -20.5450  -50.8650 H         1 UNK         0.0600 
    217 H217       -7.4498  -21.3349  -49.0196 H         1 UNK         0.0600 
    218 H218       -8.6884  -21.7412  -50.2025 H         1 UNK         0.0600 
    219 H219       -8.1885  -20.0641  -49.9686 H         1 UNK         0.0600 
    220 H220       -8.8552  -20.0598  -51.8175 H         1 UNK         0.3000 
    221 H221       -8.2276  -19.4424  -54.5538 H         1 UNK         0.0600 
    222 H222      -10.8680  -19.3301  -52.9906 H         1 UNK         0.0600 
    223 H223       -9.7095  -18.0097  -53.1571 H         1 UNK         0.0600 
    224 H224      -10.5834  -18.5948  -54.5631 H         1 UNK         0.0600 
    225 H225       -9.2605  -20.2175  -56.4181 H         1 UNK         0.3000 
    226 H226       -9.8289  -21.7190  -57.9198 H         1 UNK         0.0600 
    227 H227      -12.0634  -21.7207  -56.7674 H         1 UNK         0.0600 
    228 H228      -11.7051  -23.2438  -57.5629 H         1 UNK         0.0600 
    229 H229      -11.5590  -23.1187  -55.8178 H         1 UNK         0.0600 
    230 H230       -7.4862  -22.1257  -56.1902 H         1 UNK         0.3000 
    231 H231       -6.7041  -24.7623  -57.1941 H         1 UNK         0.0600 
    232 H232       -5.7216  -25.4379  -55.0235 H         1 UNK         0.0600 
    233 H233       -7.4487  -25.2031  -54.8292 H         1 UNK         0.0600 
    234 H234       -6.3343  -23.9715  -54.2535 H         1 UNK         0.0600 
    235 H235       -4.2034  -24.0567  -55.3099 H         1 UNK         0.3000 
    236 H236       -2.7015  -22.9716  -57.4916 H         1 UNK         0.0600 
    237 H237       -1.7454  -24.5914  -55.8805 H         1 UNK         0.0600 
    238 H238       -0.7916  -23.1163  -55.9210 H         1 UNK         0.0600 
    239 H239       -1.8850  -23.4122  -54.5804 H         1 UNK         0.0600 
    240 H240       -4.4195  -21.4113  -54.9054 H         1 UNK         0.3000 
    241 H241       -3.3215  -18.7637  -55.7342 H         1 UNK         0.0600 
    242 H242       -5.5877  -20.5056  -57.0011 H         1 UNK         0.3800 
    243 H243       -6.8682  -19.3197  -57.0571 H         1 UNK         0.3800 
    244 H244       -4.1587  -17.9168  -53.4905 H         1 UNK         0.0800 
    245 H245       -4.4100  -19.5780  -52.9995 H         1 UNK         0.0800 
    246 H246       -2.6421  -18.8632  -50.8629 H         1 UNK         0.0800 
    247 H247       -2.5979  -17.2871  -51.6211 H         1 UNK         0.0800 
@<TRIPOS>BOND
     1    1    2 1    
     2    1  127 1    
     3    1  128 1    
     4    1  129 1    
     5    2    3 2    
     6    2    4 am   BACKBONE|DICT|INTERRES
     7    4    5 1    
     8    4  130 1    
     9    5    6 1    
    10    5   65 1    
    11    5  131 1    
    12    6    7 1    
    13    6  132 1    
    14    6  133 1    
    15    7    8 1    
    16    8    9 1    
    17    8  134 1    
    18    8  135 1    
    19    9   10 ar   
    20    9   14 ar   
    21   10   11 ar   
    22   10  136 1    
    23   11   12 ar   
    24   11  126 1    
    25   12   13 ar   
    26   12  137 1    
    27   13   14 ar   
    28   13   15 1    
    29   14  138 1    
    30   15   16 1    
    31   15  139 1    
    32   15  140 1    
    33   16   17 1    
    34   17   18 1    
    35   17  141 1    
    36   17  142 1    
    37   18   19 1    
    38   18   67 1    
    39   18  143 1    
    40   19   20 am   BACKBONE|DICT|INTERRES
    41   19  144 1    
    42   20   21 2    
    43   20   22 1    
    44   22   23 1    
    45   22   24 1    
    46   22  145 1    
    47   23  146 1    
    48   23  147 1    
    49   23  148 1    
    50   24   25 am   BACKBONE|DICT|INTERRES
    51   24  149 1    
    52   25   26 2    
    53   25   27 1    
    54   27   28 1    
    55   27   29 1    
    56   27  150 1    
    57   28  151 1    
    58   28  152 1    
    59   28  153 1    
    60   29   30 am   BACKBONE|DICT|INTERRES
    61   29  154 1    
    62   30   31 2    
    63   30   32 1    
    64   32   33 1    
    65   32   34 1    
    66   32  155 1    
    67   33  156 1    
    68   33  157 1    
    69   33  158 1    
    70   34   35 am   BACKBONE|DICT|INTERRES
    71   34  159 1    
    72   35   36 2    
    73   35   37 1    
    74   37   38 1    
    75   37   39 1    
    76   37  160 1    
    77   38  161 1    
    78   38  162 1    
    79   38  163 1    
    80   39   40 am   BACKBONE|DICT|INTERRES
    81   39  164 1    
    82   40   41 2    
    83   40   42 1    
    84   42   43 1    
    85   42   44 1    
    86   42  165 1    
    87   43  166 1    
    88   43  167 1    
    89   43  168 1    
    90   44   45 am   BACKBONE|DICT|INTERRES
    91   44  169 1    
    92   45   46 2    
    93   45   47 1    
    94   47   48 1    
    95   47   49 1    
    96   47  170 1    
    97   48  171 1    
    98   48  172 1    
    99   48  173 1    
   100   49   50 am   BACKBONE|DICT|INTERRES
   101   49  174 1    
   102   50   51 2    
   103   50   52 1    
   104   52   53 1    
   105   52   54 1    
   106   52  175 1    
   107   53  176 1    
   108   53  177 1    
   109   53  178 1    
   110   54   55 am   BACKBONE|DICT|INTERRES
   111   54  179 1    
   112   55   56 2    
   113   55   57 1    
   114   57   58 1    
   115   57   59 1    
   116   57  180 1    
   117   58  181 1    
   118   58  182 1    
   119   58  183 1    
   120   59   60 am   BACKBONE|DICT|INTERRES
   121   59  184 1    
   122   60   61 2    
   123   60   62 1    
   124   62   63 1    
   125   62   64 1    
   126   62  185 1    
   127   63  186 1    
   128   63  187 1    
   129   63  188 1    
   130   64   65 am   BACKBONE|DICT|INTERRES
   131   64  189 1    
   132   65   66 2    
   133   67   68 2    
   134   67   69 am   BACKBONE|DICT|INTERRES
   135   69   70 1    
   136   69  190 1    
   137   70   71 1    
   138   70   72 1    
   139   70  191 1    
   140   71  192 1    
   141   71  193 1    
   142   71  194 1    
   143   72   73 2    
   144   72   74 am   BACKBONE|DICT|INTERRES
   145   74   75 1    
   146   74  195 1    
   147   75   76 1    
   148   75   77 1    
   149   75  196 1    
   150   76  197 1    
   151   76  198 1    
   152   76  199 1    
   153   77   78 2    
   154   77   79 am   BACKBONE|DICT|INTERRES
   155   79   80 1    
   156   79  200 1    
   157   80   81 1    
   158   80   82 1    
   159   80  201 1    
   160   81  202 1    
   161   81  203 1    
   162   81  204 1    
   163   82   83 2    
   164   82   84 am   BACKBONE|DICT|INTERRES
   165   84   85 1    
   166   84  205 1    
   167   85   86 1    
   168   85   87 1    
   169   85  206 1    
   170   86  207 1    
   171   86  208 1    
   172   86  209 1    
   173   87   88 2    
   174   87   89 am   BACKBONE|DICT|INTERRES
   175   89   90 1    
   176   89  210 1    
   177   90   91 1    
   178   90   92 1    
   179   90  211 1    
   180   91  212 1    
   181   91  213 1    
   182   91  214 1    
   183   92   93 2    
   184   92   94 am   BACKBONE|DICT|INTERRES
   185   94   95 1    
   186   94  215 1    
   187   95   96 1    
   188   95   97 1    
   189   95  216 1    
   190   96  217 1    
   191   96  218 1    
   192   96  219 1    
   193   97   98 2    
   194   97   99 am   BACKBONE|DICT|INTERRES
   195   99  100 1    
   196   99  220 1    
   197  100  101 1    
   198  100  102 1    
   199  100  221 1    
   200  101  222 1    
   201  101  223 1    
   202  101  224 1    
   203  102  103 2    
   204  102  104 am   BACKBONE|DICT|INTERRES
   205  104  105 1    
   206  104  225 1    
   207  105  106 1    
   208  105  107 1    
   209  105  226 1    
   210  106  227 1    
   211  106  228 1    
   212  106  229 1    
   213  107  108 2    
   214  107  109 am   BACKBONE|DICT|INTERRES
   215  109  110 1    
   216  109  230 1    
   217  110  111 1    
   218  110  112 1    
   219  110  231 1    
   220  111  232 1    
   221  111  233 1    
   222  111  234 1    
   223  112  113 2    
   224  112  114 am   BACKBONE|DICT|INTERRES
   225  114  115 1    
   226  114  235 1    
   227  115  116 1    
   228  115  117 1    
   229  115  236 1    
   230  116  237 1    
   231  116  238 1    
   232  116  239 1    
   233  117  118 2    
   234  117  119 am   BACKBONE|DICT|INTERRES
   235  119  120 1    
   236  119  240 1    
   237  120  121 1    
   238  120  124 1    
   239  120  241 1    
   240  121  122 am   BACKBONE|DICT|INTERRES
   241  121  123 2    
   242  122  242 1    
   243  122  243 1    
   244  124  125 1    
   245  124  244 1    
   246  124  245 1    
   247  125  126 1    
   248  126  246 1    
   249  126  247 1    
@<TRIPOS>SUBSTRUCTURE
     1 UNK         1 GROUP             0       ****    0 ROOT    
