@<TRIPOS>MOLECULE
3R540
247   249    1
SMALL
USER_CHARGES


@<TRIPOS>ATOM
      1 CA          1.6717  -15.3798  -50.9089 C.3       0 UNK        -0.1800 
      2 C           1.3711  -15.4919  -49.4227 C.2       0 UNK         0.5000 
      3 O           2.2597  -15.2882  -48.5970 O.2       0 UNK        -0.5000 
      4 N           0.1125  -15.7799  -49.0663 N.am      1 UNK        -0.5000 
      5 CA         -0.3701  -15.8890  -47.6815 C.3       1 UNK         0.1400 
      6 C6         -1.7623  -16.5610  -47.5825 C.3       23 UNK        -0.0398 
      7 S7         -3.0285  -15.8429  -48.6880 S.3       23 UNK        -0.2404 
      8 C8         -3.3757  -17.2300  -49.8164 C.3       23 UNK        -0.0205 
      9 C9         -2.2610  -17.4411  -50.8288 C.ar      23 UNK        -0.0193 
     10 C10        -2.2259  -16.6828  -52.0012 C.ar      23 UNK        -0.1150 
     11 C11        -1.2110  -16.8787  -52.9412 C.ar      23 UNK        -0.0193 
     12 C12        -0.1897  -17.7935  -52.6698 C.ar      23 UNK        -0.1150 
     13 C13        -0.2285  -18.5806  -51.5167 C.ar      23 UNK        -0.0193 
     14 C14        -1.2806  -18.4126  -50.6114 C.ar      23 UNK        -0.1150 
     15 C15         0.8169  -19.6676  -51.3068 C.3       23 UNK        -0.0205 
     16 S16         2.1848  -19.1904  -50.1963 S.3       23 UNK        -0.2404 
     17 C17         1.4386  -19.1267  -48.5293 C.3       23 UNK        -0.0398 
     18 CA          1.2519  -20.5153  -47.8605 C.3       11 UNK         0.1400 
     19 N           1.4774  -20.4800  -46.4115 N.am      11 UNK        -0.5000 
     20 C           1.6204  -21.5776  -45.6543 C.2       10 UNK         0.5000 
     21 O           1.5905  -22.7251  -46.0996 O.2       10 UNK        -0.5000 
     22 CA          1.7886  -21.3599  -44.1400 C.3       10 UNK         0.1400 
     23 CB          3.2404  -20.9847  -43.8055 C.3       10 UNK        -0.1800 
     24 N           0.8882  -20.3640  -43.5504 N.am      10 UNK        -0.5000 
     25 C          -0.4502  -20.3595  -43.6410 C.2       9 UNK         0.5000 
     26 O          -1.0860  -21.0891  -44.4027 O.2       9 UNK        -0.5000 
     27 CA         -1.1952  -19.3856  -42.6999 C.3       9 UNK         0.1400 
     28 CB         -2.6897  -19.7336  -42.5503 C.3       9 UNK        -0.1800 
     29 N          -0.5848  -19.2547  -41.3697 N.am      9 UNK        -0.5000 
     30 C          -0.2774  -20.2413  -40.5075 C.2       8 UNK         0.5000 
     31 O          -0.4050  -21.4421  -40.7477 O.2       8 UNK        -0.5000 
     32 CA          0.2565  -19.8071  -39.1282 C.3       8 UNK         0.1400 
     33 CB          1.7811  -19.6339  -39.1848 C.3       8 UNK        -0.1800 
     34 N          -0.3597  -18.5683  -38.6474 N.am      8 UNK        -0.5000 
     35 C          -1.6639  -18.4415  -38.3544 C.2       7 UNK         0.5000 
     36 O          -2.4512  -19.3889  -38.3471 O.2       7 UNK        -0.5000 
     37 CA         -2.1995  -17.0323  -38.0282 C.3       7 UNK         0.1400 
     38 CB         -2.4960  -16.9046  -36.5256 C.3       7 UNK        -0.1800 
     39 N          -1.3259  -15.9269  -38.4265 N.am      7 UNK        -0.5000 
     40 C          -0.9320  -15.6268  -39.6717 C.2       6 UNK         0.5000 
     41 O          -1.2276  -16.2929  -40.6659 O.2       6 UNK        -0.5000 
     42 CA         -0.0221  -14.3914  -39.8330 C.3       6 UNK         0.1400 
     43 CB          0.0611  -13.4986  -38.5742 C.3       6 UNK        -0.1800 
     44 N           1.3273  -14.7500  -40.2730 N.am      6 UNK        -0.5000 
     45 C           2.1712  -15.6360  -39.7273 C.2       5 UNK         0.5000 
     46 O           1.8847  -16.3523  -38.7654 O.2       5 UNK        -0.5000 
     47 CA          3.5694  -15.7277  -40.3815 C.3       5 UNK         0.1400 
     48 CB          4.5016  -16.7204  -39.6628 C.3       5 UNK        -0.1800 
     49 N           3.5208  -16.0741  -41.8061 N.am      5 UNK        -0.5000 
     50 C           3.1473  -15.2563  -42.7989 C.2       4 UNK         0.5000 
     51 O           2.7543  -14.1004  -42.6151 O.2       4 UNK        -0.5000 
     52 CA          3.1980  -15.8439  -44.2231 C.3       4 UNK         0.1400 
     53 CB          2.0548  -16.8497  -44.4422 C.3       4 UNK        -0.1800 
     54 N           3.1162  -14.7946  -45.2406 N.am      4 UNK        -0.5000 
     55 C           4.1155  -13.9535  -45.5465 C.2       3 UNK         0.5000 
     56 O           5.2445  -14.0429  -45.0603 O.2       3 UNK        -0.5000 
     57 CA          3.8259  -12.8262  -46.5588 C.3       3 UNK         0.1400 
     58 CB          4.7100  -12.9740  -47.8088 C.3       3 UNK        -0.1800 
     59 N           2.4234  -12.7938  -46.9783 N.am      3 UNK        -0.5000 
     60 C           1.4899  -11.9661  -46.4851 C.2       2 UNK         0.5000 
     61 O           1.7203  -11.1128  -45.6277 O.2       2 UNK        -0.5000 
     62 CA          0.0529  -12.1067  -47.0348 C.3       2 UNK         0.1400 
     63 CB         -0.2186  -11.0399  -48.1065 C.3       2 UNK        -0.1800 
     64 N          -0.2253  -13.4266  -47.6030 N.am      2 UNK        -0.5000 
     65 C          -0.3015  -14.5613  -46.8946 C.2       1 UNK         0.5000 
     66 O          -0.2505  -14.5938  -45.6659 O.2       1 UNK        -0.5000 
     67 C          -0.1288  -21.1184  -48.1866 C.2       11 UNK         0.5000 
     68 O          -0.2226  -21.9965  -49.0414 O.2       11 UNK        -0.5000 
     69 N          -1.1749  -20.6623  -47.4805 N.am      12 UNK        -0.5000 
     70 CA         -2.5526  -21.1256  -47.6660 C.3       12 UNK         0.1400 
     71 CB         -3.5129  -20.2604  -46.8372 C.3       12 UNK        -0.1800 
     72 C          -2.7231  -22.6157  -47.3264 C.2       12 UNK         0.5000 
     73 O          -3.4100  -23.3276  -48.0577 O.2       12 UNK        -0.5000 
     74 N          -2.0484  -23.0639  -46.2597 N.am      13 UNK        -0.5000 
     75 CA         -1.9697  -24.4633  -45.8462 C.3       13 UNK         0.1400 
     76 CB         -1.2662  -24.5488  -44.4831 C.3       13 UNK        -0.1800 
     77 C          -1.2636  -25.3551  -46.8858 C.2       13 UNK         0.5000 
     78 O          -1.7235  -26.4699  -47.1344 O.2       13 UNK        -0.5000 
     79 N          -0.1783  -24.8455  -47.4863 N.am      14 UNK        -0.5000 
     80 CA          0.5764  -25.5219  -48.5422 C.3       14 UNK         0.1400 
     81 CB          1.9357  -24.8299  -48.7286 C.3       14 UNK        -0.1800 
     82 C          -0.1934  -25.5865  -49.8745 C.2       14 UNK         0.5000 
     83 O          -0.2065  -26.6375  -50.5165 O.2       14 UNK        -0.5000 
     84 N          -0.8233  -24.4687  -50.2622 N.am      15 UNK        -0.5000 
     85 CA         -1.6260  -24.3422  -51.4803 C.3       15 UNK         0.1400 
     86 CB         -1.8900  -22.8539  -51.7616 C.3       15 UNK        -0.1800 
     87 C          -2.9549  -25.1164  -51.4178 C.2       15 UNK         0.5000 
     88 O          -3.4508  -25.5441  -52.4606 O.2       15 UNK        -0.5000 
     89 N          -3.5217  -25.2483  -50.2093 N.am      16 UNK        -0.5000 
     90 CA         -4.7886  -25.8905  -49.8324 C.3       16 UNK         0.1400 
     91 CB         -4.8175  -27.3777  -50.2318 C.3       16 UNK        -0.1800 
     92 C          -6.0369  -25.1406  -50.3368 C.2       16 UNK         0.5000 
     93 O          -6.9507  -24.8826  -49.5533 O.2       16 UNK        -0.5000 
     94 N          -6.0373  -24.7696  -51.6218 N.am      17 UNK        -0.5000 
     95 CA         -7.0405  -23.9212  -52.2669 C.3       17 UNK         0.1400 
     96 CB         -7.0449  -24.2339  -53.7706 C.3       17 UNK        -0.1800 
     97 C          -6.7954  -22.4170  -52.0228 C.2       17 UNK         0.5000 
     98 O          -7.6460  -21.6029  -52.3845 O.2       17 UNK        -0.5000 
     99 N          -5.6436  -22.0729  -51.4247 N.am      18 UNK        -0.5000 
    100 CA        -5.1848  -20.7203  -51.1025 C.3       18 UNK         0.1400 
    101 CB        -6.0528  -20.1151  -49.9758 C.3       18 UNK        -0.1800 
    102 C         -5.0661  -19.8450  -52.3676 C.2       18 UNK         0.5000 
    103 O         -4.4871  -20.2990  -53.3574 O.2       18 UNK        -0.5000 
    104 N         -5.6208  -18.6261  -52.3307 N.am      19 UNK        -0.5000 
    105 CA        -5.5530  -17.6190  -53.3951 C.3       19 UNK         0.1400 
    106 CB        -6.1484  -16.3022  -52.8715 C.3       19 UNK        -0.1800 
    107 C         -6.2235  -18.0224  -54.7242 C.2       19 UNK         0.5000 
    108 O         -5.9731  -17.3760  -55.7418 O.2       19 UNK        -0.5000 
    109 N         -7.0495  -19.0782  -54.7097 N.am      20 UNK        -0.5000 
    110 CA        -7.6554  -19.6616  -55.9069 C.3       20 UNK         0.1400 
    111 CB        -8.8215  -20.5705  -55.4910 C.3       20 UNK        -0.1800 
    112 C         -6.6476  -20.4362  -56.7819 C.2       20 UNK         0.5000 
    113 O         -6.9339  -20.6554  -57.9599 O.2       20 UNK        -0.5000 
    114 N         -5.5036  -20.8361  -56.2071 N.am      21 UNK        -0.5000 
    115 CA        -4.4368  -21.5610  -56.8986 C.3       21 UNK         0.1400 
    116 CB        -4.3646  -22.9957  -56.3521 C.3       21 UNK        -0.1800 
    117 C         -3.0731  -20.8684  -56.7515 C.2       21 UNK         0.5000 
    118 O         -2.3022  -20.8577  -57.7116 O.2       21 UNK        -0.5000 
    119 N         -2.7858  -20.3333  -55.5570 N.am      22 UNK        -0.5000 
    120 CA        -1.4904  -19.7660  -55.1424 C.3       22 UNK         0.1400 
    121 C         -0.3169  -20.7954  -55.0769 C.2       22 UNK         0.5000 
    122 N         -0.5761  -22.0974  -55.0494 N.am      22 UNK        -0.7600 
    123 O          0.8490  -20.4156  -55.0163 O.2       22 UNK        -0.5000 
    124 C124       -1.1073  -18.4580  -55.8987 C.3       23 UNK        -0.0398 
    125 S125       -2.2152  -17.0571  -55.5150 S.3       23 UNK        -0.2404 
    126 C126       -1.2451  -16.1381  -54.2689 C.3       23 UNK        -0.0205 
    127 H127        2.1879  -16.2740  -51.2570 H         1 UNK         0.0600 
    128 H128        0.7599  -15.2574  -51.4927 H         1 UNK         0.0600 
    129 H129        2.3116  -14.5184  -51.1002 H         1 UNK         0.0600 
    130 H130       -0.5856  -15.9345  -49.7819 H         1 UNK         0.3000 
    131 H131        0.3282  -16.5508  -47.1658 H         1 UNK         0.0600 
    132 H132       -2.1395  -16.5250  -46.5586 H         1 UNK         0.0800 
    133 H133       -1.6594  -17.6221  -47.8039 H         1 UNK         0.0800 
    134 H134       -3.5491  -18.1392  -49.2412 H         1 UNK         0.0800 
    135 H135       -4.3081  -17.0212  -50.3393 H         1 UNK         0.0800 
    136 H136       -3.0045  -15.9585  -52.1950 H         1 UNK         0.1150 
    137 H137        0.6047  -17.9397  -53.3879 H         1 UNK         0.1150 
    138 H138       -1.3416  -19.0398  -49.7373 H         1 UNK         0.1150 
    139 H139        0.3389  -20.5790  -50.9623 H         1 UNK         0.0800 
    140 H140        1.2570  -19.9336  -52.2690 H         1 UNK         0.0800 
    141 H141        0.5192  -18.5472  -48.5489 H         1 UNK         0.0800 
    142 H142        2.1304  -18.5279  -47.9349 H         1 UNK         0.0800 
    143 H143        2.0038  -21.1926  -48.2725 H         1 UNK         0.0600 
    144 H144        1.5061  -19.5778  -45.9626 H         1 UNK         0.3000 
    145 H145        1.5665  -22.3122  -43.6539 H         1 UNK         0.0600 
    146 H146        3.4009  -20.9505  -42.7277 H         1 UNK         0.0600 
    147 H147        3.9376  -21.7186  -44.2121 H         1 UNK         0.0600 
    148 H148        3.5115  -20.0116  -44.2168 H         1 UNK         0.0600 
    149 H149        1.3047  -19.7352  -42.8811 H         1 UNK         0.3000 
    150 H150       -1.1291  -18.4013  -43.1656 H         1 UNK         0.0600 
    151 H151       -3.2042  -19.6879  -43.5098 H         1 UNK         0.0600 
    152 H152       -3.1913  -19.0325  -41.8829 H         1 UNK         0.0600 
    153 H153       -2.8303  -20.7374  -42.1478 H         1 UNK         0.0600 
    154 H154       -0.4851  -18.3005  -41.0414 H         1 UNK         0.3000 
    155 H155        0.0265  -20.5985  -38.4119 H         1 UNK         0.0600 
    156 H156        2.0687  -18.8867  -39.9245 H         1 UNK         0.0600 
    157 H157        2.2702  -20.5698  -39.4579 H         1 UNK         0.0600 
    158 H158        2.1828  -19.3245  -38.2198 H         1 UNK         0.0600 
    159 H159        0.2329  -17.7459  -38.6135 H         1 UNK         0.3000 
    160 H160       -3.1388  -16.9167  -38.5727 H         1 UNK         0.0600 
    161 H161       -2.9670  -15.9488  -36.2950 H         1 UNK         0.0600 
    162 H162       -1.5861  -16.9848  -35.9294 H         1 UNK         0.0600 
    163 H163       -3.1774  -17.6883  -36.1915 H         1 UNK         0.0600 
    164 H164       -0.9900  -15.3395  -37.6773 H         1 UNK         0.3000 
    165 H165       -0.4614  -13.7945  -40.6336 H         1 UNK         0.0600 
    166 H166        0.6353  -12.5949  -38.7795 H         1 UNK         0.0600 
    167 H167       -0.9296  -13.1775  -38.2495 H         1 UNK         0.0600 
    168 H168        0.5424  -14.0072  -37.7379 H         1 UNK         0.0600 
    169 H169        1.6601  -14.2703  -41.1061 H         1 UNK         0.3000 
    170 H170        4.0204  -14.7374  -40.2875 H         1 UNK         0.0600 
    171 H171        4.5842  -16.4836  -38.6012 H         1 UNK         0.0600 
    172 H172        4.1438  -17.7465  -39.7438 H         1 UNK         0.0600 
    173 H173        5.5088  -16.6846  -40.0785 H         1 UNK         0.0600 
    174 H174        3.8087  -17.0137  -42.0368 H         1 UNK         0.3000 
    175 H175        4.1480  -16.3688  -44.3442 H         1 UNK         0.0600 
    176 H176        2.0613  -17.2372  -45.4608 H         1 UNK         0.0600 
    177 H177        2.1513  -17.7024  -43.7704 H         1 UNK         0.0600 
    178 H178        1.0794  -16.3994  -44.2564 H         1 UNK         0.0600 
    179 H179        2.2032  -14.6140  -45.6316 H         1 UNK         0.3000 
    180 H180        4.0920  -11.8851  -46.0735 H         1 UNK         0.0600 
    181 H181        4.5391  -13.9240  -48.3156 H         1 UNK         0.0600 
    182 H182        5.7680  -12.9292  -47.5475 H         1 UNK         0.0600 
    183 H183        4.5195  -12.1732  -48.5235 H         1 UNK         0.0600 
    184 H184        2.1582  -13.4975  -47.6597 H         1 UNK         0.3000 
    185 H185       -0.6355  -11.9409  -46.2034 H         1 UNK         0.0600 
    186 H186       -0.0516  -10.0371  -47.7110 H         1 UNK         0.0600 
    187 H187        0.4333  -11.1642  -48.9721 H         1 UNK         0.0600 
    188 H188       -1.2512  -11.0828  -48.4536 H         1 UNK         0.0600 
    189 H189       -0.2794  -13.4877  -48.6092 H         1 UNK         0.3000 
    190 H190       -1.0096  -20.0334  -46.7093 H         1 UNK         0.3000 
    191 H191       -2.8055  -20.9966  -48.7197 H         1 UNK         0.0600 
    192 H192       -3.3239  -20.3626  -45.7693 H         1 UNK         0.0600 
    193 H193       -4.5486  -20.5530  -47.0131 H         1 UNK         0.0600 
    194 H194       -3.4265  -19.2053  -47.0923 H         1 UNK         0.0600 
    195 H195       -1.5494  -22.3884  -45.6853 H         1 UNK         0.3000 
    196 H196       -2.9901  -24.8335  -45.7279 H         1 UNK         0.0600 
    197 H197       -0.2455  -24.1684  -44.5323 H         1 UNK         0.0600 
    198 H198       -1.2173  -25.5802  -44.1319 H         1 UNK         0.0600 
    199 H199       -1.7996  -23.9713  -43.7276 H         1 UNK         0.0600 
    200 H200        0.1582  -23.9332  -47.2009 H         1 UNK         0.3000 
    201 H201        0.7656  -26.5476  -48.2184 H         1 UNK         0.0600 
    202 H202        1.8226  -23.7870  -49.0258 H         1 UNK         0.0600 
    203 H203        2.5257  -25.3287  -49.4983 H         1 UNK         0.0600 
    204 H204        2.5176  -24.8521  -47.8071 H         1 UNK         0.0600 
    205 H205       -0.7057  -23.6249  -49.7042 H         1 UNK         0.3000 
    206 H206       -1.0498  -24.7486  -52.3142 H         1 UNK         0.0600 
    207 H207       -0.9604  -22.3267  -51.9734 H         1 UNK         0.0600 
    208 H208       -2.5411  -22.7192  -52.6267 H         1 UNK         0.0600 
    209 H209       -2.3636  -22.3649  -50.9107 H         1 UNK         0.0600 
    210 H210       -3.0703  -24.7653  -49.4390 H         1 UNK         0.3000 
    211 H211       -4.8181  -25.8475  -48.7423 H         1 UNK         0.0600 
    212 H212       -4.8188  -27.5138  -51.3134 H         1 UNK         0.0600 
    213 H213       -5.7122  -27.8652  -49.8429 H         1 UNK         0.0600 
    214 H214       -3.9555  -27.9088  -49.8276 H         1 UNK         0.0600 
    215 H215       -5.2328  -25.0411  -52.1822 H         1 UNK         0.3000 
    216 H216       -8.0262  -24.1621  -51.8638 H         1 UNK         0.0600 
    217 H217       -7.7981  -23.6461  -54.2956 H         1 UNK         0.0600 
    218 H218       -7.2702  -25.2846  -53.9536 H         1 UNK         0.0600 
    219 H219       -6.0789  -24.0155  -54.2240 H         1 UNK         0.0600 
    220 H220       -5.0109  -22.8210  -51.1863 H         1 UNK         0.3000 
    221 H221       -4.1705  -20.8194  -50.7174 H         1 UNK         0.0600 
    222 H222       -7.0847  -19.9566  -50.2913 H         1 UNK         0.0600 
    223 H223       -6.0751  -20.7770  -49.1098 H         1 UNK         0.0600 
    224 H224       -5.6603  -19.1592  -49.6312 H         1 UNK         0.0600 
    225 H225       -6.1262  -18.3581  -51.4993 H         1 UNK         0.3000 
    226 H226       -4.4982  -17.4523  -53.6169 H         1 UNK         0.0600 
    227 H227       -5.6097  -15.9389  -51.9972 H         1 UNK         0.0600 
    228 H228       -6.0920  -15.5187  -53.6285 H         1 UNK         0.0600 
    229 H229       -7.1976  -16.4180  -52.5973 H         1 UNK         0.0600 
    230 H230       -7.2061  -19.5647  -53.8368 H         1 UNK         0.3000 
    231 H231       -8.0619  -18.8509  -56.5152 H         1 UNK         0.0600 
    232 H232       -9.5532  -20.0281  -54.8919 H         1 UNK         0.0600 
    233 H233       -8.4768  -21.4243  -54.9090 H         1 UNK         0.0600 
    234 H234       -9.3428  -20.9611  -56.3658 H         1 UNK         0.0600 
    235 H235       -5.3384  -20.5956  -55.2368 H         1 UNK         0.3000 
    236 H236       -4.6444  -21.6194  -57.9690 H         1 UNK         0.0600 
    237 H237       -4.1590  -23.0088  -55.2809 H         1 UNK         0.0600 
    238 H238       -5.3011  -23.5267  -56.5229 H         1 UNK         0.0600 
    239 H239       -3.5757  -23.5643  -56.8462 H         1 UNK         0.0600 
    240 H240       -3.4710  -20.3887  -54.8065 H         1 UNK         0.3000 
    241 H241       -1.6508  -19.5041  -54.0982 H         1 UNK         0.0600 
    242 H242        0.1906  -22.7493  -55.0036 H         1 UNK         0.3800 
    243 H243       -1.5222  -22.4349  -55.0975 H         1 UNK         0.3800 
    244 H244       -0.0882  -18.1474  -55.6676 H         1 UNK         0.0800 
    245 H245       -1.1173  -18.6216  -56.9763 H         1 UNK         0.0800 
    246 H246       -0.2336  -15.9604  -54.6371 H         1 UNK         0.0800 
    247 H247       -1.6944  -15.1538  -54.1293 H         1 UNK         0.0800 
@<TRIPOS>BOND
     1    1    2 1    
     2    1  127 1    
     3    1  128 1    
     4    1  129 1    
     5    2    3 2    
     6    2    4 am   BACKBONE|DICT|INTERRES
     7    4    5 1    
     8    4  130 1    
     9    5    6 1    
    10    5   65 1    
    11    5  131 1    
    12    6    7 1    
    13    6  132 1    
    14    6  133 1    
    15    7    8 1    
    16    8    9 1    
    17    8  134 1    
    18    8  135 1    
    19    9   10 ar   
    20    9   14 ar   
    21   10   11 ar   
    22   10  136 1    
    23   11   12 ar   
    24   11  126 1    
    25   12   13 ar   
    26   12  137 1    
    27   13   14 ar   
    28   13   15 1    
    29   14  138 1    
    30   15   16 1    
    31   15  139 1    
    32   15  140 1    
    33   16   17 1    
    34   17   18 1    
    35   17  141 1    
    36   17  142 1    
    37   18   19 1    
    38   18   67 1    
    39   18  143 1    
    40   19   20 am   BACKBONE|DICT|INTERRES
    41   19  144 1    
    42   20   21 2    
    43   20   22 1    
    44   22   23 1    
    45   22   24 1    
    46   22  145 1    
    47   23  146 1    
    48   23  147 1    
    49   23  148 1    
    50   24   25 am   BACKBONE|DICT|INTERRES
    51   24  149 1    
    52   25   26 2    
    53   25   27 1    
    54   27   28 1    
    55   27   29 1    
    56   27  150 1    
    57   28  151 1    
    58   28  152 1    
    59   28  153 1    
    60   29   30 am   BACKBONE|DICT|INTERRES
    61   29  154 1    
    62   30   31 2    
    63   30   32 1    
    64   32   33 1    
    65   32   34 1    
    66   32  155 1    
    67   33  156 1    
    68   33  157 1    
    69   33  158 1    
    70   34   35 am   BACKBONE|DICT|INTERRES
    71   34  159 1    
    72   35   36 2    
    73   35   37 1    
    74   37   38 1    
    75   37   39 1    
    76   37  160 1    
    77   38  161 1    
    78   38  162 1    
    79   38  163 1    
    80   39   40 am   BACKBONE|DICT|INTERRES
    81   39  164 1    
    82   40   41 2    
    83   40   42 1    
    84   42   43 1    
    85   42   44 1    
    86   42  165 1    
    87   43  166 1    
    88   43  167 1    
    89   43  168 1    
    90   44   45 am   BACKBONE|DICT|INTERRES
    91   44  169 1    
    92   45   46 2    
    93   45   47 1    
    94   47   48 1    
    95   47   49 1    
    96   47  170 1    
    97   48  171 1    
    98   48  172 1    
    99   48  173 1    
   100   49   50 am   BACKBONE|DICT|INTERRES
   101   49  174 1    
   102   50   51 2    
   103   50   52 1    
   104   52   53 1    
   105   52   54 1    
   106   52  175 1    
   107   53  176 1    
   108   53  177 1    
   109   53  178 1    
   110   54   55 am   BACKBONE|DICT|INTERRES
   111   54  179 1    
   112   55   56 2    
   113   55   57 1    
   114   57   58 1    
   115   57   59 1    
   116   57  180 1    
   117   58  181 1    
   118   58  182 1    
   119   58  183 1    
   120   59   60 am   BACKBONE|DICT|INTERRES
   121   59  184 1    
   122   60   61 2    
   123   60   62 1    
   124   62   63 1    
   125   62   64 1    
   126   62  185 1    
   127   63  186 1    
   128   63  187 1    
   129   63  188 1    
   130   64   65 am   BACKBONE|DICT|INTERRES
   131   64  189 1    
   132   65   66 2    
   133   67   68 2    
   134   67   69 am   BACKBONE|DICT|INTERRES
   135   69   70 1    
   136   69  190 1    
   137   70   71 1    
   138   70   72 1    
   139   70  191 1    
   140   71  192 1    
   141   71  193 1    
   142   71  194 1    
   143   72   73 2    
   144   72   74 am   BACKBONE|DICT|INTERRES
   145   74   75 1    
   146   74  195 1    
   147   75   76 1    
   148   75   77 1    
   149   75  196 1    
   150   76  197 1    
   151   76  198 1    
   152   76  199 1    
   153   77   78 2    
   154   77   79 am   BACKBONE|DICT|INTERRES
   155   79   80 1    
   156   79  200 1    
   157   80   81 1    
   158   80   82 1    
   159   80  201 1    
   160   81  202 1    
   161   81  203 1    
   162   81  204 1    
   163   82   83 2    
   164   82   84 am   BACKBONE|DICT|INTERRES
   165   84   85 1    
   166   84  205 1    
   167   85   86 1    
   168   85   87 1    
   169   85  206 1    
   170   86  207 1    
   171   86  208 1    
   172   86  209 1    
   173   87   88 2    
   174   87   89 am   BACKBONE|DICT|INTERRES
   175   89   90 1    
   176   89  210 1    
   177   90   91 1    
   178   90   92 1    
   179   90  211 1    
   180   91  212 1    
   181   91  213 1    
   182   91  214 1    
   183   92   93 2    
   184   92   94 am   BACKBONE|DICT|INTERRES
   185   94   95 1    
   186   94  215 1    
   187   95   96 1    
   188   95   97 1    
   189   95  216 1    
   190   96  217 1    
   191   96  218 1    
   192   96  219 1    
   193   97   98 2    
   194   97   99 am   BACKBONE|DICT|INTERRES
   195   99  100 1    
   196   99  220 1    
   197  100  101 1    
   198  100  102 1    
   199  100  221 1    
   200  101  222 1    
   201  101  223 1    
   202  101  224 1    
   203  102  103 2    
   204  102  104 am   BACKBONE|DICT|INTERRES
   205  104  105 1    
   206  104  225 1    
   207  105  106 1    
   208  105  107 1    
   209  105  226 1    
   210  106  227 1    
   211  106  228 1    
   212  106  229 1    
   213  107  108 2    
   214  107  109 am   BACKBONE|DICT|INTERRES
   215  109  110 1    
   216  109  230 1    
   217  110  111 1    
   218  110  112 1    
   219  110  231 1    
   220  111  232 1    
   221  111  233 1    
   222  111  234 1    
   223  112  113 2    
   224  112  114 am   BACKBONE|DICT|INTERRES
   225  114  115 1    
   226  114  235 1    
   227  115  116 1    
   228  115  117 1    
   229  115  236 1    
   230  116  237 1    
   231  116  238 1    
   232  116  239 1    
   233  117  118 2    
   234  117  119 am   BACKBONE|DICT|INTERRES
   235  119  120 1    
   236  119  240 1    
   237  120  121 1    
   238  120  124 1    
   239  120  241 1    
   240  121  122 am   BACKBONE|DICT|INTERRES
   241  121  123 2    
   242  122  242 1    
   243  122  243 1    
   244  124  125 1    
   245  124  244 1    
   246  124  245 1    
   247  125  126 1    
   248  126  246 1    
   249  126  247 1    
@<TRIPOS>SUBSTRUCTURE
     1 UNK         1 GROUP             0       ****    0 ROOT    
