@<TRIPOS>MOLECULE
3R540
247   249    1
SMALL
USER_CHARGES


@<TRIPOS>ATOM
      1 CA         -2.5702  -13.7484  -52.9034 C.3       0 UNK        -0.1800 
      2 C          -1.7135  -12.8066  -52.0674 C.2       0 UNK         0.5000 
      3 O          -1.9025  -11.5912  -52.1239 O.2       0 UNK        -0.5000 
      4 N          -0.7623  -13.3625  -51.3076 N.am      1 UNK        -0.5000 
      5 CA          0.1273  -12.6372  -50.3978 C.3       1 UNK         0.1400 
      6 C6          1.3573  -13.4883  -49.9850 C.3       23 UNK        -0.0398 
      7 S7          0.9682  -15.1705  -49.3756 S.3       23 UNK        -0.2404 
      8 C8          1.5472  -16.1760  -50.7802 C.3       23 UNK        -0.0205 
      9 C9          1.3958  -17.6716  -50.5372 C.ar      23 UNK        -0.0193 
     10 C10         0.1242  -18.2468  -50.4546 C.ar      23 UNK        -0.1150 
     11 C11        -0.0193  -19.6280  -50.2980 C.ar      23 UNK        -0.0193 
     12 C12         1.1157  -20.4367  -50.2338 C.ar      23 UNK        -0.1150 
     13 C13         2.3921  -19.8775  -50.3079 C.ar      23 UNK        -0.0193 
     14 C14         2.5265  -18.4920  -50.4499 C.ar      23 UNK        -0.1150 
     15 C15         3.6196  -20.7766  -50.2790 C.3       23 UNK        -0.0205 
     16 S16         4.0590  -21.2936  -48.5896 S.3       23 UNK        -0.2404 
     17 C17         2.9196  -22.6963  -48.3119 C.3       23 UNK        -0.0398 
     18 CA          3.3841  -23.5834  -47.1307 C.3       11 UNK         0.1400 
     19 N           3.2835  -22.8619  -45.8575 N.am      11 UNK        -0.5000 
     20 C           3.9596  -23.1505  -44.7389 C.2       10 UNK         0.5000 
     21 O           4.8109  -24.0365  -44.6612 O.2       10 UNK        -0.5000 
     22 CA          3.5757  -22.3451  -43.4821 C.3       10 UNK         0.1400 
     23 CB          4.3328  -21.0095  -43.4324 C.3       10 UNK        -0.1800 
     24 N           2.1323  -22.1005  -43.3893 N.am      10 UNK        -0.5000 
     25 C           1.2132  -23.0627  -43.2173 C.2       9 UNK         0.5000 
     26 O           1.4920  -24.2530  -43.0779 O.2       9 UNK        -0.5000 
     27 CA         -0.2655  -22.6422  -43.2478 C.3       9 UNK         0.1400 
     28 CB         -0.7122  -22.1297  -41.8714 C.3       9 UNK        -0.1800 
     29 N          -0.5389  -21.6303  -44.2670 N.am      9 UNK        -0.5000 
     30 C          -0.5091  -21.8551  -45.5877 C.2       8 UNK         0.5000 
     31 O          -0.3159  -22.9639  -46.0825 O.2       8 UNK        -0.5000 
     32 CA         -0.7153  -20.6408  -46.5133 C.3       8 UNK         0.1400 
     33 CB         -2.2072  -20.3360  -46.7063 C.3       8 UNK        -0.1800 
     34 N          -0.0399  -19.4369  -46.0354 N.am      8 UNK        -0.5000 
     35 C           1.2849  -19.3414  -45.8602 C.2       7 UNK         0.5000 
     36 O           2.0710  -20.2645  -46.0611 O.2       7 UNK        -0.5000 
     37 CA          1.8105  -18.0106  -45.3085 C.3       7 UNK         0.1400 
     38 CB          1.9132  -16.9630  -46.4227 C.3       7 UNK        -0.1800 
     39 N           0.9718  -17.5113  -44.2193 N.am      7 UNK        -0.5000 
     40 C           0.9127  -18.0802  -43.0068 C.2       6 UNK         0.5000 
     41 O           1.6061  -19.0385  -42.6637 O.2       6 UNK        -0.5000 
     42 CA         -0.1385  -17.5155  -42.0357 C.3       6 UNK         0.1400 
     43 CB          0.3645  -16.2244  -41.3729 C.3       6 UNK        -0.1800 
     44 N          -1.4279  -17.2762  -42.6900 N.am      6 UNK        -0.5000 
     45 C          -2.2107  -18.2583  -43.1642 C.2       5 UNK         0.5000 
     46 O          -1.9124  -19.4477  -43.0985 O.2       5 UNK        -0.5000 
     47 CA         -3.5337  -17.8676  -43.8474 C.3       5 UNK         0.1400 
     48 CB         -4.6897  -17.9150  -42.8389 C.3       5 UNK        -0.1800 
     49 N          -3.5126  -16.5539  -44.4855 N.am      5 UNK        -0.5000 
     50 C          -2.6953  -16.1787  -45.4777 C.2       4 UNK         0.5000 
     51 O          -1.8320  -16.9110  -45.9673 O.2       4 UNK        -0.5000 
     52 CA         -2.8652  -14.7371  -46.0021 C.3       4 UNK         0.1400 
     53 CB         -4.0281  -13.9533  -45.3523 C.3       4 UNK        -0.1800 
     54 N          -1.6315  -13.9587  -45.9105 N.am      4 UNK        -0.5000 
     55 C          -0.8965  -13.7350  -44.8096 C.2       3 UNK         0.5000 
     56 O          -1.1303  -14.2470  -43.7137 O.2       3 UNK        -0.5000 
     57 CA          0.2925  -12.7603  -44.9427 C.3       3 UNK         0.1400 
     58 CB          1.6128  -13.5321  -45.0646 C.3       3 UNK        -0.1800 
     59 N           0.1783  -11.8523  -46.0853 N.am      3 UNK        -0.5000 
     60 C          -0.7367  -10.8820  -46.2159 C.2       2 UNK         0.5000 
     61 O          -1.5232  -10.5609  -45.3245 O.2       2 UNK        -0.5000 
     62 CA         -0.8020  -10.1635  -47.5793 C.3       2 UNK         0.1400 
     63 CB         -0.1368   -8.7813  -47.4890 C.3       2 UNK        -0.1800 
     64 N          -0.1996  -10.9069  -48.6939 N.am      2 UNK        -0.5000 
     65 C          -0.6318  -12.0832  -49.1721 C.2       1 UNK         0.5000 
     66 O          -1.5551  -12.7277  -48.6682 O.2       1 UNK        -0.5000 
     67 C           2.6331  -24.9385  -47.1125 C.2       11 UNK         0.5000 
     68 O           2.7859  -25.7156  -48.0554 O.2       11 UNK        -0.5000 
     69 N           1.8521  -25.2052  -46.0526 N.am      12 UNK        -0.5000 
     70 CA          1.0646  -26.4151  -45.7736 C.3       12 UNK         0.1400 
     71 CB          1.9767  -27.6535  -45.6564 C.3       12 UNK        -0.1800 
     72 C          -0.1258  -26.6464  -46.7304 C.2       12 UNK         0.5000 
     73 O          -0.7183  -27.7265  -46.7178 O.2       12 UNK        -0.5000 
     74 N          -0.4768  -25.6234  -47.5120 N.am      13 UNK        -0.5000 
     75 CA         -1.5677  -25.5562  -48.4743 C.3       13 UNK         0.1400 
     76 CB         -1.3470  -26.5353  -49.6429 C.3       13 UNK        -0.1800 
     77 C          -1.5875  -24.1093  -48.9947 C.2       13 UNK         0.5000 
     78 O          -0.5117  -23.5387  -49.1738 O.2       13 UNK        -0.5000 
     79 N          -2.7469  -23.4877  -49.2540 N.am      14 UNK        -0.5000 
     80 CA         -4.1179  -23.9760  -49.0748 C.3       14 UNK         0.1400 
     81 CB         -5.0389  -23.1110  -49.9519 C.3       14 UNK        -0.1800 
     82 C          -4.6051  -23.9564  -47.6086 C.2       14 UNK         0.5000 
     83 O          -5.7292  -24.3824  -47.3459 O.2       14 UNK        -0.5000 
     84 N          -3.7681  -23.4522  -46.6892 N.am      15 UNK        -0.5000 
     85 CA         -3.9437  -23.3220  -45.2347 C.3       15 UNK         0.1400 
     86 CB         -4.1427  -24.6961  -44.5695 C.3       15 UNK        -0.1800 
     87 C          -5.0233  -22.3169  -44.7853 C.2       15 UNK         0.5000 
     88 O          -4.7953  -21.5854  -43.8228 O.2       15 UNK        -0.5000 
     89 N          -6.1695  -22.2932  -45.4733 N.am      16 UNK        -0.5000 
     90 CA         -7.3284  -21.4636  -45.1450 C.3       16 UNK         0.1400 
     91 CB         -8.5440  -21.9696  -45.9367 C.3       16 UNK        -0.1800 
     92 C          -7.1100  -19.9609  -45.3990 C.2       16 UNK         0.5000 
     93 O          -7.6020  -19.1425  -44.6218 O.2       16 UNK        -0.5000 
     94 N          -6.3950  -19.6265  -46.4795 N.am      17 UNK        -0.5000 
     95 CA         -6.1424  -18.2705  -46.9604 C.3       17 UNK         0.1400 
     96 CB         -7.4539  -17.6158  -47.4458 C.3       17 UNK        -0.1800 
     97 C          -5.1252  -18.3333  -48.1088 C.2       17 UNK         0.5000 
     98 O          -4.8036  -19.4252  -48.5883 O.2       17 UNK        -0.5000 
     99 N          -4.6595  -17.1587  -48.5531 N.am      18 UNK        -0.5000 
    100 CA        -3.8383  -17.0087  -49.7510 C.3       18 UNK         0.1400 
    101 CB        -3.0276  -15.7063  -49.6910 C.3       18 UNK        -0.1800 
    102 C         -4.7121  -17.0970  -51.0126 C.2       18 UNK         0.5000 
    103 O         -5.2340  -16.0830  -51.4768 O.2       18 UNK        -0.5000 
    104 N         -4.8582  -18.3202  -51.5339 N.am      19 UNK        -0.5000 
    105 CA        -5.5998  -18.6400  -52.7565 C.3       19 UNK         0.1400 
    106 CB        -5.9287  -20.1426  -52.7464 C.3       19 UNK        -0.1800 
    107 C         -4.8546  -18.2531  -54.0533 C.2       19 UNK         0.5000 
    108 O         -5.4126  -18.4205  -55.1382 O.2       19 UNK        -0.5000 
    109 N         -3.6031  -17.7844  -53.9276 N.am      20 UNK        -0.5000 
    110 CA        -2.6550  -17.3500  -54.9635 C.3       20 UNK         0.1400 
    111 CB        -3.2405  -16.2375  -55.8534 C.3       20 UNK        -0.1800 
    112 C         -2.0842  -18.5065  -55.8034 C.2       20 UNK         0.5000 
    113 O         -0.8724  -18.5549  -56.0168 O.2       20 UNK        -0.5000 
    114 N         -2.9421  -19.4535  -56.2049 N.am      21 UNK        -0.5000 
    115 CA        -2.5858  -20.6983  -56.8947 C.3       21 UNK         0.1400 
    116 CB        -3.8759  -21.4330  -57.2887 C.3       21 UNK        -0.1800 
    117 C         -1.6709  -21.6201  -56.0608 C.2       21 UNK         0.5000 
    118 O         -0.9217  -22.4149  -56.6294 O.2       21 UNK        -0.5000 
    119 N         -1.7347  -21.4717  -54.7326 N.am      22 UNK        -0.5000 
    120 CA        -0.8216  -22.0701  -53.7513 C.3       22 UNK         0.1400 
    121 C          0.6161  -21.4683  -53.7347 C.2       22 UNK         0.5000 
    122 N          0.8862  -20.3411  -54.3843 N.am      22 UNK        -0.7600 
    123 O          1.5156  -22.0597  -53.1450 O.2       22 UNK        -0.5000 
    124 C124       -1.4602  -22.1023  -52.3372 C.3       23 UNK        -0.0398 
    125 S125       -2.1857  -20.5092  -51.7943 S.3       23 UNK        -0.2404 
    126 C126       -1.3967  -20.2497  -50.1786 C.3       23 UNK        -0.0205 
    127 H127       -2.6482  -13.3789  -53.9258 H         1 UNK         0.0600 
    128 H128       -3.5750  -13.8137  -52.4855 H         1 UNK         0.0600 
    129 H129       -2.1495  -14.7532  -52.9411 H         1 UNK         0.0600 
    130 H130       -0.6810  -14.3666  -51.2632 H         1 UNK         0.3000 
    131 H131        0.5084  -11.7759  -50.9512 H         1 UNK         0.0600 
    132 H132        2.0276  -13.5713  -50.8414 H         1 UNK         0.0800 
    133 H133        1.9442  -12.9759  -49.2208 H         1 UNK         0.0800 
    134 H134        0.9888  -15.9051  -51.6770 H         1 UNK         0.0800 
    135 H135        2.5912  -15.9319  -50.9828 H         1 UNK         0.0800 
    136 H136       -0.7515  -17.6181  -50.5191 H         1 UNK         0.1150 
    137 H137        1.0056  -21.5070  -50.1366 H         1 UNK         0.1150 
    138 H138        3.5131  -18.0562  -50.5199 H         1 UNK         0.1150 
    139 H139        3.4550  -21.6512  -50.9104 H         1 UNK         0.0800 
    140 H140        4.4728  -20.2522  -50.7116 H         1 UNK         0.0800 
    141 H141        1.9153  -22.3127  -48.1249 H         1 UNK         0.0800 
    142 H142        2.8638  -23.2764  -49.2348 H         1 UNK         0.0800 
    143 H143        4.4355  -23.8300  -47.2940 H         1 UNK         0.0600 
    144 H144        2.6715  -22.0487  -45.8554 H         1 UNK         0.3000 
    145 H145        3.8710  -22.9322  -42.6101 H         1 UNK         0.0600 
    146 H146        4.1091  -20.4635  -42.5157 H         1 UNK         0.0600 
    147 H147        4.0767  -20.3670  -44.2748 H         1 UNK         0.0600 
    148 H148        5.4109  -21.1716  -43.4602 H         1 UNK         0.0600 
    149 H149        1.8271  -21.1392  -43.4820 H         1 UNK         0.3000 
    150 H150       -0.8569  -23.5294  -43.4844 H         1 UNK         0.0600 
    151 H151       -0.5128  -22.8681  -41.0938 H         1 UNK         0.0600 
    152 H152       -1.7831  -21.9254  -41.8582 H         1 UNK         0.0600 
    153 H153       -0.1924  -21.2109  -41.5964 H         1 UNK         0.0600 
    154 H154       -0.7955  -20.7068  -43.9262 H         1 UNK         0.3000 
    155 H155       -0.2813  -20.8861  -47.4840 H         1 UNK         0.0600 
    156 H156       -2.6775  -21.0756  -47.3513 H         1 UNK         0.0600 
    157 H157       -2.3567  -19.3649  -47.1777 H         1 UNK         0.0600 
    158 H158       -2.7457  -20.3311  -45.7593 H         1 UNK         0.0600 
    159 H159       -0.6164  -18.6195  -45.8671 H         1 UNK         0.3000 
    160 H160        2.8161  -18.1893  -44.9216 H         1 UNK         0.0600 
    161 H161        0.9330  -16.5796  -46.7083 H         1 UNK         0.0600 
    162 H162        2.3755  -17.3812  -47.3185 H         1 UNK         0.0600 
    163 H163        2.5339  -16.1264  -46.1076 H         1 UNK         0.0600 
    164 H164        0.3226  -16.7695  -44.4397 H         1 UNK         0.3000 
    165 H165       -0.2956  -18.2568  -41.2491 H         1 UNK         0.0600 
    166 H166       -0.3717  -15.8247  -40.6754 H         1 UNK         0.0600 
    167 H167        1.2796  -16.4101  -40.8094 H         1 UNK         0.0600 
    168 H168        0.5871  -15.4500  -42.1070 H         1 UNK         0.0600 
    169 H169       -1.7032  -16.3114  -42.8259 H         1 UNK         0.3000 
    170 H170       -3.7370  -18.6053  -44.6246 H         1 UNK         0.0600 
    171 H171       -4.7765  -18.9079  -42.3950 H         1 UNK         0.0600 
    172 H172       -4.5466  -17.2011  -42.0268 H         1 UNK         0.0600 
    173 H173       -5.6429  -17.6928  -43.3184 H         1 UNK         0.0600 
    174 H174       -4.1617  -15.8715  -44.1218 H         1 UNK         0.3000 
    175 H175       -3.0954  -14.8210  -47.0610 H         1 UNK         0.0600 
    176 H176       -3.8780  -13.8038  -44.2823 H         1 UNK         0.0600 
    177 H177       -4.1277  -12.9671  -45.8067 H         1 UNK         0.0600 
    178 H178       -4.9819  -14.4635  -45.4932 H         1 UNK         0.0600 
    179 H179       -1.3529  -13.5072  -46.7753 H         1 UNK         0.3000 
    180 H180        0.3251  -12.1628  -44.0294 H         1 UNK         0.0600 
    181 H181        1.7085  -14.2873  -44.2830 H         1 UNK         0.0600 
    182 H182        2.4686  -12.8627  -44.9762 H         1 UNK         0.0600 
    183 H183        1.6822  -14.0355  -46.0284 H         1 UNK         0.0600 
    184 H184        0.7903  -12.0315  -46.8668 H         1 UNK         0.3000 
    185 H185       -1.8587  -10.0190  -47.8136 H         1 UNK         0.0600 
    186 H186       -0.5806   -8.1841  -46.6912 H         1 UNK         0.0600 
    187 H187        0.9312   -8.8619  -47.2828 H         1 UNK         0.0600 
    188 H188       -0.2599   -8.2217  -48.4165 H         1 UNK         0.0600 
    189 H189        0.5703  -10.4473  -49.1589 H         1 UNK         0.3000 
    190 H190        1.7854  -24.4898  -45.3405 H         1 UNK         0.3000 
    191 H191        0.6178  -26.2501  -44.7925 H         1 UNK         0.0600 
    192 H192        1.4221  -28.5144  -45.2815 H         1 UNK         0.0600 
    193 H193        2.7986  -27.4729  -44.9634 H         1 UNK         0.0600 
    194 H194        2.4034  -27.9365  -46.6188 H         1 UNK         0.0600 
    195 H195        0.0331  -24.7505  -47.4171 H         1 UNK         0.3000 
    196 H196       -2.4908  -25.8049  -47.9526 H         1 UNK         0.0600 
    197 H197       -1.3666  -27.5726  -49.3100 H         1 UNK         0.0600 
    198 H198       -2.1285  -26.4262  -50.3958 H         1 UNK         0.0600 
    199 H199       -0.3894  -26.3602  -50.1353 H         1 UNK         0.0600 
    200 H200       -2.6933  -22.5521  -49.6246 H         1 UNK         0.3000 
    201 H201       -4.1803  -25.0054  -49.4322 H         1 UNK         0.0600 
    202 H202       -6.0721  -23.4572  -49.9024 H         1 UNK         0.0600 
    203 H203       -4.7379  -23.1485  -50.9992 H         1 UNK         0.0600 
    204 H204       -5.0284  -22.0655  -49.6398 H         1 UNK         0.0600 
    205 H205       -2.8804  -23.1153  -47.0320 H         1 UNK         0.3000 
    206 H206       -3.0011  -22.9303  -44.8579 H         1 UNK         0.0600 
    207 H207       -3.3300  -25.3768  -44.8238 H         1 UNK         0.0600 
    208 H208       -4.1596  -24.6019  -43.4830 H         1 UNK         0.0600 
    209 H209       -5.0805  -25.1643  -44.8692 H         1 UNK         0.0600 
    210 H210       -6.2720  -22.9613  -46.2323 H         1 UNK         0.3000 
    211 H211       -7.5415  -21.5895  -44.0812 H         1 UNK         0.0600 
    212 H212       -8.3794  -21.9025  -47.0130 H         1 UNK         0.0600 
    213 H213       -9.4346  -21.3849  -45.7027 H         1 UNK         0.0600 
    214 H214       -8.7660  -23.0094  -45.6960 H         1 UNK         0.0600 
    215 H215       -5.9887  -20.3495  -47.0606 H         1 UNK         0.3000 
    216 H216       -5.7113  -17.6822  -46.1486 H         1 UNK         0.0600 
    217 H217       -8.1786  -17.5132  -46.6386 H         1 UNK         0.0600 
    218 H218       -7.9209  -18.2007  -48.2393 H         1 UNK         0.0600 
    219 H219       -7.2804  -16.6130  -47.8374 H         1 UNK         0.0600 
    220 H220       -5.0183  -16.3054  -48.1519 H         1 UNK         0.3000 
    221 H221       -3.1139  -17.8170  -49.7909 H         1 UNK         0.0600 
    222 H222       -2.4993  -15.5435  -50.6287 H         1 UNK         0.0600 
    223 H223       -3.6556  -14.8333  -49.5102 H         1 UNK         0.0600 
    224 H224       -2.2655  -15.7552  -48.9138 H         1 UNK         0.0600 
    225 H225       -4.4385  -19.1037  -51.0504 H         1 UNK         0.3000 
    226 H226       -6.5400  -18.0849  -52.7460 H         1 UNK         0.0600 
    227 H227       -5.0280  -20.7553  -52.7912 H         1 UNK         0.0600 
    228 H228       -6.4777  -20.4208  -51.8465 H         1 UNK         0.0600 
    229 H229       -6.5505  -20.4140  -53.6005 H         1 UNK         0.0600 
    230 H230       -3.2405  -17.7516  -52.9866 H         1 UNK         0.3000 
    231 H231       -1.8131  -16.9177  -54.4202 H         1 UNK         0.0600 
    232 H232       -2.4740  -15.8251  -56.5104 H         1 UNK         0.0600 
    233 H233       -3.6315  -15.4163  -55.2531 H         1 UNK         0.0600 
    234 H234       -4.0482  -16.6019  -56.4885 H         1 UNK         0.0600 
    235 H235       -3.9238  -19.3105  -55.9855 H         1 UNK         0.3000 
    236 H236       -2.0447  -20.4339  -57.8054 H         1 UNK         0.0600 
    237 H237       -4.4707  -21.6968  -56.4131 H         1 UNK         0.0600 
    238 H238       -4.4956  -20.8189  -57.9424 H         1 UNK         0.0600 
    239 H239       -3.6527  -22.3559  -57.8258 H         1 UNK         0.0600 
    240 H240       -2.3777  -20.7896  -54.3595 H         1 UNK         0.3000 
    241 H241       -0.6820  -23.1106  -54.0510 H         1 UNK         0.0600 
    242 H242        0.1756  -19.8411  -54.9058 H         1 UNK         0.3800 
    243 H243        1.8259  -19.9807  -54.3599 H         1 UNK         0.3800 
    244 H244       -0.7394  -22.4615  -51.6023 H         1 UNK         0.0800 
    245 H245       -2.2659  -22.8374  -52.3306 H         1 UNK         0.0800 
    246 H246       -1.3328  -21.1912  -49.6428 H         1 UNK         0.0800 
    247 H247       -2.0282  -19.6200  -49.5593 H         1 UNK         0.0800 
@<TRIPOS>BOND
     1    1    2 1    
     2    1  127 1    
     3    1  128 1    
     4    1  129 1    
     5    2    3 2    
     6    2    4 am   BACKBONE|DICT|INTERRES
     7    4    5 1    
     8    4  130 1    
     9    5    6 1    
    10    5   65 1    
    11    5  131 1    
    12    6    7 1    
    13    6  132 1    
    14    6  133 1    
    15    7    8 1    
    16    8    9 1    
    17    8  134 1    
    18    8  135 1    
    19    9   10 ar   
    20    9   14 ar   
    21   10   11 ar   
    22   10  136 1    
    23   11   12 ar   
    24   11  126 1    
    25   12   13 ar   
    26   12  137 1    
    27   13   14 ar   
    28   13   15 1    
    29   14  138 1    
    30   15   16 1    
    31   15  139 1    
    32   15  140 1    
    33   16   17 1    
    34   17   18 1    
    35   17  141 1    
    36   17  142 1    
    37   18   19 1    
    38   18   67 1    
    39   18  143 1    
    40   19   20 am   BACKBONE|DICT|INTERRES
    41   19  144 1    
    42   20   21 2    
    43   20   22 1    
    44   22   23 1    
    45   22   24 1    
    46   22  145 1    
    47   23  146 1    
    48   23  147 1    
    49   23  148 1    
    50   24   25 am   BACKBONE|DICT|INTERRES
    51   24  149 1    
    52   25   26 2    
    53   25   27 1    
    54   27   28 1    
    55   27   29 1    
    56   27  150 1    
    57   28  151 1    
    58   28  152 1    
    59   28  153 1    
    60   29   30 am   BACKBONE|DICT|INTERRES
    61   29  154 1    
    62   30   31 2    
    63   30   32 1    
    64   32   33 1    
    65   32   34 1    
    66   32  155 1    
    67   33  156 1    
    68   33  157 1    
    69   33  158 1    
    70   34   35 am   BACKBONE|DICT|INTERRES
    71   34  159 1    
    72   35   36 2    
    73   35   37 1    
    74   37   38 1    
    75   37   39 1    
    76   37  160 1    
    77   38  161 1    
    78   38  162 1    
    79   38  163 1    
    80   39   40 am   BACKBONE|DICT|INTERRES
    81   39  164 1    
    82   40   41 2    
    83   40   42 1    
    84   42   43 1    
    85   42   44 1    
    86   42  165 1    
    87   43  166 1    
    88   43  167 1    
    89   43  168 1    
    90   44   45 am   BACKBONE|DICT|INTERRES
    91   44  169 1    
    92   45   46 2    
    93   45   47 1    
    94   47   48 1    
    95   47   49 1    
    96   47  170 1    
    97   48  171 1    
    98   48  172 1    
    99   48  173 1    
   100   49   50 am   BACKBONE|DICT|INTERRES
   101   49  174 1    
   102   50   51 2    
   103   50   52 1    
   104   52   53 1    
   105   52   54 1    
   106   52  175 1    
   107   53  176 1    
   108   53  177 1    
   109   53  178 1    
   110   54   55 am   BACKBONE|DICT|INTERRES
   111   54  179 1    
   112   55   56 2    
   113   55   57 1    
   114   57   58 1    
   115   57   59 1    
   116   57  180 1    
   117   58  181 1    
   118   58  182 1    
   119   58  183 1    
   120   59   60 am   BACKBONE|DICT|INTERRES
   121   59  184 1    
   122   60   61 2    
   123   60   62 1    
   124   62   63 1    
   125   62   64 1    
   126   62  185 1    
   127   63  186 1    
   128   63  187 1    
   129   63  188 1    
   130   64   65 am   BACKBONE|DICT|INTERRES
   131   64  189 1    
   132   65   66 2    
   133   67   68 2    
   134   67   69 am   BACKBONE|DICT|INTERRES
   135   69   70 1    
   136   69  190 1    
   137   70   71 1    
   138   70   72 1    
   139   70  191 1    
   140   71  192 1    
   141   71  193 1    
   142   71  194 1    
   143   72   73 2    
   144   72   74 am   BACKBONE|DICT|INTERRES
   145   74   75 1    
   146   74  195 1    
   147   75   76 1    
   148   75   77 1    
   149   75  196 1    
   150   76  197 1    
   151   76  198 1    
   152   76  199 1    
   153   77   78 2    
   154   77   79 am   BACKBONE|DICT|INTERRES
   155   79   80 1    
   156   79  200 1    
   157   80   81 1    
   158   80   82 1    
   159   80  201 1    
   160   81  202 1    
   161   81  203 1    
   162   81  204 1    
   163   82   83 2    
   164   82   84 am   BACKBONE|DICT|INTERRES
   165   84   85 1    
   166   84  205 1    
   167   85   86 1    
   168   85   87 1    
   169   85  206 1    
   170   86  207 1    
   171   86  208 1    
   172   86  209 1    
   173   87   88 2    
   174   87   89 am   BACKBONE|DICT|INTERRES
   175   89   90 1    
   176   89  210 1    
   177   90   91 1    
   178   90   92 1    
   179   90  211 1    
   180   91  212 1    
   181   91  213 1    
   182   91  214 1    
   183   92   93 2    
   184   92   94 am   BACKBONE|DICT|INTERRES
   185   94   95 1    
   186   94  215 1    
   187   95   96 1    
   188   95   97 1    
   189   95  216 1    
   190   96  217 1    
   191   96  218 1    
   192   96  219 1    
   193   97   98 2    
   194   97   99 am   BACKBONE|DICT|INTERRES
   195   99  100 1    
   196   99  220 1    
   197  100  101 1    
   198  100  102 1    
   199  100  221 1    
   200  101  222 1    
   201  101  223 1    
   202  101  224 1    
   203  102  103 2    
   204  102  104 am   BACKBONE|DICT|INTERRES
   205  104  105 1    
   206  104  225 1    
   207  105  106 1    
   208  105  107 1    
   209  105  226 1    
   210  106  227 1    
   211  106  228 1    
   212  106  229 1    
   213  107  108 2    
   214  107  109 am   BACKBONE|DICT|INTERRES
   215  109  110 1    
   216  109  230 1    
   217  110  111 1    
   218  110  112 1    
   219  110  231 1    
   220  111  232 1    
   221  111  233 1    
   222  111  234 1    
   223  112  113 2    
   224  112  114 am   BACKBONE|DICT|INTERRES
   225  114  115 1    
   226  114  235 1    
   227  115  116 1    
   228  115  117 1    
   229  115  236 1    
   230  116  237 1    
   231  116  238 1    
   232  116  239 1    
   233  117  118 2    
   234  117  119 am   BACKBONE|DICT|INTERRES
   235  119  120 1    
   236  119  240 1    
   237  120  121 1    
   238  120  124 1    
   239  120  241 1    
   240  121  122 am   BACKBONE|DICT|INTERRES
   241  121  123 2    
   242  122  242 1    
   243  122  243 1    
   244  124  125 1    
   245  124  244 1    
   246  124  245 1    
   247  125  126 1    
   248  126  246 1    
   249  126  247 1    
@<TRIPOS>SUBSTRUCTURE
     1 UNK         1 GROUP             0       ****    0 ROOT    
