@<TRIPOS>MOLECULE
3R540
247   249    1
SMALL
USER_CHARGES


@<TRIPOS>ATOM
      1 CA          2.6705  -14.1854  -49.1700 C.3       0 UNK        -0.1800 
      2 C           2.2883  -13.3648  -47.9470 C.2       0 UNK         0.5000 
      3 O           3.1191  -13.1586  -47.0642 O.2       0 UNK        -0.5000 
      4 N           1.0433  -12.8714  -47.9113 N.am      1 UNK        -0.5000 
      5 CA          0.4015  -12.1808  -46.7802 C.3       1 UNK         0.1400 
      6 C6         -1.1247  -12.0182  -47.0090 C.3       23 UNK        -0.0398 
      7 S7         -2.0055  -13.6114  -46.9044 S.3       23 UNK        -0.2404 
      8 C8         -2.1106  -14.1174  -48.6463 C.3       23 UNK        -0.0205 
      9 C9         -2.2366  -15.6276  -48.7495 C.ar      23 UNK        -0.0193 
     10 C10        -3.4924  -16.2271  -48.8792 C.ar      23 UNK        -0.1150 
     11 C11        -3.6140  -17.6180  -48.9582 C.ar      23 UNK        -0.0193 
     12 C12        -2.4580  -18.4057  -48.9021 C.ar      23 UNK        -0.1150 
     13 C13        -1.1972  -17.8184  -48.7705 C.ar      23 UNK        -0.0193 
     14 C14        -1.0918  -16.4280  -48.6979 C.ar      23 UNK        -0.1150 
     15 C15         0.0446  -18.6899  -48.6929 C.3       23 UNK        -0.0205 
     16 S16         0.4836  -19.0466  -46.9635 S.3       23 UNK        -0.2404 
     17 C17         1.5512  -20.5110  -47.1636 C.3       23 UNK        -0.0398 
     18 CA          0.8865  -21.8549  -46.7726 C.3       11 UNK         0.1400 
     19 N           0.5907  -21.9657  -45.3393 N.am      11 UNK        -0.5000 
     20 C           0.4079  -23.1440  -44.7236 C.2       10 UNK         0.5000 
     21 O           0.4683  -24.2290  -45.3029 O.2       10 UNK        -0.5000 
     22 CA          0.0623  -23.1148  -43.2243 C.3       10 UNK         0.1400 
     23 CB          1.3318  -22.9300  -42.3798 C.3       10 UNK        -0.1800 
     24 N          -0.9151  -22.0890  -42.8606 N.am      10 UNK        -0.5000 
     25 C          -2.1566  -21.9896  -43.3538 C.2       9 UNK         0.5000 
     26 O          -2.6060  -22.7384  -44.2208 O.2       9 UNK        -0.5000 
     27 CA         -3.0517  -20.8618  -42.8030 C.3       9 UNK         0.1400 
     28 CB         -2.6526  -20.3841  -41.3887 C.3       9 UNK        -0.1800 
     29 N          -3.1404  -19.7255  -43.7250 N.am      9 UNK        -0.5000 
     30 C          -2.1271  -18.9758  -44.1830 C.2       8 UNK         0.5000 
     31 O          -0.9436  -19.1898  -43.9085 O.2       8 UNK        -0.5000 
     32 CA         -2.4837  -17.7957  -45.1147 C.3       8 UNK         0.1400 
     33 CB         -3.9801  -17.4133  -45.1321 C.3       8 UNK        -0.1800 
     34 N          -1.6479  -16.6257  -44.8412 N.am      8 UNK        -0.5000 
     35 C          -1.5487  -15.9437  -43.6918 C.2       7 UNK         0.5000 
     36 O          -2.2576  -16.1489  -42.7042 O.2       7 UNK        -0.5000 
     37 CA         -0.4307  -14.8812  -43.6357 C.3       7 UNK         0.1400 
     38 CB         -0.4536  -14.0463  -42.3442 C.3       7 UNK        -0.1800 
     39 N           0.8879  -15.4988  -43.7772 N.am      7 UNK        -0.5000 
     40 C           1.4264  -15.9102  -44.9336 C.2       6 UNK         0.5000 
     41 O           0.8838  -15.7391  -46.0248 O.2       6 UNK        -0.5000 
     42 CA          2.7651  -16.6629  -44.8453 C.3       6 UNK         0.1400 
     43 CB          3.5914  -16.6012  -46.1421 C.3       6 UNK        -0.1800 
     44 N           3.5679  -16.1621  -43.7314 N.am      6 UNK        -0.5000 
     45 C           4.1798  -16.9261  -42.8177 C.2       5 UNK         0.5000 
     46 O           4.1439  -18.1570  -42.8232 O.2       5 UNK        -0.5000 
     47 CA          4.9735  -16.2085  -41.7061 C.3       5 UNK         0.1400 
     48 CB          6.4833  -16.3190  -41.9714 C.3       5 UNK        -0.1800 
     49 N           4.6322  -14.7943  -41.5436 N.am      5 UNK        -0.5000 
     50 C           3.4682  -14.3219  -41.0763 C.2       4 UNK         0.5000 
     51 O           2.5344  -15.0385  -40.7164 O.2       4 UNK        -0.5000 
     52 CA          3.3160  -12.7879  -41.0392 C.3       4 UNK         0.1400 
     53 CB          3.7012  -12.2432  -39.6556 C.3       4 UNK        -0.1800 
     54 N           4.1096  -12.1013  -42.0653 N.am      4 UNK        -0.5000 
     55 C           3.8948  -12.2081  -43.3830 C.2       3 UNK         0.5000 
     56 O           3.0040  -12.9058  -43.8716 O.2       3 UNK        -0.5000 
     57 CA          4.8733  -11.4617  -44.3011 C.3       3 UNK         0.1400 
     58 CB          5.9470  -12.4301  -44.8225 C.3       3 UNK        -0.1800 
     59 N           4.1387  -10.9163  -45.4368 N.am      3 UNK        -0.5000 
     60 C           3.8648   -9.6187  -45.6315 C.2       2 UNK         0.5000 
     61 O           4.3057   -8.7135  -44.9218 O.2       2 UNK        -0.5000 
     62 CA          2.9274   -9.2611  -46.8065 C.3       2 UNK         0.1400 
     63 CB          3.7441   -8.8588  -48.0440 C.3       2 UNK        -0.1800 
     64 N           2.0251  -10.3544  -47.1691 N.am      2 UNK        -0.5000 
     65 C           1.0534  -10.8360  -46.3819 C.2       1 UNK         0.5000 
     66 O           0.6860  -10.2731  -45.3494 O.2       1 UNK        -0.5000 
     67 C          -0.3464  -22.1887  -47.6389 C.2       11 UNK         0.5000 
     68 O          -0.1899  -22.7812  -48.7051 O.2       11 UNK        -0.5000 
     69 N          -1.5475  -21.8451  -47.1486 N.am      12 UNK        -0.5000 
     70 CA         -2.8239  -22.1699  -47.7842 C.3       12 UNK         0.1400 
     71 CB         -3.9609  -21.3895  -47.1053 C.3       12 UNK        -0.1800 
     72 C          -3.0954  -23.6819  -47.7548 C.2       12 UNK         0.5000 
     73 O          -3.5066  -24.2423  -48.7696 O.2       12 UNK        -0.5000 
     74 N          -2.8099  -24.3185  -46.6103 N.am      13 UNK        -0.5000 
     75 CA         -2.8814  -25.7650  -46.4152 C.3       13 UNK         0.1400 
     76 CB         -2.6648  -26.0965  -44.9311 C.3       13 UNK        -0.1800 
     77 C          -1.8837  -26.5284  -47.3043 C.2       13 UNK         0.5000 
     78 O          -2.2732  -27.5079  -47.9399 O.2       13 UNK        -0.5000 
     79 N          -0.6352  -26.0422  -47.3773 N.am      14 UNK        -0.5000 
     80 CA          0.4210  -26.5861  -48.2378 C.3       14 UNK         0.1400 
     81 CB          1.7523  -25.8903  -47.9183 C.3       14 UNK        -0.1800 
     82 C           0.0961  -26.4718  -49.7403 C.2       14 UNK         0.5000 
     83 O           0.3937  -27.3925  -50.5016 O.2       14 UNK        -0.5000 
     84 N          -0.5421  -25.3609  -50.1294 N.am      15 UNK        -0.5000 
     85 CA         -1.0447  -25.0995  -51.4788 C.3       15 UNK         0.1400 
     86 CB         -1.2497  -23.5843  -51.6250 C.3       15 UNK        -0.1800 
     87 C          -2.3550  -25.8435  -51.8120 C.2       15 UNK         0.5000 
     88 O          -2.8078  -25.7710  -52.9567 O.2       15 UNK        -0.5000 
     89 N          -2.9665  -26.4933  -50.8078 N.am      16 UNK        -0.5000 
     90 CA         -4.2794  -27.1484  -50.8342 C.3       16 UNK         0.1400 
     91 CB         -4.2243  -28.4287  -51.6922 C.3       16 UNK        -0.1800 
     92 C          -5.4074  -26.1849  -51.2624 C.2       16 UNK         0.5000 
     93 O          -6.3204  -26.5826  -51.9890 O.2       16 UNK        -0.5000 
     94 N          -5.2785  -24.9144  -50.8498 N.am      17 UNK        -0.5000 
     95 CA         -6.0335  -23.7173  -51.2356 C.3       17 UNK         0.1400 
     96 CB         -7.5152  -23.8321  -50.8300 C.3       17 UNK        -0.1800 
     97 C          -5.8919  -23.3268  -52.7212 C.2       17 UNK         0.5000 
     98 O          -5.6583  -22.1554  -53.0191 O.2       17 UNK        -0.5000 
     99 N          -6.0433  -24.3060  -53.6193 N.am      18 UNK        -0.5000 
    100 CA        -6.1186  -24.1631  -55.0699 C.3       18 UNK         0.1400 
    101 CB        -6.4023  -25.5377  -55.6940 C.3       18 UNK        -0.1800 
    102 C         -4.8816  -23.5217  -55.7182 C.2       18 UNK         0.5000 
    103 O         -5.0439  -22.6368  -56.5588 O.2       18 UNK        -0.5000 
    104 N         -3.6737  -23.9505  -55.3208 N.am      19 UNK        -0.5000 
    105 CA        -2.4208  -23.4747  -55.9226 C.3       19 UNK         0.1400 
    106 CB        -1.2775  -24.4455  -55.5902 C.3       19 UNK        -0.1800 
    107 C         -2.0578  -22.0297  -55.5255 C.2       19 UNK         0.5000 
    108 O         -1.3149  -21.3715  -56.2544 O.2       19 UNK        -0.5000 
    109 N         -2.6019  -21.5599  -54.3962 N.am      20 UNK        -0.5000 
    110 CA        -2.4694  -20.1882  -53.9028 C.3       20 UNK         0.1400 
    111 CB        -2.2611  -20.2381  -52.3804 C.3       20 UNK        -0.1800 
    112 C         -3.6833  -19.3127  -54.2808 C.2       20 UNK         0.5000 
    113 O         -3.6519  -18.1069  -54.0327 O.2       20 UNK        -0.5000 
    114 N         -4.7174  -19.9264  -54.8790 N.am      21 UNK        -0.5000 
    115 CA        -6.0020  -19.3458  -55.2825 C.3       21 UNK         0.1400 
    116 CB        -5.8089  -18.3458  -56.4414 C.3       21 UNK        -0.1800 
    117 C         -6.8010  -18.7607  -54.0973 C.2       21 UNK         0.5000 
    118 O         -7.4320  -17.7099  -54.2328 O.2       21 UNK        -0.5000 
    119 N         -6.7484  -19.4483  -52.9506 N.am      22 UNK        -0.5000 
    120 CA        -7.4380  -19.0679  -51.7096 C.3       22 UNK         0.1400 
    121 C         -8.9755  -19.2671  -51.8037 C.2       22 UNK         0.5000 
    122 N         -9.7603  -18.3796  -51.2078 N.am      22 UNK        -0.7600 
    123 O         -9.4631  -20.2415  -52.3728 O.2       22 UNK        -0.5000 
    124 C124       -6.8725  -19.8197  -50.4785 C.3       23 UNK        -0.0398 
    125 S125       -5.0739  -19.6002  -50.2867 S.3       23 UNK        -0.2404 
    126 C126       -4.9992  -18.2490  -49.0680 C.3       23 UNK        -0.0205 
    127 H127        3.5449  -13.7526  -49.6555 H         1 UNK         0.0600 
    128 H128        2.9133  -15.2052  -48.8723 H         1 UNK         0.0600 
    129 H129        1.8613  -14.2293  -49.8991 H         1 UNK         0.0600 
    130 H130        0.4336  -13.0605  -48.6914 H         1 UNK         0.3000 
    131 H131        0.5480  -12.8227  -45.9099 H         1 UNK         0.0600 
    132 H132       -1.3312  -11.5328  -47.9643 H         1 UNK         0.0800 
    133 H133       -1.5676  -11.3767  -46.2449 H         1 UNK         0.0800 
    134 H134       -1.2284  -13.7924  -49.1966 H         1 UNK         0.0800 
    135 H135       -2.9640  -13.6249  -49.1149 H         1 UNK         0.0800 
    136 H136       -4.3773  -15.6069  -48.9071 H         1 UNK         0.1150 
    137 H137       -2.5365  -19.4807  -48.9562 H         1 UNK         0.1150 
    138 H138       -0.1197  -15.9699  -48.5778 H         1 UNK         0.1150 
    139 H139       -0.1278  -19.6206  -49.2358 H         1 UNK         0.0800 
    140 H140        0.8841  -18.1953  -49.1837 H         1 UNK         0.0800 
    141 H141        1.9138  -20.5584  -48.1918 H         1 UNK         0.0800 
    142 H142        2.4413  -20.3569  -46.5523 H         1 UNK         0.0800 
    143 H143        1.6277  -22.6247  -46.9990 H         1 UNK         0.0600 
    144 H144        0.4841  -21.1043  -44.8187 H         1 UNK         0.3000 
    145 H145       -0.3741  -24.0835  -42.9721 H         1 UNK         0.0600 
    146 H146        1.1132  -23.0138  -41.3151 H         1 UNK         0.0600 
    147 H147        2.0745  -23.6925  -42.6186 H         1 UNK         0.0600 
    148 H148        1.7928  -21.9566  -42.5527 H         1 UNK         0.0600 
    149 H149       -0.6151  -21.3954  -42.1912 H         1 UNK         0.3000 
    150 H150       -4.0563  -21.2815  -42.7324 H         1 UNK         0.0600 
    151 H151       -2.5994  -21.2216  -40.6918 H         1 UNK         0.0600 
    152 H152       -3.3910  -19.6858  -40.9946 H         1 UNK         0.0600 
    153 H153       -1.6869  -19.8780  -41.3748 H         1 UNK         0.0600 
    154 H154       -4.0749  -19.4840  -44.0217 H         1 UNK         0.3000 
    155 H155       -2.2222  -18.1215  -46.1194 H         1 UNK         0.0600 
    156 H156       -4.1523  -16.5601  -45.7888 H         1 UNK         0.0600 
    157 H157       -4.3471  -17.1471  -44.1404 H         1 UNK         0.0600 
    158 H158       -4.5945  -18.2307  -45.5106 H         1 UNK         0.0600 
    159 H159       -0.9688  -16.4010  -45.5629 H         1 UNK         0.3000 
    160 H160       -0.5934  -14.1948  -44.4650 H         1 UNK         0.0600 
    161 H161       -0.2509  -14.6570  -41.4635 H         1 UNK         0.0600 
    162 H162       -1.4248  -13.5709  -42.2022 H         1 UNK         0.0600 
    163 H163        0.2916  -13.2522  -42.3831 H         1 UNK         0.0600 
    164 H164        1.3842  -15.6939  -42.9189 H         1 UNK         0.3000 
    165 H165        2.4936  -17.7068  -44.6749 H         1 UNK         0.0600 
    166 H166        3.9137  -15.5839  -46.3611 H         1 UNK         0.0600 
    167 H167        4.4824  -17.2243  -46.0679 H         1 UNK         0.0600 
    168 H168        3.0160  -16.9614  -46.9958 H         1 UNK         0.0600 
    169 H169        3.6141  -15.1538  -43.6458 H         1 UNK         0.3000 
    170 H170        4.7518  -16.7196  -40.7669 H         1 UNK         0.0600 
    171 H171        6.7896  -17.3618  -42.0650 H         1 UNK         0.0600 
    172 H172        6.7674  -15.8098  -42.8934 H         1 UNK         0.0600 
    173 H173        7.0611  -15.8853  -41.1550 H         1 UNK         0.0600 
    174 H174        5.3383  -14.1272  -41.8165 H         1 UNK         0.3000 
    175 H175        2.2640  -12.5560  -41.2147 H         1 UNK         0.0600 
    176 H176        4.7525  -12.4251  -39.4288 H         1 UNK         0.0600 
    177 H177        3.5235  -11.1695  -39.5906 H         1 UNK         0.0600 
    178 H178        3.1093  -12.7168  -38.8711 H         1 UNK         0.0600 
    179 H179        4.8635  -11.5163  -41.7342 H         1 UNK         0.3000 
    180 H180        5.3637  -10.6669  -43.7355 H         1 UNK         0.0600 
    181 H181        5.5061  -13.2579  -45.3806 H         1 UNK         0.0600 
    182 H182        6.5237  -12.8569  -44.0010 H         1 UNK         0.0600 
    183 H183        6.6488  -11.9199  -45.4824 H         1 UNK         0.0600 
    184 H184        3.6909  -11.6131  -46.0281 H         1 UNK         0.3000 
    185 H185        2.3219   -8.4056  -46.5001 H         1 UNK         0.0600 
    186 H186        4.4110   -8.0258  -47.8178 H         1 UNK         0.0600 
    187 H187        4.3598   -9.6839  -48.4048 H         1 UNK         0.0600 
    188 H188        3.0945   -8.5414  -48.8600 H         1 UNK         0.0600 
    189 H189        2.2699  -10.8895  -47.9892 H         1 UNK         0.3000 
    190 H190       -1.5864  -21.4075  -46.2404 H         1 UNK         0.3000 
    191 H191       -2.7717  -21.8579  -48.8295 H         1 UNK         0.0600 
    192 H192       -4.8947  -21.5152  -47.6545 H         1 UNK         0.0600 
    193 H193       -3.7461  -20.3225  -47.0681 H         1 UNK         0.0600 
    194 H194       -4.1373  -21.7260  -46.0841 H         1 UNK         0.0600 
    195 H195       -2.5329  -23.7644  -45.8038 H         1 UNK         0.3000 
    196 H196       -3.8875  -26.0873  -46.6916 H         1 UNK         0.0600 
    197 H197       -2.7398  -27.1703  -44.7556 H         1 UNK         0.0600 
    198 H198       -3.4148  -25.6108  -44.3064 H         1 UNK         0.0600 
    199 H199       -1.6832  -25.7740  -44.5835 H         1 UNK         0.0600 
    200 H200       -0.3783  -25.2606  -46.7819 H         1 UNK         0.3000 
    201 H201        0.5269  -27.6470  -48.0021 H         1 UNK         0.0600 
    202 H202        2.0254  -26.0219  -46.8712 H         1 UNK         0.0600 
    203 H203        1.7045  -24.8202  -48.1207 H         1 UNK         0.0600 
    204 H204        2.5629  -26.3025  -48.5203 H         1 UNK         0.0600 
    205 H205       -0.6851  -24.6200  -49.4508 H         1 UNK         0.3000 
    206 H206       -0.2934  -25.4187  -52.2037 H         1 UNK         0.0600 
    207 H207       -0.3137  -23.0436  -51.4851 H         1 UNK         0.0600 
    208 H208       -1.6242  -23.3295  -52.6133 H         1 UNK         0.0600 
    209 H209       -1.9690  -23.2037  -50.8992 H         1 UNK         0.0600 
    210 H210       -2.5187  -26.4751  -49.9004 H         1 UNK         0.3000 
    211 H211       -4.4993  -27.4419  -49.8069 H         1 UNK         0.0600 
    212 H212       -4.0595  -28.2026  -52.7462 H         1 UNK         0.0600 
    213 H213       -5.1567  -28.9895  -51.6193 H         1 UNK         0.0600 
    214 H214       -3.4226  -29.0890  -51.3614 H         1 UNK         0.0600 
    215 H215       -4.5009  -24.7233  -50.2192 H         1 UNK         0.3000 
    216 H216       -5.5959  -22.9007  -50.6591 H         1 UNK         0.0600 
    217 H217       -8.0130  -24.6659  -51.3249 H         1 UNK         0.0600 
    218 H218       -8.0678  -22.9304  -51.0957 H         1 UNK         0.0600 
    219 H219       -7.6169  -23.9724  -49.7540 H         1 UNK         0.0600 
    220 H220       -6.2085  -25.2381  -53.2470 H         1 UNK         0.3000 
    221 H221       -6.9701  -23.5136  -55.2831 H         1 UNK         0.0600 
    222 H222       -5.6114  -26.2533  -55.4648 H         1 UNK         0.0600 
    223 H223       -7.3423  -25.9503  -55.3270 H         1 UNK         0.0600 
    224 H224       -6.4802  -25.4679  -56.7798 H         1 UNK         0.0600 
    225 H225       -3.6001  -24.6601  -54.5984 H         1 UNK         0.3000 
    226 H226       -2.5477  -23.4836  -57.0074 H         1 UNK         0.0600 
    227 H227       -1.5233  -25.4636  -55.8922 H         1 UNK         0.0600 
    228 H228       -0.3640  -24.1628  -56.1146 H         1 UNK         0.0600 
    229 H229       -1.0480  -24.4589  -54.5267 H         1 UNK         0.0600 
    230 H230       -3.2221  -22.1650  -53.8762 H         1 UNK         0.3000 
    231 H231       -1.5907  -19.7121  -54.3425 H         1 UNK         0.0600 
    232 H232       -3.0258  -20.8424  -51.8930 H         1 UNK         0.0600 
    233 H233       -1.2912  -20.6687  -52.1328 H         1 UNK         0.0600 
    234 H234       -2.2921  -19.2414  -51.9376 H         1 UNK         0.0600 
    235 H235       -4.6366  -20.9214  -55.0380 H         1 UNK         0.3000 
    236 H236       -6.5983  -20.1762  -55.6634 H         1 UNK         0.0600 
    237 H237       -5.2598  -18.8007  -57.2658 H         1 UNK         0.0600 
    238 H238       -6.7700  -18.0152  -56.8367 H         1 UNK         0.0600 
    239 H239       -5.2630  -17.4571  -56.1237 H         1 UNK         0.0600 
    240 H240       -6.2344  -20.3247  -52.9294 H         1 UNK         0.3000 
    241 H241       -7.2505  -18.0031  -51.5560 H         1 UNK         0.0600 
    242 H242       -9.3855  -17.5737  -50.7313 H         1 UNK         0.3800 
    243 H243      -10.7599  -18.5063  -51.2488 H         1 UNK         0.3800 
    244 H244       -7.3709  -19.4950  -49.5635 H         1 UNK         0.0800 
    245 H245       -7.0690  -20.8873  -50.5652 H         1 UNK         0.0800 
    246 H246       -5.2979  -18.6275  -48.0900 H         1 UNK         0.0800 
    247 H247       -5.7321  -17.4907  -49.3476 H         1 UNK         0.0800 
@<TRIPOS>BOND
     1    1    2 1    
     2    1  127 1    
     3    1  128 1    
     4    1  129 1    
     5    2    3 2    
     6    2    4 am   BACKBONE|DICT|INTERRES
     7    4    5 1    
     8    4  130 1    
     9    5    6 1    
    10    5   65 1    
    11    5  131 1    
    12    6    7 1    
    13    6  132 1    
    14    6  133 1    
    15    7    8 1    
    16    8    9 1    
    17    8  134 1    
    18    8  135 1    
    19    9   10 ar   
    20    9   14 ar   
    21   10   11 ar   
    22   10  136 1    
    23   11   12 ar   
    24   11  126 1    
    25   12   13 ar   
    26   12  137 1    
    27   13   14 ar   
    28   13   15 1    
    29   14  138 1    
    30   15   16 1    
    31   15  139 1    
    32   15  140 1    
    33   16   17 1    
    34   17   18 1    
    35   17  141 1    
    36   17  142 1    
    37   18   19 1    
    38   18   67 1    
    39   18  143 1    
    40   19   20 am   BACKBONE|DICT|INTERRES
    41   19  144 1    
    42   20   21 2    
    43   20   22 1    
    44   22   23 1    
    45   22   24 1    
    46   22  145 1    
    47   23  146 1    
    48   23  147 1    
    49   23  148 1    
    50   24   25 am   BACKBONE|DICT|INTERRES
    51   24  149 1    
    52   25   26 2    
    53   25   27 1    
    54   27   28 1    
    55   27   29 1    
    56   27  150 1    
    57   28  151 1    
    58   28  152 1    
    59   28  153 1    
    60   29   30 am   BACKBONE|DICT|INTERRES
    61   29  154 1    
    62   30   31 2    
    63   30   32 1    
    64   32   33 1    
    65   32   34 1    
    66   32  155 1    
    67   33  156 1    
    68   33  157 1    
    69   33  158 1    
    70   34   35 am   BACKBONE|DICT|INTERRES
    71   34  159 1    
    72   35   36 2    
    73   35   37 1    
    74   37   38 1    
    75   37   39 1    
    76   37  160 1    
    77   38  161 1    
    78   38  162 1    
    79   38  163 1    
    80   39   40 am   BACKBONE|DICT|INTERRES
    81   39  164 1    
    82   40   41 2    
    83   40   42 1    
    84   42   43 1    
    85   42   44 1    
    86   42  165 1    
    87   43  166 1    
    88   43  167 1    
    89   43  168 1    
    90   44   45 am   BACKBONE|DICT|INTERRES
    91   44  169 1    
    92   45   46 2    
    93   45   47 1    
    94   47   48 1    
    95   47   49 1    
    96   47  170 1    
    97   48  171 1    
    98   48  172 1    
    99   48  173 1    
   100   49   50 am   BACKBONE|DICT|INTERRES
   101   49  174 1    
   102   50   51 2    
   103   50   52 1    
   104   52   53 1    
   105   52   54 1    
   106   52  175 1    
   107   53  176 1    
   108   53  177 1    
   109   53  178 1    
   110   54   55 am   BACKBONE|DICT|INTERRES
   111   54  179 1    
   112   55   56 2    
   113   55   57 1    
   114   57   58 1    
   115   57   59 1    
   116   57  180 1    
   117   58  181 1    
   118   58  182 1    
   119   58  183 1    
   120   59   60 am   BACKBONE|DICT|INTERRES
   121   59  184 1    
   122   60   61 2    
   123   60   62 1    
   124   62   63 1    
   125   62   64 1    
   126   62  185 1    
   127   63  186 1    
   128   63  187 1    
   129   63  188 1    
   130   64   65 am   BACKBONE|DICT|INTERRES
   131   64  189 1    
   132   65   66 2    
   133   67   68 2    
   134   67   69 am   BACKBONE|DICT|INTERRES
   135   69   70 1    
   136   69  190 1    
   137   70   71 1    
   138   70   72 1    
   139   70  191 1    
   140   71  192 1    
   141   71  193 1    
   142   71  194 1    
   143   72   73 2    
   144   72   74 am   BACKBONE|DICT|INTERRES
   145   74   75 1    
   146   74  195 1    
   147   75   76 1    
   148   75   77 1    
   149   75  196 1    
   150   76  197 1    
   151   76  198 1    
   152   76  199 1    
   153   77   78 2    
   154   77   79 am   BACKBONE|DICT|INTERRES
   155   79   80 1    
   156   79  200 1    
   157   80   81 1    
   158   80   82 1    
   159   80  201 1    
   160   81  202 1    
   161   81  203 1    
   162   81  204 1    
   163   82   83 2    
   164   82   84 am   BACKBONE|DICT|INTERRES
   165   84   85 1    
   166   84  205 1    
   167   85   86 1    
   168   85   87 1    
   169   85  206 1    
   170   86  207 1    
   171   86  208 1    
   172   86  209 1    
   173   87   88 2    
   174   87   89 am   BACKBONE|DICT|INTERRES
   175   89   90 1    
   176   89  210 1    
   177   90   91 1    
   178   90   92 1    
   179   90  211 1    
   180   91  212 1    
   181   91  213 1    
   182   91  214 1    
   183   92   93 2    
   184   92   94 am   BACKBONE|DICT|INTERRES
   185   94   95 1    
   186   94  215 1    
   187   95   96 1    
   188   95   97 1    
   189   95  216 1    
   190   96  217 1    
   191   96  218 1    
   192   96  219 1    
   193   97   98 2    
   194   97   99 am   BACKBONE|DICT|INTERRES
   195   99  100 1    
   196   99  220 1    
   197  100  101 1    
   198  100  102 1    
   199  100  221 1    
   200  101  222 1    
   201  101  223 1    
   202  101  224 1    
   203  102  103 2    
   204  102  104 am   BACKBONE|DICT|INTERRES
   205  104  105 1    
   206  104  225 1    
   207  105  106 1    
   208  105  107 1    
   209  105  226 1    
   210  106  227 1    
   211  106  228 1    
   212  106  229 1    
   213  107  108 2    
   214  107  109 am   BACKBONE|DICT|INTERRES
   215  109  110 1    
   216  109  230 1    
   217  110  111 1    
   218  110  112 1    
   219  110  231 1    
   220  111  232 1    
   221  111  233 1    
   222  111  234 1    
   223  112  113 2    
   224  112  114 am   BACKBONE|DICT|INTERRES
   225  114  115 1    
   226  114  235 1    
   227  115  116 1    
   228  115  117 1    
   229  115  236 1    
   230  116  237 1    
   231  116  238 1    
   232  116  239 1    
   233  117  118 2    
   234  117  119 am   BACKBONE|DICT|INTERRES
   235  119  120 1    
   236  119  240 1    
   237  120  121 1    
   238  120  124 1    
   239  120  241 1    
   240  121  122 am   BACKBONE|DICT|INTERRES
   241  121  123 2    
   242  122  242 1    
   243  122  243 1    
   244  124  125 1    
   245  124  244 1    
   246  124  245 1    
   247  125  126 1    
   248  126  246 1    
   249  126  247 1    
@<TRIPOS>SUBSTRUCTURE
     1 UNK         1 GROUP             0       ****    0 ROOT    
