@<TRIPOS>MOLECULE
3R540
247   249    1
SMALL
USER_CHARGES


@<TRIPOS>ATOM
      1 CA         -4.2696   -9.8739  -43.6598 C.3       0 UNK        -0.1800 
      2 C          -4.2767  -10.6369  -44.9772 C.2       0 UNK         0.5000 
      3 O          -4.9274  -10.2069  -45.9293 O.2       0 UNK        -0.5000 
      4 N          -3.5601  -11.7679  -45.0272 N.am      1 UNK        -0.5000 
      5 CA         -3.4031  -12.6322  -46.2036 C.3       1 UNK         0.1400 
      6 C6         -2.6767  -13.9464  -45.8120 C.3       23 UNK        -0.0398 
      7 S7         -2.7555  -15.2553  -47.0794 S.3       23 UNK        -0.2404 
      8 C8         -1.0866  -15.1424  -47.7958 C.3       23 UNK        -0.0205 
      9 C9         -0.9235  -16.1044  -48.9593 C.ar      23 UNK        -0.0193 
     10 C10        -1.4103  -15.7663  -50.2262 C.ar      23 UNK        -0.1150 
     11 C11        -1.2694  -16.6525  -51.2986 C.ar      23 UNK        -0.0193 
     12 C12        -0.6204  -17.8733  -51.0979 C.ar      23 UNK        -0.1150 
     13 C13        -0.1388  -18.2257  -49.8356 C.ar      23 UNK        -0.0193 
     14 C14        -0.2905  -17.3355  -48.7705 C.ar      23 UNK        -0.1150 
     15 C15         0.5462  -19.5668  -49.6329 C.3       23 UNK        -0.0205 
     16 S16        -0.6406  -20.9445  -49.6485 S.3       23 UNK        -0.2404 
     17 C17        -1.5821  -20.7423  -48.0957 C.3       23 UNK        -0.0398 
     18 CA         -1.5103  -22.0351  -47.2427 C.3       11 UNK         0.1400 
     19 N          -0.3489  -22.0653  -46.3488 N.am      11 UNK        -0.5000 
     20 C           0.1047  -23.1796  -45.7586 C.2       10 UNK         0.5000 
     21 O          -0.3993  -24.2897  -45.9269 O.2       10 UNK        -0.5000 
     22 CA          1.2894  -23.0300  -44.7891 C.3       10 UNK         0.1400 
     23 CB          2.6117  -22.8871  -45.5576 C.3       10 UNK        -0.1800 
     24 N           1.1258  -21.9093  -43.8626 N.am      10 UNK        -0.5000 
     25 C           0.1674  -21.8304  -42.9285 C.2       9 UNK         0.5000 
     26 O          -0.6714  -22.7107  -42.7372 O.2       9 UNK        -0.5000 
     27 CA          0.1045  -20.5351  -42.0958 C.3       9 UNK         0.1400 
     28 CB          1.1714  -20.5352  -40.9913 C.3       9 UNK        -0.1800 
     29 N           0.2391  -19.3282  -42.9120 N.am      9 UNK        -0.5000 
     30 C          -0.6174  -18.9730  -43.8803 C.2       8 UNK         0.5000 
     31 O          -1.6347  -19.6020  -44.1636 O.2       8 UNK        -0.5000 
     32 CA         -0.2446  -17.7413  -44.7190 C.3       8 UNK         0.1400 
     33 CB         -0.6327  -16.4511  -43.9869 C.3       8 UNK        -0.1800 
     34 N           1.1751  -17.7100  -45.0766 N.am      8 UNK        -0.5000 
     35 C           1.7987  -18.6705  -45.7747 C.2       7 UNK         0.5000 
     36 O           1.2300  -19.6630  -46.2273 O.2       7 UNK        -0.5000 
     37 CA          3.3182  -18.5236  -45.9511 C.3       7 UNK         0.1400 
     38 CB          3.6508  -17.3995  -46.9411 C.3       7 UNK        -0.1800 
     39 N           3.9937  -18.2805  -44.6761 N.am      7 UNK        -0.5000 
     40 C           4.0387  -19.1639  -43.6681 C.2       6 UNK         0.5000 
     41 O           3.5589  -20.2949  -43.7299 O.2       6 UNK        -0.5000 
     42 CA          4.6984  -18.7002  -42.3561 C.3       6 UNK         0.1400 
     43 CB          6.2011  -19.0175  -42.3694 C.3       6 UNK        -0.1800 
     44 N           4.5085  -17.2776  -42.0601 N.am      6 UNK        -0.5000 
     45 C           3.3258  -16.6703  -41.8913 C.2       5 UNK         0.5000 
     46 O           2.2432  -17.2475  -42.0186 O.2       5 UNK        -0.5000 
     47 CA          3.3462  -15.1733  -41.5334 C.3       5 UNK         0.1400 
     48 CB          4.7296  -14.4997  -41.6638 C.3       5 UNK        -0.1800 
     49 N           2.3834  -14.4844  -42.3820 N.am      5 UNK        -0.5000 
     50 C           1.6791  -13.3975  -42.0623 C.2       4 UNK         0.5000 
     51 O           1.7833  -12.8090  -40.9843 O.2       4 UNK        -0.5000 
     52 CA          0.7072  -12.8831  -43.1472 C.3       4 UNK         0.1400 
     53 CB         -0.1230  -11.6728  -42.6823 C.3       4 UNK        -0.1800 
     54 N           1.3807  -12.5285  -44.3990 N.am      4 UNK        -0.5000 
     55 C           1.9126  -13.3659  -45.2993 C.2       3 UNK         0.5000 
     56 O           1.9208  -14.5931  -45.1702 O.2       3 UNK        -0.5000 
     57 CA          2.4705  -12.7053  -46.5772 C.3       3 UNK         0.1400 
     58 CB          3.2150  -13.6985  -47.4852 C.3       3 UNK        -0.1800 
     59 N           1.3787  -12.1042  -47.3413 N.am      3 UNK        -0.5000 
     60 C           0.8121  -10.9163  -47.0932 C.2       2 UNK         0.5000 
     61 O           1.2199  -10.1268  -46.2408 O.2       2 UNK        -0.5000 
     62 CA         -0.5079  -10.6362  -47.8197 C.3       2 UNK         0.1400 
     63 CB         -0.4469  -11.0718  -49.3039 C.3       2 UNK        -0.1800 
     64 N          -1.5055  -11.3464  -47.0175 N.am      2 UNK        -0.5000 
     65 C          -2.6784  -11.8976  -47.3546 C.2       1 UNK         0.5000 
     66 O          -3.1897  -11.8511  -48.4735 O.2       1 UNK        -0.5000 
     67 C          -2.8309  -22.3357  -46.5002 C.2       11 UNK         0.5000 
     68 O          -3.6905  -23.0092  -47.0704 O.2       11 UNK        -0.5000 
     69 N          -2.9612  -21.8996  -45.2383 N.am      12 UNK        -0.5000 
     70 CA         -4.0810  -22.2506  -44.3612 C.3       12 UNK         0.1400 
     71 CB         -4.0578  -21.3839  -43.0937 C.3       12 UNK        -0.1800 
     72 C          -4.0973  -23.7468  -44.0002 C.2       12 UNK         0.5000 
     73 O          -5.1586  -24.3678  -44.0580 O.2       12 UNK        -0.5000 
     74 N          -2.9230  -24.3160  -43.6883 N.am      13 UNK        -0.5000 
     75 CA         -2.7346  -25.7487  -43.4335 C.3       13 UNK         0.1400 
     76 CB         -1.3107  -25.9992  -42.9150 C.3       13 UNK        -0.1800 
     77 C          -3.0321  -26.6232  -44.6683 C.2       13 UNK         0.5000 
     78 O          -3.5560  -27.7276  -44.5213 O.2       13 UNK        -0.5000 
     79 N          -2.7462  -26.0886  -45.8628 N.am      14 UNK        -0.5000 
     80 CA         -3.0972  -26.6639  -47.1626 C.3       14 UNK         0.1400 
     81 CB         -2.1489  -26.0902  -48.2290 C.3       14 UNK        -0.1800 
     82 C          -4.5715  -26.4340  -47.5646 C.2       14 UNK         0.5000 
     83 O          -4.9420  -26.7861  -48.6847 O.2       14 UNK        -0.5000 
     84 N          -5.3819  -25.8245  -46.6841 N.am      15 UNK        -0.5000 
     85 CA         -6.8075  -25.5153  -46.8519 C.3       15 UNK         0.1400 
     86 CB         -7.6413  -26.8132  -46.8718 C.3       15 UNK        -0.1800 
     87 C          -7.0951  -24.5979  -48.0597 C.2       15 UNK         0.5000 
     88 O          -8.1340  -24.7351  -48.7076 O.2       15 UNK        -0.5000 
     89 N          -6.1478  -23.6936  -48.3488 N.am      16 UNK        -0.5000 
     90 CA         -6.1136  -22.7503  -49.4684 C.3       16 UNK         0.1400 
     91 CB         -7.2862  -21.7510  -49.3969 C.3       16 UNK        -0.1800 
     92 C          -5.9800  -23.4090  -50.8586 C.2       16 UNK         0.5000 
     93 O          -6.1264  -22.7125  -51.8628 O.2       16 UNK        -0.5000 
     94 N          -5.6525  -24.7096  -50.9241 N.am      17 UNK        -0.5000 
     95 CA         -5.3851  -25.4136  -52.1833 C.3       17 UNK         0.1400 
     96 CB         -5.3721  -26.9297  -51.9404 C.3       17 UNK        -0.1800 
     97 C          -4.0633  -24.9547  -52.8262 C.2       17 UNK         0.5000 
     98 O          -3.9839  -24.8263  -54.0479 O.2       17 UNK        -0.5000 
     99 N          -3.0636  -24.6717  -51.9794 N.am      18 UNK        -0.5000 
    100 CA        -1.7580  -24.1404  -52.3723 C.3       18 UNK         0.1400 
    101 CB        -0.7730  -24.3391  -51.2105 C.3       18 UNK        -0.1800 
    102 C         -1.8072  -22.6599  -52.7997 C.2       18 UNK         0.5000 
    103 O         -0.9208  -22.2138  -53.5285 O.2       18 UNK        -0.5000 
    104 N         -2.8478  -21.9267  -52.3720 N.am      19 UNK        -0.5000 
    105 CA        -3.0383  -20.5006  -52.6569 C.3       19 UNK         0.1400 
    106 CB        -4.1217  -19.9232  -51.7345 C.3       19 UNK        -0.1800 
    107 C         -3.3393  -20.1957  -54.1375 C.2       19 UNK         0.5000 
    108 O         -3.1960  -19.0483  -54.5606 O.2       19 UNK        -0.5000 
    109 N         -3.6818  -21.2312  -54.9187 N.am      20 UNK        -0.5000 
    110 CA        -3.8143  -21.1924  -56.3770 C.3       20 UNK         0.1400 
    111 CB        -4.2741  -22.5724  -56.8691 C.3       20 UNK        -0.1800 
    112 C         -2.5243  -20.7598  -57.1078 C.2       20 UNK         0.5000 
    113 O         -2.6087  -20.2538  -58.2277 O.2       20 UNK        -0.5000 
    114 N         -1.3630  -20.9106  -56.4500 N.am      21 UNK        -0.5000 
    115 CA        -0.0548  -20.4345  -56.9066 C.3       21 UNK         0.1400 
    116 CB         1.0172  -20.8858  -55.9034 C.3       21 UNK        -0.1800 
    117 C          0.0237  -18.9078  -57.1226 C.2       21 UNK         0.5000 
    118 O          0.8541  -18.4608  -57.9152 O.2       21 UNK        -0.5000 
    119 N         -0.8438  -18.1397  -56.4474 N.am      22 UNK        -0.5000 
    120 CA        -1.0173  -16.6944  -56.6707 C.3       22 UNK         0.1400 
    121 C         -1.8301  -16.3426  -57.9545 C.2       22 UNK         0.5000 
    122 N         -2.4210  -17.2950  -58.6684 N.am      22 UNK        -0.7600 
    123 O         -1.9185  -15.1736  -58.3204 O.2       22 UNK        -0.5000 
    124 C124       -1.6107  -15.9755  -55.4314 C.3       23 UNK        -0.0398 
    125 S125       -0.5719  -16.1481  -53.9399 S.3       23 UNK        -0.2404 
    126 C126       -1.8556  -16.3213  -52.6620 C.3       23 UNK        -0.0205 
    127 H127       -3.6467  -10.3624  -42.9099 H         1 UNK         0.0600 
    128 H128       -3.8869   -8.8648  -43.8132 H         1 UNK         0.0600 
    129 H129       -5.2825   -9.7990  -43.2640 H         1 UNK         0.0600 
    130 H130       -3.0815  -12.0705  -44.1916 H         1 UNK         0.3000 
    131 H131       -4.4062  -12.8878  -46.5523 H         1 UNK         0.0600 
    132 H132       -1.6382  -13.7544  -45.5388 H         1 UNK         0.0800 
    133 H133       -3.1415  -14.3625  -44.9170 H         1 UNK         0.0800 
    134 H134       -0.3393  -15.3469  -47.0273 H         1 UNK         0.0800 
    135 H135       -0.9044  -14.1260  -48.1417 H         1 UNK         0.0800 
    136 H136       -1.9142  -14.8203  -50.3690 H         1 UNK         0.1150 
    137 H137       -0.4940  -18.5544  -51.9265 H         1 UNK         0.1150 
    138 H138        0.0825  -17.6019  -47.7943 H         1 UNK         0.1150 
    139 H139        1.1245  -19.5836  -48.7120 H         1 UNK         0.0800 
    140 H140        1.2650  -19.7216  -50.4386 H         1 UNK         0.0800 
    141 H141       -2.6082  -20.5091  -48.3859 H         1 UNK         0.0800 
    142 H142       -1.2258  -19.8785  -47.5329 H         1 UNK         0.0800 
    143 H143       -1.3904  -22.8751  -47.9297 H         1 UNK         0.0600 
    144 H144        0.1423  -21.1876  -46.1930 H         1 UNK         0.3000 
    145 H145        1.3450  -23.9443  -44.1948 H         1 UNK         0.0600 
    146 H146        3.4629  -22.8787  -44.8767 H         1 UNK         0.0600 
    147 H147        2.7548  -23.7200  -46.2471 H         1 UNK         0.0600 
    148 H148        2.6433  -21.9675  -46.1421 H         1 UNK         0.0600 
    149 H149        1.8043  -21.1573  -43.9388 H         1 UNK         0.3000 
    150 H150       -0.8758  -20.4982  -41.6162 H         1 UNK         0.0600 
    151 H151        2.1788  -20.5858  -41.4029 H         1 UNK         0.0600 
    152 H152        1.0452  -21.3928  -40.3294 H         1 UNK         0.0600 
    153 H153        1.1053  -19.6364  -40.3778 H         1 UNK         0.0600 
    154 H154        1.0391  -18.7306  -42.7290 H         1 UNK         0.3000 
    155 H155       -0.8221  -17.7890  -45.6440 H         1 UNK         0.0600 
    156 H156       -0.0616  -16.3158  -43.0684 H         1 UNK         0.0600 
    157 H157       -1.6905  -16.4552  -43.7213 H         1 UNK         0.0600 
    158 H158       -0.4633  -15.5854  -44.6218 H         1 UNK         0.0600 
    159 H159        1.7073  -16.9147  -44.7523 H         1 UNK         0.3000 
    160 H160        3.6971  -19.4614  -46.3631 H         1 UNK         0.0600 
    161 H161        3.3472  -16.4285  -46.5535 H         1 UNK         0.0600 
    162 H162        3.1385  -17.5493  -47.8926 H         1 UNK         0.0600 
    163 H163        4.7201  -17.3587  -47.1486 H         1 UNK         0.0600 
    164 H164        4.4071  -17.3704  -44.5393 H         1 UNK         0.3000 
    165 H165        4.2401  -19.2665  -41.5432 H         1 UNK         0.0600 
    166 H166        6.6622  -18.7868  -41.4089 H         1 UNK         0.0600 
    167 H167        6.7257  -18.4509  -43.1397 H         1 UNK         0.0600 
    168 H168        6.3749  -20.0766  -42.5650 H         1 UNK         0.0600 
    169 H169        5.3481  -16.7286  -41.9456 H         1 UNK         0.3000 
    170 H170        3.0213  -15.1032  -40.4934 H         1 UNK         0.0600 
    171 H171        5.4607  -14.9544  -40.9943 H         1 UNK         0.0600 
    172 H172        5.1154  -14.5618  -42.6823 H         1 UNK         0.0600 
    173 H173        4.6758  -13.4438  -41.3981 H         1 UNK         0.0600 
    174 H174        2.2359  -14.8827  -43.3048 H         1 UNK         0.3000 
    175 H175        0.0071  -13.6927  -43.3532 H         1 UNK         0.0600 
    176 H176        0.5104  -10.8127  -42.4612 H         1 UNK         0.0600 
    177 H177       -0.8423  -11.3696  -43.4428 H         1 UNK         0.0600 
    178 H178       -0.6871  -11.9076  -41.7788 H         1 UNK         0.0600 
    179 H179        1.4329  -11.5383  -44.6070 H         1 UNK         0.3000 
    180 H180        3.1771  -11.9299  -46.2740 H         1 UNK         0.0600 
    181 H181        2.5604  -14.4991  -47.8325 H         1 UNK         0.0600 
    182 H182        4.0523  -14.1558  -46.9572 H         1 UNK         0.0600 
    183 H183        3.6229  -13.1977  -48.3634 H         1 UNK         0.0600 
    184 H184        0.9533  -12.6945  -48.0397 H         1 UNK         0.3000 
    185 H185       -0.7119   -9.5655  -47.7665 H         1 UNK         0.0600 
    186 H186       -1.3016  -10.6867  -49.8597 H         1 UNK         0.0600 
    187 H187        0.4445  -10.6745  -49.7913 H         1 UNK         0.0600 
    188 H188       -0.4348  -12.1547  -49.4255 H         1 UNK         0.0600 
    189 H189       -1.2379  -11.4223  -46.0463 H         1 UNK         0.3000 
    190 H190       -2.2510  -21.2895  -44.8427 H         1 UNK         0.3000 
    191 H191       -5.0066  -22.0316  -44.8979 H         1 UNK         0.0600 
    192 H192       -4.8847  -21.6393  -42.4299 H         1 UNK         0.0600 
    193 H193       -4.1548  -20.3264  -43.3393 H         1 UNK         0.0600 
    194 H194       -3.1329  -21.5137  -42.5317 H         1 UNK         0.0600 
    195 H195       -2.0977  -23.7285  -43.6077 H         1 UNK         0.3000 
    196 H196       -3.4357  -26.0401  -42.6488 H         1 UNK         0.0600 
    197 H197       -0.5572  -25.7058  -43.6457 H         1 UNK         0.0600 
    198 H198       -1.1217  -25.4408  -41.9980 H         1 UNK         0.0600 
    199 H199       -1.1569  -27.0553  -42.6904 H         1 UNK         0.0600 
    200 H200       -2.2425  -25.2082  -45.8822 H         1 UNK         0.3000 
    201 H201       -2.9410  -27.7434  -47.1179 H         1 UNK         0.0600 
    202 H202       -2.3078  -25.0219  -48.3706 H         1 UNK         0.0600 
    203 H203       -2.3011  -26.5755  -49.1938 H         1 UNK         0.0600 
    204 H204       -1.1048  -26.2403  -47.9538 H         1 UNK         0.0600 
    205 H205       -4.9856  -25.5229  -45.8018 H         1 UNK         0.3000 
    206 H206       -7.1025  -24.9485  -45.9681 H         1 UNK         0.0600 
    207 H207       -7.4247  -27.4332  -46.0019 H         1 UNK         0.0600 
    208 H208       -8.7094  -26.5935  -46.8537 H         1 UNK         0.0600 
    209 H209       -7.4446  -27.4073  -47.7648 H         1 UNK         0.0600 
    210 H210       -5.3211  -23.6633  -47.7551 H         1 UNK         0.3000 
    211 H211       -5.1962  -22.1760  -49.3322 H         1 UNK         0.0600 
    212 H212       -7.1601  -20.9474  -50.1234 H         1 UNK         0.0600 
    213 H213       -7.3496  -21.2876  -48.4124 H         1 UNK         0.0600 
    214 H214       -8.2427  -22.2301  -49.6063 H         1 UNK         0.0600 
    215 H215       -5.5553  -25.2462  -50.0693 H         1 UNK         0.3000 
    216 H216       -6.1951  -25.1896  -52.8808 H         1 UNK         0.0600 
    217 H217       -4.5454  -27.2292  -51.2954 H         1 UNK         0.0600 
    218 H218       -5.2654  -27.4724  -52.8804 H         1 UNK         0.0600 
    219 H219       -6.2992  -27.2637  -51.4741 H         1 UNK         0.0600 
    220 H220       -3.2201  -24.8123  -50.9927 H         1 UNK         0.3000 
    221 H221       -1.3946  -24.7133  -53.2281 H         1 UNK         0.0600 
    222 H222       -0.6381  -25.3969  -50.9847 H         1 UNK         0.0600 
    223 H223       -1.1167  -23.8443  -50.3023 H         1 UNK         0.0600 
    224 H224        0.2093  -23.9317  -51.4539 H         1 UNK         0.0600 
    225 H225       -3.5632  -22.3778  -51.8231 H         1 UNK         0.3000 
    226 H226       -2.1004  -20.0006  -52.4190 H         1 UNK         0.0600 
    227 H227       -5.1075  -20.3245  -51.9668 H         1 UNK         0.0600 
    228 H228       -3.9049  -20.1336  -50.6871 H         1 UNK         0.0600 
    229 H229       -4.1805  -18.8393  -51.8397 H         1 UNK         0.0600 
    230 H230       -3.7766  -22.1387  -54.4846 H         1 UNK         0.3000 
    231 H231       -4.5882  -20.4618  -56.6202 H         1 UNK         0.0600 
    232 H232       -3.5454  -23.3476  -56.6279 H         1 UNK         0.0600 
    233 H233       -4.4138  -22.5764  -57.9510 H         1 UNK         0.0600 
    234 H234       -5.2252  -22.8561  -56.4179 H         1 UNK         0.0600 
    235 H235       -1.3823  -21.3340  -55.5298 H         1 UNK         0.3000 
    236 H236        0.1510  -20.9107  -57.8672 H         1 UNK         0.0600 
    237 H237        1.0247  -21.9704  -55.7935 H         1 UNK         0.0600 
    238 H238        2.0131  -20.5854  -56.2316 H         1 UNK         0.0600 
    239 H239        0.8506  -20.4506  -54.9170 H         1 UNK         0.0600 
    240 H240       -1.5059  -18.5736  -55.8150 H         1 UNK         0.3000 
    241 H241       -0.0259  -16.2679  -56.8347 H         1 UNK         0.0600 
    242 H242       -2.9343  -17.0386  -59.4968 H         1 UNK         0.3800 
    243 H243       -2.3626  -18.2726  -58.4047 H         1 UNK         0.3800 
    244 H244       -2.6137  -16.3554  -55.2296 H         1 UNK         0.0800 
    245 H245       -1.7237  -14.9069  -55.6228 H         1 UNK         0.0800 
    246 H246       -2.4404  -15.4012  -52.6191 H         1 UNK         0.0800 
    247 H247       -2.5485  -17.1144  -52.9414 H         1 UNK         0.0800 
@<TRIPOS>BOND
     1    1    2 1    
     2    1  127 1    
     3    1  128 1    
     4    1  129 1    
     5    2    3 2    
     6    2    4 am   BACKBONE|DICT|INTERRES
     7    4    5 1    
     8    4  130 1    
     9    5    6 1    
    10    5   65 1    
    11    5  131 1    
    12    6    7 1    
    13    6  132 1    
    14    6  133 1    
    15    7    8 1    
    16    8    9 1    
    17    8  134 1    
    18    8  135 1    
    19    9   10 ar   
    20    9   14 ar   
    21   10   11 ar   
    22   10  136 1    
    23   11   12 ar   
    24   11  126 1    
    25   12   13 ar   
    26   12  137 1    
    27   13   14 ar   
    28   13   15 1    
    29   14  138 1    
    30   15   16 1    
    31   15  139 1    
    32   15  140 1    
    33   16   17 1    
    34   17   18 1    
    35   17  141 1    
    36   17  142 1    
    37   18   19 1    
    38   18   67 1    
    39   18  143 1    
    40   19   20 am   BACKBONE|DICT|INTERRES
    41   19  144 1    
    42   20   21 2    
    43   20   22 1    
    44   22   23 1    
    45   22   24 1    
    46   22  145 1    
    47   23  146 1    
    48   23  147 1    
    49   23  148 1    
    50   24   25 am   BACKBONE|DICT|INTERRES
    51   24  149 1    
    52   25   26 2    
    53   25   27 1    
    54   27   28 1    
    55   27   29 1    
    56   27  150 1    
    57   28  151 1    
    58   28  152 1    
    59   28  153 1    
    60   29   30 am   BACKBONE|DICT|INTERRES
    61   29  154 1    
    62   30   31 2    
    63   30   32 1    
    64   32   33 1    
    65   32   34 1    
    66   32  155 1    
    67   33  156 1    
    68   33  157 1    
    69   33  158 1    
    70   34   35 am   BACKBONE|DICT|INTERRES
    71   34  159 1    
    72   35   36 2    
    73   35   37 1    
    74   37   38 1    
    75   37   39 1    
    76   37  160 1    
    77   38  161 1    
    78   38  162 1    
    79   38  163 1    
    80   39   40 am   BACKBONE|DICT|INTERRES
    81   39  164 1    
    82   40   41 2    
    83   40   42 1    
    84   42   43 1    
    85   42   44 1    
    86   42  165 1    
    87   43  166 1    
    88   43  167 1    
    89   43  168 1    
    90   44   45 am   BACKBONE|DICT|INTERRES
    91   44  169 1    
    92   45   46 2    
    93   45   47 1    
    94   47   48 1    
    95   47   49 1    
    96   47  170 1    
    97   48  171 1    
    98   48  172 1    
    99   48  173 1    
   100   49   50 am   BACKBONE|DICT|INTERRES
   101   49  174 1    
   102   50   51 2    
   103   50   52 1    
   104   52   53 1    
   105   52   54 1    
   106   52  175 1    
   107   53  176 1    
   108   53  177 1    
   109   53  178 1    
   110   54   55 am   BACKBONE|DICT|INTERRES
   111   54  179 1    
   112   55   56 2    
   113   55   57 1    
   114   57   58 1    
   115   57   59 1    
   116   57  180 1    
   117   58  181 1    
   118   58  182 1    
   119   58  183 1    
   120   59   60 am   BACKBONE|DICT|INTERRES
   121   59  184 1    
   122   60   61 2    
   123   60   62 1    
   124   62   63 1    
   125   62   64 1    
   126   62  185 1    
   127   63  186 1    
   128   63  187 1    
   129   63  188 1    
   130   64   65 am   BACKBONE|DICT|INTERRES
   131   64  189 1    
   132   65   66 2    
   133   67   68 2    
   134   67   69 am   BACKBONE|DICT|INTERRES
   135   69   70 1    
   136   69  190 1    
   137   70   71 1    
   138   70   72 1    
   139   70  191 1    
   140   71  192 1    
   141   71  193 1    
   142   71  194 1    
   143   72   73 2    
   144   72   74 am   BACKBONE|DICT|INTERRES
   145   74   75 1    
   146   74  195 1    
   147   75   76 1    
   148   75   77 1    
   149   75  196 1    
   150   76  197 1    
   151   76  198 1    
   152   76  199 1    
   153   77   78 2    
   154   77   79 am   BACKBONE|DICT|INTERRES
   155   79   80 1    
   156   79  200 1    
   157   80   81 1    
   158   80   82 1    
   159   80  201 1    
   160   81  202 1    
   161   81  203 1    
   162   81  204 1    
   163   82   83 2    
   164   82   84 am   BACKBONE|DICT|INTERRES
   165   84   85 1    
   166   84  205 1    
   167   85   86 1    
   168   85   87 1    
   169   85  206 1    
   170   86  207 1    
   171   86  208 1    
   172   86  209 1    
   173   87   88 2    
   174   87   89 am   BACKBONE|DICT|INTERRES
   175   89   90 1    
   176   89  210 1    
   177   90   91 1    
   178   90   92 1    
   179   90  211 1    
   180   91  212 1    
   181   91  213 1    
   182   91  214 1    
   183   92   93 2    
   184   92   94 am   BACKBONE|DICT|INTERRES
   185   94   95 1    
   186   94  215 1    
   187   95   96 1    
   188   95   97 1    
   189   95  216 1    
   190   96  217 1    
   191   96  218 1    
   192   96  219 1    
   193   97   98 2    
   194   97   99 am   BACKBONE|DICT|INTERRES
   195   99  100 1    
   196   99  220 1    
   197  100  101 1    
   198  100  102 1    
   199  100  221 1    
   200  101  222 1    
   201  101  223 1    
   202  101  224 1    
   203  102  103 2    
   204  102  104 am   BACKBONE|DICT|INTERRES
   205  104  105 1    
   206  104  225 1    
   207  105  106 1    
   208  105  107 1    
   209  105  226 1    
   210  106  227 1    
   211  106  228 1    
   212  106  229 1    
   213  107  108 2    
   214  107  109 am   BACKBONE|DICT|INTERRES
   215  109  110 1    
   216  109  230 1    
   217  110  111 1    
   218  110  112 1    
   219  110  231 1    
   220  111  232 1    
   221  111  233 1    
   222  111  234 1    
   223  112  113 2    
   224  112  114 am   BACKBONE|DICT|INTERRES
   225  114  115 1    
   226  114  235 1    
   227  115  116 1    
   228  115  117 1    
   229  115  236 1    
   230  116  237 1    
   231  116  238 1    
   232  116  239 1    
   233  117  118 2    
   234  117  119 am   BACKBONE|DICT|INTERRES
   235  119  120 1    
   236  119  240 1    
   237  120  121 1    
   238  120  124 1    
   239  120  241 1    
   240  121  122 am   BACKBONE|DICT|INTERRES
   241  121  123 2    
   242  122  242 1    
   243  122  243 1    
   244  124  125 1    
   245  124  244 1    
   246  124  245 1    
   247  125  126 1    
   248  126  246 1    
   249  126  247 1    
@<TRIPOS>SUBSTRUCTURE
     1 UNK         1 GROUP             0       ****    0 ROOT    
