@<TRIPOS>MOLECULE
3R540
247   249    1
SMALL
USER_CHARGES


@<TRIPOS>ATOM
      1 CA         -1.2113  -15.2667  -51.8026 C.3       0 UNK        -0.1800 
      2 C          -0.2646  -14.4975  -50.8943 C.2       0 UNK         0.5000 
      3 O          -0.4836  -13.3123  -50.6470 O.2       0 UNK        -0.5000 
      4 N           0.7689  -15.1701  -50.3719 N.am      1 UNK        -0.5000 
      5 CA          1.7700  -14.5964  -49.4577 C.3       1 UNK         0.1400 
      6 C6          3.1533  -15.2847  -49.5832 C.3       23 UNK        -0.0398 
      7 S7          3.8445  -15.1675  -51.2704 S.3       23 UNK        -0.2404 
      8 C8          4.0232  -16.9181  -51.7389 C.3       23 UNK        -0.0205 
      9 C9          2.6787  -17.6146  -51.8761 C.ar      23 UNK        -0.0193 
     10 C10         1.8867  -17.3990  -53.0078 C.ar      23 UNK        -0.1150 
     11 C11         0.6511  -18.0383  -53.1407 C.ar      23 UNK        -0.0193 
     12 C12         0.2099  -18.8954  -52.1288 C.ar      23 UNK        -0.1150 
     13 C13         0.9836  -19.1046  -50.9846 C.ar      23 UNK        -0.0193 
     14 C14         2.2242  -18.4729  -50.8709 C.ar      23 UNK        -0.1150 
     15 C15         0.4813  -20.0136  -49.8747 C.3       23 UNK        -0.0205 
     16 S16         0.0928  -19.0736  -48.3611 S.3       23 UNK        -0.2404 
     17 C17        -1.1382  -20.1621  -47.5720 C.3       23 UNK        -0.0398 
     18 CA         -0.5775  -21.5389  -47.1388 C.3       11 UNK         0.1400 
     19 N           0.2903  -21.4743  -45.9588 N.am      11 UNK        -0.5000 
     20 C           0.9776  -22.5159  -45.4648 C.2       10 UNK         0.5000 
     21 O           0.9970  -23.6301  -45.9863 O.2       10 UNK        -0.5000 
     22 CA          1.7152  -22.3049  -44.1308 C.3       10 UNK         0.1400 
     23 CB          3.0255  -21.5295  -44.3326 C.3       10 UNK        -0.1800 
     24 N           0.8782  -21.6368  -43.1341 N.am      10 UNK        -0.5000 
     25 C          -0.2526  -22.1542  -42.6309 C.2       9 UNK         0.5000 
     26 O          -0.6751  -23.2772  -42.9106 O.2       9 UNK        -0.5000 
     27 CA         -1.0743  -21.2498  -41.6938 C.3       9 UNK         0.1400 
     28 CB         -0.5103  -21.2854  -40.2658 C.3       9 UNK        -0.1800 
     29 N          -1.1444  -19.8651  -42.1634 N.am      9 UNK        -0.5000 
     30 C          -1.7182  -19.4823  -43.3132 C.2       8 UNK         0.5000 
     31 O          -2.2999  -20.2509  -44.0768 O.2       8 UNK        -0.5000 
     32 CA         -1.5645  -18.0062  -43.7145 C.3       8 UNK         0.1400 
     33 CB         -2.5686  -17.1174  -42.9668 C.3       8 UNK        -0.1800 
     34 N          -0.2066  -17.5086  -43.5025 N.am      8 UNK        -0.5000 
     35 C           0.8820  -17.9824  -44.1240 C.2       7 UNK         0.5000 
     36 O           0.8456  -18.8513  -44.9921 O.2       7 UNK        -0.5000 
     37 CA          2.2411  -17.4335  -43.6601 C.3       7 UNK         0.1400 
     38 CB          2.5724  -16.1068  -44.3562 C.3       7 UNK        -0.1800 
     39 N           2.2879  -17.2573  -42.2098 N.am      7 UNK        -0.5000 
     40 C           2.3292  -18.2687  -41.3316 C.2       6 UNK         0.5000 
     41 O           2.3713  -19.4554  -41.6565 O.2       6 UNK        -0.5000 
     42 CA          2.2715  -17.8861  -39.8415 C.3       6 UNK         0.1400 
     43 CB          3.6632  -17.4870  -39.3286 C.3       6 UNK        -0.1800 
     44 N           1.3259  -16.7990  -39.5797 N.am      6 UNK        -0.5000 
     45 C          -0.0028  -16.9090  -39.7168 C.2       5 UNK         0.5000 
     46 O          -0.5703  -17.9487  -40.0496 O.2       5 UNK        -0.5000 
     47 CA         -0.8339  -15.6325  -39.4878 C.3       5 UNK         0.1400 
     48 CB         -1.1647  -15.4660  -37.9973 C.3       5 UNK        -0.1800 
     49 N          -0.1965  -14.4082  -39.9844 N.am      5 UNK        -0.5000 
     50 C           0.1497  -14.1880  -41.2590 C.2       4 UNK         0.5000 
     51 O           0.0382  -15.0282  -42.1557 O.2       4 UNK        -0.5000 
     52 CA          0.7527  -12.8153  -41.5805 C.3       4 UNK         0.1400 
     53 CB          2.2411  -12.7722  -41.1977 C.3       4 UNK        -0.1800 
     54 N           0.6228  -12.5813  -43.0137 N.am      4 UNK        -0.5000 
     55 C           0.2528  -11.4383  -43.5990 C.2       3 UNK         0.5000 
     56 O           0.0246  -10.3979  -42.9802 O.2       3 UNK        -0.5000 
     57 CA          0.1225  -11.4479  -45.1356 C.3       3 UNK         0.1400 
     58 CB          1.2649  -10.6440  -45.7765 C.3       3 UNK        -0.1800 
     59 N           0.1303  -12.7954  -45.7092 N.am      3 UNK        -0.5000 
     60 C          -0.9190  -13.6201  -45.7909 C.2       2 UNK         0.5000 
     61 O          -2.0401  -13.3209  -45.3774 O.2       2 UNK        -0.5000 
     62 CA         -0.6683  -15.0004  -46.4482 C.3       2 UNK         0.1400 
     63 CB         -1.9679  -15.7996  -46.6531 C.3       2 UNK        -0.1800 
     64 N           0.0223  -14.9368  -47.7399 N.am      2 UNK        -0.5000 
     65 C           1.2899  -14.5764  -47.9866 C.2       1 UNK         0.5000 
     66 O           2.0720  -14.2255  -47.1022 O.2       1 UNK        -0.5000 
     67 C          -1.7284  -22.5450  -46.9569 C.2       11 UNK         0.5000 
     68 O          -1.9527  -23.3516  -47.8589 O.2       11 UNK        -0.5000 
     69 N          -2.4005  -22.5075  -45.7962 N.am      12 UNK        -0.5000 
     70 CA         -3.4999  -23.4047  -45.4374 C.3       12 UNK         0.1400 
     71 CB         -4.0853  -23.0075  -44.0744 C.3       12 UNK        -0.1800 
     72 C          -3.0958  -24.8873  -45.4530 C.2       12 UNK         0.5000 
     73 O          -3.8332  -25.7102  -45.9974 O.2       12 UNK        -0.5000 
     74 N          -1.9156  -25.1875  -44.8953 N.am      13 UNK        -0.5000 
     75 CA         -1.3091  -26.5164  -44.9166 C.3       13 UNK         0.1400 
     76 CB         -0.1167  -26.5425  -43.9481 C.3       13 UNK        -0.1800 
     77 C          -0.8742  -26.9530  -46.3289 C.2       13 UNK         0.5000 
     78 O          -1.0503  -28.1203  -46.6805 O.2       13 UNK        -0.5000 
     79 N          -0.3055  -26.0189  -47.1028 N.am      14 UNK        -0.5000 
     80 CA          0.2296  -26.2660  -48.4389 C.3       14 UNK         0.1400 
     81 CB          1.1786  -25.1241  -48.8381 C.3       14 UNK        -0.1800 
     82 C          -0.8534  -26.4680  -49.5121 C.2       14 UNK         0.5000 
     83 O          -0.8016  -27.4671  -50.2317 O.2       14 UNK        -0.5000 
     84 N          -1.7805  -25.5085  -49.6405 N.am      15 UNK        -0.5000 
     85 CA         -2.6928  -25.4151  -50.7834 C.3       15 UNK         0.1400 
     86 CB         -1.9324  -24.8863  -52.0180 C.3       15 UNK        -0.1800 
     87 C          -3.9630  -24.5977  -50.4788 C.2       15 UNK         0.5000 
     88 O          -4.5052  -23.9588  -51.3820 O.2       15 UNK        -0.5000 
     89 N          -4.4431  -24.6574  -49.2294 N.am      16 UNK        -0.5000 
     90 CA         -5.6842  -24.0438  -48.7469 C.3       16 UNK         0.1400 
     91 CB         -6.9149  -24.7257  -49.3892 C.3       16 UNK        -0.1800 
     92 C          -5.6820  -22.5002  -48.8570 C.2       16 UNK         0.5000 
     93 O          -4.8156  -21.8553  -48.2659 O.2       16 UNK        -0.5000 
     94 N          -6.6693  -21.9257  -49.5574 N.am      17 UNK        -0.5000 
     95 CA         -7.0124  -20.4992  -49.5888 C.3       17 UNK         0.1400 
     96 CB         -8.4646  -20.3631  -50.0835 C.3       17 UNK        -0.1800 
     97 C          -6.0293  -19.5881  -50.3635 C.2       17 UNK         0.5000 
     98 O          -6.4684  -18.7601  -51.1645 O.2       17 UNK        -0.5000 
     99 N          -4.7274  -19.7338  -50.0800 N.am      18 UNK        -0.5000 
    100 CA        -3.5931  -18.8976  -50.4888 C.3       18 UNK         0.1400 
    101 CB        -3.4925  -17.6737  -49.5551 C.3       18 UNK        -0.1800 
    102 C         -3.5959  -18.5295  -51.9848 C.2       18 UNK         0.5000 
    103 O         -3.1985  -19.3549  -52.8056 O.2       18 UNK        -0.5000 
    104 N         -4.0667  -17.3185  -52.3183 N.am      19 UNK        -0.5000 
    105 CA        -4.1867  -16.7770  -53.6759 C.3       19 UNK         0.1400 
    106 CB        -4.8243  -15.3820  -53.6036 C.3       19 UNK        -0.1800 
    107 C         -4.9705  -17.6720  -54.6567 C.2       19 UNK         0.5000 
    108 O         -4.6811  -17.6473  -55.8534 O.2       19 UNK        -0.5000 
    109 N         -5.9027  -18.4833  -54.1355 N.am      20 UNK        -0.5000 
    110 CA        -6.6540  -19.4893  -54.8882 C.3       20 UNK         0.1400 
    111 CB        -7.7243  -20.1021  -53.9732 C.3       20 UNK        -0.1800 
    112 C         -5.7743  -20.6029  -55.4945 C.2       20 UNK         0.5000 
    113 O         -6.1726  -21.1976  -56.4968 O.2       20 UNK        -0.5000 
    114 N         -4.6038  -20.8662  -54.8940 N.am      21 UNK        -0.5000 
    115 CA        -3.6258  -21.8314  -55.3941 C.3       21 UNK         0.1400 
    116 CB        -2.6638  -22.2183  -54.2613 C.3       21 UNK        -0.1800 
    117 C         -2.8389  -21.2830  -56.5965 C.2       21 UNK         0.5000 
    118 O         -2.5579  -22.0357  -57.5304 O.2       21 UNK        -0.5000 
    119 N         -2.4947  -19.9900  -56.5466 N.am      22 UNK        -0.5000 
    120 CA        -1.7503  -19.2919  -57.6057 C.3       22 UNK         0.1400 
    121 C         -2.6593  -18.7968  -58.7637 C.2       22 UNK         0.5000 
    122 N         -3.8939  -18.3866  -58.5013 N.am      22 UNK        -0.7600 
    123 O         -2.2399  -18.7905  -59.9178 O.2       22 UNK        -0.5000 
    124 C124       -0.8939  -18.1269  -57.0514 C.3       23 UNK        -0.0398 
    125 S125        0.3390  -18.6782  -55.8201 S.3       23 UNK        -0.2404 
    126 C126       -0.2254  -17.7682  -54.3532 C.3       23 UNK        -0.0205 
    127 H127       -1.0321  -15.0037  -52.8447 H         1 UNK         0.0600 
    128 H128       -1.0909  -16.3429  -51.6893 H         1 UNK         0.0600 
    129 H129       -2.2443  -15.0198  -51.5598 H         1 UNK         0.0600 
    130 H130        0.9147  -16.1385  -50.6243 H         1 UNK         0.3000 
    131 H131        1.9159  -13.5489  -49.7302 H         1 UNK         0.0600 
    132 H132        3.0952  -16.3259  -49.2657 H         1 UNK         0.0800 
    133 H133        3.8762  -14.8119  -48.9159 H         1 UNK         0.0800 
    134 H134        4.5561  -16.9754  -52.6891 H         1 UNK         0.0800 
    135 H135        4.6521  -17.4277  -51.0072 H         1 UNK         0.0800 
    136 H136        2.2305  -16.7292  -53.7837 H         1 UNK         0.1150 
    137 H137       -0.7405  -19.3962  -52.2293 H         1 UNK         0.1150 
    138 H138        2.8280  -18.6435  -49.9905 H         1 UNK         0.1150 
    139 H139       -0.4007  -20.5634  -50.2068 H         1 UNK         0.0800 
    140 H140        1.2446  -20.7598  -49.6503 H         1 UNK         0.0800 
    141 H141       -1.9619  -20.2819  -48.2769 H         1 UNK         0.0800 
    142 H142       -1.5598  -19.6374  -46.7136 H         1 UNK         0.0800 
    143 H143        0.0346  -21.9313  -47.9516 H         1 UNK         0.0600 
    144 H144        0.3712  -20.5677  -45.5029 H         1 UNK         0.3000 
    145 H145        1.9697  -23.2909  -43.7361 H         1 UNK         0.0600 
    146 H146        3.5684  -21.4217  -43.3935 H         1 UNK         0.0600 
    147 H147        3.6813  -22.0518  -45.0300 H         1 UNK         0.0600 
    148 H148        2.8514  -20.5323  -44.7344 H         1 UNK         0.0600 
    149 H149        1.1830  -20.7226  -42.8190 H         1 UNK         0.3000 
    150 H150       -2.0928  -21.6416  -41.6640 H         1 UNK         0.0600 
    151 H151       -0.4628  -22.3081  -39.8898 H         1 UNK         0.0600 
    152 H152       -1.1383  -20.7157  -39.5807 H         1 UNK         0.0600 
    153 H153        0.4966  -20.8701  -40.2188 H         1 UNK         0.0600 
    154 H154       -0.7340  -19.1585  -41.5598 H         1 UNK         0.3000 
    155 H155       -1.7765  -17.9393  -44.7819 H         1 UNK         0.0600 
    156 H156       -2.4366  -17.1802  -41.8872 H         1 UNK         0.0600 
    157 H157       -3.5931  -17.4177  -43.1892 H         1 UNK         0.0600 
    158 H158       -2.4644  -16.0711  -43.2549 H         1 UNK         0.0600 
    159 H159       -0.0960  -16.7484  -42.8360 H         1 UNK         0.3000 
    160 H160        3.0073  -18.1592  -43.9408 H         1 UNK         0.0600 
    161 H161        3.5545  -15.7388  -44.0593 H         1 UNK         0.0600 
    162 H162        1.8420  -15.3305  -44.1304 H         1 UNK         0.0600 
    163 H163        2.5905  -16.2389  -45.4382 H         1 UNK         0.0600 
    164 H164        2.1947  -16.3150  -41.8617 H         1 UNK         0.3000 
    165 H165        1.9420  -18.7661  -39.2848 H         1 UNK         0.0600 
    166 H166        3.6461  -17.2892  -38.2567 H         1 UNK         0.0600 
    167 H167        4.3853  -18.2867  -39.4990 H         1 UNK         0.0600 
    168 H168        4.0382  -16.5935  -39.8293 H         1 UNK         0.0600 
    169 H169        1.7116  -15.9085  -39.3028 H         1 UNK         0.3000 
    170 H170       -1.7735  -15.7539  -40.0299 H         1 UNK         0.0600 
    171 H171       -1.6586  -16.3562  -37.6050 H         1 UNK         0.0600 
    172 H172       -0.2669  -15.2989  -37.4009 H         1 UNK         0.0600 
    173 H173       -1.8384  -14.6247  -37.8340 H         1 UNK         0.0600 
    174 H174       -0.0569  -13.6721  -39.3072 H         1 UNK         0.3000 
    175 H175        0.2035  -12.0576  -41.0177 H         1 UNK         0.0600 
    176 H176        2.8158  -13.5323  -41.7288 H         1 UNK         0.0600 
    177 H177        2.6776  -11.8010  -41.4316 H         1 UNK         0.0600 
    178 H178        2.3792  -12.9402  -40.1290 H         1 UNK         0.0600 
    179 H179        0.7062  -13.4105  -43.5847 H         1 UNK         0.3000 
    180 H180       -0.8217  -10.9609  -45.3881 H         1 UNK         0.0600 
    181 H181        2.2378  -11.0879  -45.5611 H         1 UNK         0.0600 
    182 H182        1.2810   -9.6188  -45.4045 H         1 UNK         0.0600 
    183 H183        1.1519  -10.5938  -46.8596 H         1 UNK         0.0600 
    184 H184        1.0130  -13.1275  -46.0920 H         1 UNK         0.3000 
    185 H185       -0.0386  -15.5636  -45.7589 H         1 UNK         0.0600 
    186 H186       -2.5361  -15.8835  -45.7270 H         1 UNK         0.0600 
    187 H187       -2.6176  -15.3263  -47.3902 H         1 UNK         0.0600 
    188 H188       -1.7539  -16.8122  -46.9949 H         1 UNK         0.0600 
    189 H189       -0.5377  -15.1782  -48.5432 H         1 UNK         0.3000 
    190 H190       -2.1808  -21.7767  -45.1231 H         1 UNK         0.3000 
    191 H191       -4.2834  -23.2713  -46.1802 H         1 UNK         0.0600 
    192 H192       -3.3439  -23.0792  -43.2793 H         1 UNK         0.0600 
    193 H193       -4.9198  -23.6557  -43.8043 H         1 UNK         0.0600 
    194 H194       -4.4619  -21.9847  -44.0909 H         1 UNK         0.0600 
    195 H195       -1.3887  -24.4500  -44.4379 H         1 UNK         0.3000 
    196 H196       -2.0519  -27.2330  -44.5599 H         1 UNK         0.0600 
    197 H197        0.6501  -25.8214  -44.2341 H         1 UNK         0.0600 
    198 H198        0.3491  -27.5285  -43.9268 H         1 UNK         0.0600 
    199 H199       -0.4308  -26.3078  -42.9308 H         1 UNK         0.0600 
    200 H200       -0.1536  -25.0911  -46.7199 H         1 UNK         0.3000 
    201 H201        0.8230  -27.1819  -48.3969 H         1 UNK         0.0600 
    202 H202        2.0203  -25.0535  -48.1491 H         1 UNK         0.0600 
    203 H203        0.6705  -24.1596  -48.8446 H         1 UNK         0.0600 
    204 H204        1.5889  -25.2859  -49.8356 H         1 UNK         0.0600 
    205 H205       -1.7852  -24.7202  -48.9916 H         1 UNK         0.3000 
    206 H206       -3.0524  -26.4192  -51.0173 H         1 UNK         0.0600 
    207 H207       -1.0677  -25.5051  -52.2568 H         1 UNK         0.0600 
    208 H208       -2.5714  -24.8882  -52.9014 H         1 UNK         0.0600 
    209 H209       -1.5802  -23.8663  -51.8604 H         1 UNK         0.0600 
    210 H210       -3.9085  -25.1634  -48.5362 H         1 UNK         0.3000 
    211 H211       -5.7304  -24.2641  -47.6805 H         1 UNK         0.0600 
    212 H212       -6.9670  -24.5620  -50.4660 H         1 UNK         0.0600 
    213 H213       -7.8437  -24.3591  -48.9500 H         1 UNK         0.0600 
    214 H214       -6.8909  -25.8028  -49.2228 H         1 UNK         0.0600 
    215 H215       -7.3009  -22.5363  -50.0544 H         1 UNK         0.3000 
    216 H216       -6.9938  -20.1399  -48.5579 H         1 UNK         0.0600 
    217 H217       -8.7941  -19.3233  -50.0659 H         1 UNK         0.0600 
    218 H218       -9.1509  -20.9249  -49.4496 H         1 UNK         0.0600 
    219 H219       -8.5787  -20.7277  -51.1043 H         1 UNK         0.0600 
    220 H220       -4.5073  -20.4819  -49.4257 H         1 UNK         0.3000 
    221 H221       -2.6976  -19.5001  -50.3385 H         1 UNK         0.0600 
    222 H222       -4.3873  -17.0515  -49.5911 H         1 UNK         0.0600 
    223 H223       -3.3581  -17.9896  -48.5206 H         1 UNK         0.0600 
    224 H224       -2.6357  -17.0498  -49.8105 H         1 UNK         0.0600 
    225 H225       -4.4282  -16.7371  -51.5769 H         1 UNK         0.3000 
    226 H226       -3.1774  -16.6667  -54.0746 H         1 UNK         0.0600 
    227 H227       -4.2242  -14.7009  -53.0005 H         1 UNK         0.0600 
    228 H228       -4.9120  -14.9400  -54.5972 H         1 UNK         0.0600 
    229 H229       -5.8253  -15.4209  -53.1720 H         1 UNK         0.0600 
    230 H230       -6.0619  -18.4567  -53.1325 H         1 UNK         0.3000 
    231 H231       -7.1564  -18.9793  -55.7126 H         1 UNK         0.0600 
    232 H232       -8.3695  -19.3344  -53.5453 H         1 UNK         0.0600 
    233 H233       -7.2717  -20.6582  -53.1516 H         1 UNK         0.0600 
    234 H234       -8.3615  -20.7939  -54.5253 H         1 UNK         0.0600 
    235 H235       -4.3245  -20.3233  -54.0822 H         1 UNK         0.3000 
    236 H236       -4.1556  -22.7323  -55.7109 H         1 UNK         0.0600 
    237 H237       -2.0193  -23.0433  -54.5662 H         1 UNK         0.0600 
    238 H238       -2.0151  -21.3896  -53.9754 H         1 UNK         0.0600 
    239 H239       -3.2100  -22.5349  -53.3733 H         1 UNK         0.0600 
    240 H240       -2.7906  -19.4378  -55.7561 H         1 UNK         0.3000 
    241 H241       -1.0531  -20.0052  -58.0507 H         1 UNK         0.0600 
    242 H242       -4.4814  -18.0729  -59.2570 H         1 UNK         0.3800 
    243 H243       -4.2213  -18.2955  -57.5426 H         1 UNK         0.3800 
    244 H244       -0.3465  -17.6420  -57.8617 H         1 UNK         0.0800 
    245 H245       -1.5364  -17.3572  -56.6200 H         1 UNK         0.0800 
    246 H246       -0.2284  -16.6987  -54.5683 H         1 UNK         0.0800 
    247 H247       -1.2570  -18.0478  -54.1412 H         1 UNK         0.0800 
@<TRIPOS>BOND
     1    1    2 1    
     2    1  127 1    
     3    1  128 1    
     4    1  129 1    
     5    2    3 2    
     6    2    4 am   BACKBONE|DICT|INTERRES
     7    4    5 1    
     8    4  130 1    
     9    5    6 1    
    10    5   65 1    
    11    5  131 1    
    12    6    7 1    
    13    6  132 1    
    14    6  133 1    
    15    7    8 1    
    16    8    9 1    
    17    8  134 1    
    18    8  135 1    
    19    9   10 ar   
    20    9   14 ar   
    21   10   11 ar   
    22   10  136 1    
    23   11   12 ar   
    24   11  126 1    
    25   12   13 ar   
    26   12  137 1    
    27   13   14 ar   
    28   13   15 1    
    29   14  138 1    
    30   15   16 1    
    31   15  139 1    
    32   15  140 1    
    33   16   17 1    
    34   17   18 1    
    35   17  141 1    
    36   17  142 1    
    37   18   19 1    
    38   18   67 1    
    39   18  143 1    
    40   19   20 am   BACKBONE|DICT|INTERRES
    41   19  144 1    
    42   20   21 2    
    43   20   22 1    
    44   22   23 1    
    45   22   24 1    
    46   22  145 1    
    47   23  146 1    
    48   23  147 1    
    49   23  148 1    
    50   24   25 am   BACKBONE|DICT|INTERRES
    51   24  149 1    
    52   25   26 2    
    53   25   27 1    
    54   27   28 1    
    55   27   29 1    
    56   27  150 1    
    57   28  151 1    
    58   28  152 1    
    59   28  153 1    
    60   29   30 am   BACKBONE|DICT|INTERRES
    61   29  154 1    
    62   30   31 2    
    63   30   32 1    
    64   32   33 1    
    65   32   34 1    
    66   32  155 1    
    67   33  156 1    
    68   33  157 1    
    69   33  158 1    
    70   34   35 am   BACKBONE|DICT|INTERRES
    71   34  159 1    
    72   35   36 2    
    73   35   37 1    
    74   37   38 1    
    75   37   39 1    
    76   37  160 1    
    77   38  161 1    
    78   38  162 1    
    79   38  163 1    
    80   39   40 am   BACKBONE|DICT|INTERRES
    81   39  164 1    
    82   40   41 2    
    83   40   42 1    
    84   42   43 1    
    85   42   44 1    
    86   42  165 1    
    87   43  166 1    
    88   43  167 1    
    89   43  168 1    
    90   44   45 am   BACKBONE|DICT|INTERRES
    91   44  169 1    
    92   45   46 2    
    93   45   47 1    
    94   47   48 1    
    95   47   49 1    
    96   47  170 1    
    97   48  171 1    
    98   48  172 1    
    99   48  173 1    
   100   49   50 am   BACKBONE|DICT|INTERRES
   101   49  174 1    
   102   50   51 2    
   103   50   52 1    
   104   52   53 1    
   105   52   54 1    
   106   52  175 1    
   107   53  176 1    
   108   53  177 1    
   109   53  178 1    
   110   54   55 am   BACKBONE|DICT|INTERRES
   111   54  179 1    
   112   55   56 2    
   113   55   57 1    
   114   57   58 1    
   115   57   59 1    
   116   57  180 1    
   117   58  181 1    
   118   58  182 1    
   119   58  183 1    
   120   59   60 am   BACKBONE|DICT|INTERRES
   121   59  184 1    
   122   60   61 2    
   123   60   62 1    
   124   62   63 1    
   125   62   64 1    
   126   62  185 1    
   127   63  186 1    
   128   63  187 1    
   129   63  188 1    
   130   64   65 am   BACKBONE|DICT|INTERRES
   131   64  189 1    
   132   65   66 2    
   133   67   68 2    
   134   67   69 am   BACKBONE|DICT|INTERRES
   135   69   70 1    
   136   69  190 1    
   137   70   71 1    
   138   70   72 1    
   139   70  191 1    
   140   71  192 1    
   141   71  193 1    
   142   71  194 1    
   143   72   73 2    
   144   72   74 am   BACKBONE|DICT|INTERRES
   145   74   75 1    
   146   74  195 1    
   147   75   76 1    
   148   75   77 1    
   149   75  196 1    
   150   76  197 1    
   151   76  198 1    
   152   76  199 1    
   153   77   78 2    
   154   77   79 am   BACKBONE|DICT|INTERRES
   155   79   80 1    
   156   79  200 1    
   157   80   81 1    
   158   80   82 1    
   159   80  201 1    
   160   81  202 1    
   161   81  203 1    
   162   81  204 1    
   163   82   83 2    
   164   82   84 am   BACKBONE|DICT|INTERRES
   165   84   85 1    
   166   84  205 1    
   167   85   86 1    
   168   85   87 1    
   169   85  206 1    
   170   86  207 1    
   171   86  208 1    
   172   86  209 1    
   173   87   88 2    
   174   87   89 am   BACKBONE|DICT|INTERRES
   175   89   90 1    
   176   89  210 1    
   177   90   91 1    
   178   90   92 1    
   179   90  211 1    
   180   91  212 1    
   181   91  213 1    
   182   91  214 1    
   183   92   93 2    
   184   92   94 am   BACKBONE|DICT|INTERRES
   185   94   95 1    
   186   94  215 1    
   187   95   96 1    
   188   95   97 1    
   189   95  216 1    
   190   96  217 1    
   191   96  218 1    
   192   96  219 1    
   193   97   98 2    
   194   97   99 am   BACKBONE|DICT|INTERRES
   195   99  100 1    
   196   99  220 1    
   197  100  101 1    
   198  100  102 1    
   199  100  221 1    
   200  101  222 1    
   201  101  223 1    
   202  101  224 1    
   203  102  103 2    
   204  102  104 am   BACKBONE|DICT|INTERRES
   205  104  105 1    
   206  104  225 1    
   207  105  106 1    
   208  105  107 1    
   209  105  226 1    
   210  106  227 1    
   211  106  228 1    
   212  106  229 1    
   213  107  108 2    
   214  107  109 am   BACKBONE|DICT|INTERRES
   215  109  110 1    
   216  109  230 1    
   217  110  111 1    
   218  110  112 1    
   219  110  231 1    
   220  111  232 1    
   221  111  233 1    
   222  111  234 1    
   223  112  113 2    
   224  112  114 am   BACKBONE|DICT|INTERRES
   225  114  115 1    
   226  114  235 1    
   227  115  116 1    
   228  115  117 1    
   229  115  236 1    
   230  116  237 1    
   231  116  238 1    
   232  116  239 1    
   233  117  118 2    
   234  117  119 am   BACKBONE|DICT|INTERRES
   235  119  120 1    
   236  119  240 1    
   237  120  121 1    
   238  120  124 1    
   239  120  241 1    
   240  121  122 am   BACKBONE|DICT|INTERRES
   241  121  123 2    
   242  122  242 1    
   243  122  243 1    
   244  124  125 1    
   245  124  244 1    
   246  124  245 1    
   247  125  126 1    
   248  126  246 1    
   249  126  247 1    
@<TRIPOS>SUBSTRUCTURE
     1 UNK         1 GROUP             0       ****    0 ROOT    
