@<TRIPOS>MOLECULE
3R540
247   249    1
SMALL
USER_CHARGES


@<TRIPOS>ATOM
      1 CA         -2.9462  -14.2549  -47.7632 C.3       0 UNK        -0.1800 
      2 C          -1.7039  -14.5197  -46.9265 C.2       0 UNK         0.5000 
      3 O          -1.6422  -15.5268  -46.2256 O.2       0 UNK        -0.5000 
      4 N          -0.7258  -13.6045  -46.9887 N.am      1 UNK        -0.5000 
      5 CA          0.5506  -13.6198  -46.2523 C.3       1 UNK         0.1400 
      6 C6          1.4819  -14.8054  -46.6307 C.3       23 UNK        -0.0398 
      7 S7          2.1925  -14.6181  -48.2986 S.3       23 UNK        -0.2404 
      8 C8          2.6288  -16.3485  -48.6933 C.3       23 UNK        -0.0205 
      9 C9          1.5783  -17.1265  -49.4876 C.ar      23 UNK        -0.0193 
     10 C10         1.9842  -18.2550  -50.2059 C.ar      23 UNK        -0.1150 
     11 C11         1.0676  -18.9980  -50.9545 C.ar      23 UNK        -0.0193 
     12 C12        -0.2736  -18.6054  -50.9901 C.ar      23 UNK        -0.1150 
     13 C13        -0.6999  -17.4899  -50.2656 C.ar      23 UNK        -0.0193 
     14 C14         0.2280  -16.7583  -49.5190 C.ar      23 UNK        -0.1150 
     15 C15        -2.1615  -17.0625  -50.2815 C.3       23 UNK        -0.0205 
     16 S16        -3.2707  -18.1585  -49.3282 S.3       23 UNK        -0.2404 
     17 C17        -2.2702  -18.6885  -47.8924 C.3       23 UNK        -0.0398 
     18 CA         -1.7488  -20.1347  -48.1006 C.3       11 UNK         0.1400 
     19 N          -0.4180  -20.3526  -47.5349 N.am      11 UNK        -0.5000 
     20 C           0.4217  -21.3150  -47.9453 C.2       10 UNK         0.5000 
     21 O           0.1928  -22.0638  -48.8951 O.2       10 UNK        -0.5000 
     22 CA          1.7177  -21.5037  -47.1343 C.3       10 UNK         0.1400 
     23 CB          2.8520  -20.6462  -47.7126 C.3       10 UNK        -0.1800 
     24 N           1.5436  -21.1877  -45.7161 N.am      10 UNK        -0.5000 
     25 C           0.8008  -21.9181  -44.8697 C.2       9 UNK         0.5000 
     26 O           0.2344  -22.9617  -45.1913 O.2       9 UNK        -0.5000 
     27 CA          0.6059  -21.3666  -43.4435 C.3       9 UNK         0.1400 
     28 CB          1.6697  -21.9420  -42.4988 C.3       9 UNK        -0.1800 
     29 N           0.6293  -19.9040  -43.3806 N.am      9 UNK        -0.5000 
     30 C          -0.2208  -19.0972  -44.0364 C.2       8 UNK         0.5000 
     31 O          -1.1658  -19.5158  -44.7071 O.2       8 UNK        -0.5000 
     32 CA          0.0532  -17.5810  -43.9959 C.3       8 UNK         0.1400 
     33 CB         -0.9242  -16.8878  -43.0389 C.3       8 UNK        -0.1800 
     34 N           1.4275  -17.2271  -43.6306 N.am      8 UNK        -0.5000 
     35 C           2.5218  -17.5756  -44.3265 C.2       7 UNK         0.5000 
     36 O           2.4751  -18.1832  -45.3958 O.2       7 UNK        -0.5000 
     37 CA          3.8978  -17.2516  -43.7074 C.3       7 UNK         0.1400 
     38 CB          4.4749  -15.9777  -44.3323 C.3       7 UNK        -0.1800 
     39 N           3.8732  -17.0947  -42.2512 N.am      7 UNK        -0.5000 
     40 C           3.4865  -18.0384  -41.3804 C.2       6 UNK         0.5000 
     41 O           3.1735  -19.1808  -41.7148 O.2       6 UNK        -0.5000 
     42 CA          3.3753  -17.6350  -39.8976 C.3       6 UNK         0.1400 
     43 CB          4.5925  -18.1445  -39.1114 C.3       6 UNK        -0.1800 
     44 N           3.2284  -16.1958  -39.6629 N.am      6 UNK        -0.5000 
     45 C           2.2500  -15.4074  -40.1315 C.2       5 UNK         0.5000 
     46 O           1.3501  -15.8010  -40.8748 O.2       5 UNK        -0.5000 
     47 CA          2.2873  -13.9256  -39.7095 C.3       5 UNK         0.1400 
     48 CB          3.1463  -13.6529  -38.4544 C.3       5 UNK        -0.1800 
     49 N           2.6979  -13.0374  -40.7986 N.am      5 UNK        -0.5000 
     50 C           3.8245  -13.0838  -41.5293 C.2       4 UNK         0.5000 
     51 O           4.6672  -13.9774  -41.4277 O.2       4 UNK        -0.5000 
     52 CA          4.0600  -11.9179  -42.5161 C.3       4 UNK         0.1400 
     53 CB          4.7269  -12.3591  -43.8309 C.3       4 UNK        -0.1800 
     54 N           2.8106  -11.2303  -42.8359 N.am      4 UNK        -0.5000 
     55 C           2.4461  -10.0155  -42.4046 C.2       3 UNK         0.5000 
     56 O           3.1699   -9.2820  -41.7309 O.2       3 UNK        -0.5000 
     57 CA          1.0203   -9.5458  -42.7665 C.3       3 UNK         0.1400 
     58 CB          1.0630   -8.5596  -43.9437 C.3       3 UNK        -0.1800 
     59 N           0.1113  -10.6452  -43.1041 N.am      3 UNK        -0.5000 
     60 C          -0.3051  -11.5927  -42.2514 C.2       2 UNK         0.5000 
     61 O          -0.0224  -11.6012  -41.0533 O.2       2 UNK        -0.5000 
     62 CA         -1.1130  -12.7593  -42.8512 C.3       2 UNK         0.1400 
     63 CB         -2.6208  -12.5040  -42.7151 C.3       2 UNK        -0.1800 
     64 N          -0.7963  -13.0282  -44.2588 N.am      2 UNK        -0.5000 
     65 C           0.3914  -13.4501  -44.7205 C.2       1 UNK         0.5000 
     66 O           1.3620  -13.6328  -43.9854 O.2       1 UNK        -0.5000 
     67 C          -2.7429  -21.1815  -47.5679 C.2       11 UNK         0.5000 
     68 O          -3.5261  -21.7247  -48.3467 O.2       11 UNK        -0.5000 
     69 N          -2.6728  -21.4817  -46.2619 N.am      12 UNK        -0.5000 
     70 CA         -3.4926  -22.4964  -45.5927 C.3       12 UNK         0.1400 
     71 CB         -3.2178  -22.4746  -44.0830 C.3       12 UNK        -0.1800 
     72 C          -3.2817  -23.9109  -46.1654 C.2       12 UNK         0.5000 
     73 O          -4.2558  -24.6398  -46.3516 O.2       12 UNK        -0.5000 
     74 N          -2.0289  -24.2444  -46.5076 N.am      13 UNK        -0.5000 
     75 CA         -1.6409  -25.4761  -47.2022 C.3       13 UNK         0.1400 
     76 CB         -0.1081  -25.5553  -47.2622 C.3       13 UNK        -0.1800 
     77 C          -2.2410  -25.6079  -48.6183 C.2       13 UNK         0.5000 
     78 O          -2.4186  -26.7282  -49.0968 O.2       13 UNK        -0.5000 
     79 N          -2.5687  -24.4710  -49.2457 N.am      14 UNK        -0.5000 
     80 CA         -3.2567  -24.3734  -50.5323 C.3       14 UNK         0.1400 
     81 CB         -2.6085  -23.2441  -51.3499 C.3       14 UNK        -0.1800 
     82 C          -4.7746  -24.1462  -50.3641 C.2       14 UNK         0.5000 
     83 O          -5.4359  -23.7773  -51.3357 O.2       14 UNK        -0.5000 
     84 N          -5.3023  -24.3447  -49.1451 N.am      15 UNK        -0.5000 
     85 CA         -6.7041  -24.1830  -48.7448 C.3       15 UNK         0.1400 
     86 CB         -7.5948  -25.2244  -49.4561 C.3       15 UNK        -0.1800 
     87 C          -7.2094  -22.7352  -48.9138 C.2       15 UNK         0.5000 
     88 O          -8.3159  -22.5215  -49.4073 O.2       15 UNK        -0.5000 
     89 N          -6.3664  -21.7627  -48.5353 N.am      16 UNK        -0.5000 
     90 CA         -6.5373  -20.3184  -48.7441 C.3       16 UNK         0.1400 
     91 CB         -7.7573  -19.7710  -47.9742 C.3       16 UNK        -0.1800 
     92 C          -6.5421  -19.9650  -50.2462 C.2       16 UNK         0.5000 
     93 O          -7.3457  -19.1490  -50.6993 O.2       16 UNK        -0.5000 
     94 N          -5.6476  -20.6380  -50.9832 N.am      17 UNK        -0.5000 
     95 CA         -5.4342  -20.6024  -52.4325 C.3       17 UNK         0.1400 
     96 CB         -5.0685  -19.1845  -52.9148 C.3       17 UNK        -0.1800 
     97 C          -6.5604  -21.2411  -53.2741 C.2       17 UNK         0.5000 
     98 O          -6.4791  -21.2090  -54.5039 O.2       17 UNK        -0.5000 
     99 N          -7.5616  -21.8623  -52.6305 N.am      18 UNK        -0.5000 
    100 CA        -8.6730  -22.5605  -53.2861 C.3       18 UNK         0.1400 
    101 CB        -9.7487  -22.9112  -52.2490 C.3       18 UNK        -0.1800 
    102 C         -8.2424  -23.8206  -54.0632 C.2       18 UNK         0.5000 
    103 O         -8.9649  -24.2468  -54.9647 O.2       18 UNK        -0.5000 
    104 N         -7.0642  -24.3721  -53.7375 N.am      19 UNK        -0.5000 
    105 CA        -6.4193  -25.4665  -54.4662 C.3       19 UNK         0.1400 
    106 CB        -5.3355  -26.0853  -53.5677 C.3       19 UNK        -0.1800 
    107 C         -5.8141  -25.0428  -55.8243 C.2       19 UNK         0.5000 
    108 O         -5.3065  -25.9096  -56.5369 O.2       19 UNK        -0.5000 
    109 N         -5.8532  -23.7388  -56.1504 N.am      20 UNK        -0.5000 
    110 CA        -5.2354  -23.0924  -57.3151 C.3       20 UNK         0.1400 
    111 CB        -5.8344  -23.6103  -58.6400 C.3       20 UNK        -0.1800 
    112 C         -3.6981  -23.1859  -57.2500 C.2       20 UNK         0.5000 
    113 O         -3.0411  -23.5800  -58.2154 O.2       20 UNK        -0.5000 
    114 N         -3.1673  -22.8370  -56.0761 N.am      21 UNK        -0.5000 
    115 CA        -1.7610  -22.8698  -55.7021 C.3       21 UNK         0.1400 
    116 CB        -1.4616  -24.2452  -55.0743 C.3       21 UNK        -0.1800 
    117 C         -1.5231  -21.7253  -54.6981 C.2       21 UNK         0.5000 
    118 O         -2.4904  -21.2371  -54.1128 O.2       21 UNK        -0.5000 
    119 N         -0.2855  -21.2931  -54.4431 N.am      22 UNK        -0.5000 
    120 CA         0.9724  -21.6263  -55.1280 C.3       22 UNK         0.1400 
    121 C          1.1413  -20.8848  -56.4865 C.2       22 UNK         0.5000 
    122 N          2.0639  -21.3305  -57.3283 N.am      22 UNK        -0.7600 
    123 O          0.4473  -19.9176  -56.7919 O.2       22 UNK        -0.5000 
    124 C124        2.1841  -21.4085  -54.1795 C.3       23 UNK        -0.0398 
    125 S125        2.1954  -19.7785  -53.3487 S.3       23 UNK        -0.2404 
    126 C126        1.5265  -20.2289  -51.7162 C.3       23 UNK        -0.0205 
    127 H127       -3.4536  -15.1902  -47.9997 H         1 UNK         0.0600 
    128 H128       -2.6941  -13.7573  -48.6998 H         1 UNK         0.0600 
    129 H129       -3.6423  -13.6237  -47.2112 H         1 UNK         0.0600 
    130 H130       -0.8536  -12.8044  -47.5932 H         1 UNK         0.3000 
    131 H131        1.0625  -12.7051  -46.5555 H         1 UNK         0.0600 
    132 H132        2.3306  -14.8759  -45.9517 H         1 UNK         0.0800 
    133 H133        0.9576  -15.7580  -46.5568 H         1 UNK         0.0800 
    134 H134        2.8576  -16.8918  -47.7757 H         1 UNK         0.0800 
    135 H135        3.5551  -16.3234  -49.2691 H         1 UNK         0.0800 
    136 H136        3.0218  -18.5579  -50.1859 H         1 UNK         0.1150 
    137 H137       -0.9900  -19.1746  -51.5661 H         1 UNK         0.1150 
    138 H138       -0.1136  -15.9007  -48.9605 H         1 UNK         0.1150 
    139 H139       -2.2599  -16.0463  -49.9014 H         1 UNK         0.0800 
    140 H140       -2.5120  -17.0267  -51.3138 H         1 UNK         0.0800 
    141 H141       -2.8719  -18.5970  -46.9860 H         1 UNK         0.0800 
    142 H142       -1.4470  -17.9906  -47.7449 H         1 UNK         0.0800 
    143 H143       -1.6596  -20.3126  -49.1746 H         1 UNK         0.0600 
    144 H144       -0.1822  -19.8162  -46.7118 H         1 UNK         0.3000 
    145 H145        2.0098  -22.5530  -47.2149 H         1 UNK         0.0600 
    146 H146        3.7815  -20.7963  -47.1635 H         1 UNK         0.0600 
    147 H147        3.0436  -20.9048  -48.7543 H         1 UNK         0.0600 
    148 H148        2.6097  -19.5840  -47.6770 H         1 UNK         0.0600 
    149 H149        1.9496  -20.3172  -45.3933 H         1 UNK         0.3000 
    150 H150       -0.3723  -21.6919  -43.0881 H         1 UNK         0.0600 
    151 H151        1.6298  -23.0319  -42.4840 H         1 UNK         0.0600 
    152 H152        1.5187  -21.5971  -41.4757 H         1 UNK         0.0600 
    153 H153        2.6764  -21.6547  -42.8049 H         1 UNK         0.0600 
    154 H154        1.3939  -19.4905  -42.8586 H         1 UNK         0.3000 
    155 H155       -0.1242  -17.2043  -45.0028 H         1 UNK         0.0600 
    156 H156       -0.7904  -15.8083  -43.0636 H         1 UNK         0.0600 
    157 H157       -0.7870  -17.2220  -42.0100 H         1 UNK         0.0600 
    158 H158       -1.9583  -17.0912  -43.3203 H         1 UNK         0.0600 
    159 H159        1.5430  -16.7249  -42.7561 H         1 UNK         0.3000 
    160 H160        4.5648  -18.0837  -43.9410 H         1 UNK         0.0600 
    161 H161        3.8449  -15.1212  -44.0992 H         1 UNK         0.0600 
    162 H162        4.5378  -16.0616  -45.4181 H         1 UNK         0.0600 
    163 H163        5.4781  -15.7695  -43.9600 H         1 UNK         0.0600 
    164 H164        4.1027  -16.1763  -41.8904 H         1 UNK         0.3000 
    165 H165        2.4825  -18.1220  -39.5005 H         1 UNK         0.0600 
    166 H166        4.4808  -17.9560  -38.0435 H         1 UNK         0.0600 
    167 H167        4.7179  -19.2208  -39.2378 H         1 UNK         0.0600 
    168 H168        5.5141  -17.6651  -39.4440 H         1 UNK         0.0600 
    169 H169        3.9421  -15.7650  -39.0934 H         1 UNK         0.3000 
    170 H170        1.2584  -13.6569  -39.4658 H         1 UNK         0.0600 
    171 H171        2.8403  -14.2869  -37.6211 H         1 UNK         0.0600 
    172 H172        4.2086  -13.8231  -38.6329 H         1 UNK         0.0600 
    173 H173        3.0326  -12.6195  -38.1264 H         1 UNK         0.0600 
    174 H174        2.0415  -12.2932  -40.9988 H         1 UNK         0.3000 
    175 H175        4.7493  -11.2381  -42.0118 H         1 UNK         0.0600 
    176 H176        4.0413  -12.9243  -44.4609 H         1 UNK         0.0600 
    177 H177        5.0537  -11.4923  -44.4053 H         1 UNK         0.0600 
    178 H178        5.6086  -12.9757  -43.6526 H         1 UNK         0.0600 
    179 H179        2.1369  -11.7904  -43.3458 H         1 UNK         0.3000 
    180 H180        0.6150   -9.0262  -41.8957 H         1 UNK         0.0600 
    181 H181        1.4471   -9.0305  -44.8494 H         1 UNK         0.0600 
    182 H182        1.7072   -7.7087  -43.7177 H         1 UNK         0.0600 
    183 H183        0.0712   -8.1641  -44.1640 H         1 UNK         0.0600 
    184 H184       -0.1732  -10.7157  -44.0698 H         1 UNK         0.3000 
    185 H185       -0.8625  -13.6493  -42.2713 H         1 UNK         0.0600 
    186 H186       -2.8942  -12.3234  -41.6745 H         1 UNK         0.0600 
    187 H187       -2.9364  -11.6349  -43.2937 H         1 UNK         0.0600 
    188 H188       -3.1978  -13.3637  -43.0566 H         1 UNK         0.0600 
    189 H189       -1.5428  -12.8956  -44.9249 H         1 UNK         0.3000 
    190 H190       -2.0339  -20.9507  -45.6770 H         1 UNK         0.3000 
    191 H191       -4.5384  -22.2252  -45.7509 H         1 UNK         0.0600 
    192 H192       -2.2155  -22.8336  -43.8530 H         1 UNK         0.0600 
    193 H193       -3.9212  -23.1178  -43.5530 H         1 UNK         0.0600 
    194 H194       -3.3208  -21.4697  -43.6728 H         1 UNK         0.0600 
    195 H195       -1.2727  -23.6154  -46.2524 H         1 UNK         0.3000 
    196 H196       -2.0054  -26.3196  -46.6126 H         1 UNK         0.0600 
    197 H197        0.2191  -26.4673  -47.7631 H         1 UNK         0.0600 
    198 H198        0.3258  -25.5613  -46.2621 H         1 UNK         0.0600 
    199 H199        0.3157  -24.7102  -47.8061 H         1 UNK         0.0600 
    200 H200       -2.4160  -23.5928  -48.7664 H         1 UNK         0.3000 
    201 H201       -3.1354  -25.3028  -51.0918 H         1 UNK         0.0600 
    202 H202       -1.5400  -23.4144  -51.4836 H         1 UNK         0.0600 
    203 H203       -2.7332  -22.2710  -50.8741 H         1 UNK         0.0600 
    204 H204       -3.0518  -23.1833  -52.3433 H         1 UNK         0.0600 
    205 H205       -4.6766  -24.6105  -48.3935 H         1 UNK         0.3000 
    206 H206       -6.7446  -24.3932  -47.6753 H         1 UNK         0.0600 
    207 H207       -7.2302  -26.2367  -49.2825 H         1 UNK         0.0600 
    208 H208       -8.6196  -25.1817  -49.0856 H         1 UNK         0.0600 
    209 H209       -7.6304  -25.0633  -50.5338 H         1 UNK         0.0600 
    210 H210       -5.4379  -22.0343  -48.2256 H         1 UNK         0.3000 
    211 H211       -5.6507  -19.8435  -48.3226 H         1 UNK         0.0600 
    212 H212       -8.6992  -20.1330  -48.3867 H         1 UNK         0.0600 
    213 H213       -7.7832  -18.6816  -48.0156 H         1 UNK         0.0600 
    214 H214       -7.7191  -20.0549  -46.9226 H         1 UNK         0.0600 
    215 H215       -5.0695  -21.3054  -50.4914 H         1 UNK         0.3000 
    216 H216       -4.5642  -21.2354  -52.5983 H         1 UNK         0.0600 
    217 H217       -4.7490  -19.1989  -53.9575 H         1 UNK         0.0600 
    218 H218       -4.2439  -18.7727  -52.3331 H         1 UNK         0.0600 
    219 H219       -5.9116  -18.4977  -52.8414 H         1 UNK         0.0600 
    220 H220       -7.5447  -21.8882  -51.6197 H         1 UNK         0.3000 
    221 H221       -9.1138  -21.8692  -54.0072 H         1 UNK         0.0600 
    222 H222       -9.3938  -23.6594  -51.5404 H         1 UNK         0.0600 
    223 H223      -10.0594  -22.0317  -51.6847 H         1 UNK         0.0600 
    224 H224      -10.6373  -23.3184  -52.7329 H         1 UNK         0.0600 
    225 H225       -6.5443  -23.9860  -52.9535 H         1 UNK         0.3000 
    226 H226       -7.1700  -26.2327  -54.6695 H         1 UNK         0.0600 
    227 H227       -5.7457  -26.3925  -52.6055 H         1 UNK         0.0600 
    228 H228       -4.8991  -26.9709  -54.0311 H         1 UNK         0.0600 
    229 H229       -4.5236  -25.3817  -53.3801 H         1 UNK         0.0600 
    230 H230       -6.2759  -23.1005  -55.4863 H         1 UNK         0.3000 
    231 H231       -5.4816  -22.0321  -57.2401 H         1 UNK         0.0600 
    232 H232       -5.4676  -23.0257  -59.4844 H         1 UNK         0.0600 
    233 H233       -6.9215  -23.5309  -58.6379 H         1 UNK         0.0600 
    234 H234       -5.5739  -24.6515  -58.8304 H         1 UNK         0.0600 
    235 H235       -3.7660  -22.4464  -55.3590 H         1 UNK         0.3000 
    236 H236       -1.1435  -22.7125  -56.5876 H         1 UNK         0.0600 
    237 H237       -2.1199  -24.4507  -54.2297 H         1 UNK         0.0600 
    238 H238       -1.6013  -25.0451  -55.8018 H         1 UNK         0.0600 
    239 H239       -0.4380  -24.3162  -54.7089 H         1 UNK         0.0600 
    240 H240       -0.1929  -20.5222  -53.7999 H         1 UNK         0.3000 
    241 H241        0.9578  -22.6877  -55.3723 H         1 UNK         0.0600 
    242 H242        2.1845  -20.8592  -58.2119 H         1 UNK         0.3800 
    243 H243        2.6469  -22.1250  -57.1135 H         1 UNK         0.3800 
    244 H244        2.1881  -22.1898  -53.4180 H         1 UNK         0.0800 
    245 H245        3.1279  -21.5299  -54.7136 H         1 UNK         0.0800 
    246 H246        2.2911  -20.7588  -51.1464 H         1 UNK         0.0800 
    247 H247        0.6937  -20.9256  -51.8239 H         1 UNK         0.0800 
@<TRIPOS>BOND
     1    1    2 1    
     2    1  127 1    
     3    1  128 1    
     4    1  129 1    
     5    2    3 2    
     6    2    4 am   BACKBONE|DICT|INTERRES
     7    4    5 1    
     8    4  130 1    
     9    5    6 1    
    10    5   65 1    
    11    5  131 1    
    12    6    7 1    
    13    6  132 1    
    14    6  133 1    
    15    7    8 1    
    16    8    9 1    
    17    8  134 1    
    18    8  135 1    
    19    9   10 ar   
    20    9   14 ar   
    21   10   11 ar   
    22   10  136 1    
    23   11   12 ar   
    24   11  126 1    
    25   12   13 ar   
    26   12  137 1    
    27   13   14 ar   
    28   13   15 1    
    29   14  138 1    
    30   15   16 1    
    31   15  139 1    
    32   15  140 1    
    33   16   17 1    
    34   17   18 1    
    35   17  141 1    
    36   17  142 1    
    37   18   19 1    
    38   18   67 1    
    39   18  143 1    
    40   19   20 am   BACKBONE|DICT|INTERRES
    41   19  144 1    
    42   20   21 2    
    43   20   22 1    
    44   22   23 1    
    45   22   24 1    
    46   22  145 1    
    47   23  146 1    
    48   23  147 1    
    49   23  148 1    
    50   24   25 am   BACKBONE|DICT|INTERRES
    51   24  149 1    
    52   25   26 2    
    53   25   27 1    
    54   27   28 1    
    55   27   29 1    
    56   27  150 1    
    57   28  151 1    
    58   28  152 1    
    59   28  153 1    
    60   29   30 am   BACKBONE|DICT|INTERRES
    61   29  154 1    
    62   30   31 2    
    63   30   32 1    
    64   32   33 1    
    65   32   34 1    
    66   32  155 1    
    67   33  156 1    
    68   33  157 1    
    69   33  158 1    
    70   34   35 am   BACKBONE|DICT|INTERRES
    71   34  159 1    
    72   35   36 2    
    73   35   37 1    
    74   37   38 1    
    75   37   39 1    
    76   37  160 1    
    77   38  161 1    
    78   38  162 1    
    79   38  163 1    
    80   39   40 am   BACKBONE|DICT|INTERRES
    81   39  164 1    
    82   40   41 2    
    83   40   42 1    
    84   42   43 1    
    85   42   44 1    
    86   42  165 1    
    87   43  166 1    
    88   43  167 1    
    89   43  168 1    
    90   44   45 am   BACKBONE|DICT|INTERRES
    91   44  169 1    
    92   45   46 2    
    93   45   47 1    
    94   47   48 1    
    95   47   49 1    
    96   47  170 1    
    97   48  171 1    
    98   48  172 1    
    99   48  173 1    
   100   49   50 am   BACKBONE|DICT|INTERRES
   101   49  174 1    
   102   50   51 2    
   103   50   52 1    
   104   52   53 1    
   105   52   54 1    
   106   52  175 1    
   107   53  176 1    
   108   53  177 1    
   109   53  178 1    
   110   54   55 am   BACKBONE|DICT|INTERRES
   111   54  179 1    
   112   55   56 2    
   113   55   57 1    
   114   57   58 1    
   115   57   59 1    
   116   57  180 1    
   117   58  181 1    
   118   58  182 1    
   119   58  183 1    
   120   59   60 am   BACKBONE|DICT|INTERRES
   121   59  184 1    
   122   60   61 2    
   123   60   62 1    
   124   62   63 1    
   125   62   64 1    
   126   62  185 1    
   127   63  186 1    
   128   63  187 1    
   129   63  188 1    
   130   64   65 am   BACKBONE|DICT|INTERRES
   131   64  189 1    
   132   65   66 2    
   133   67   68 2    
   134   67   69 am   BACKBONE|DICT|INTERRES
   135   69   70 1    
   136   69  190 1    
   137   70   71 1    
   138   70   72 1    
   139   70  191 1    
   140   71  192 1    
   141   71  193 1    
   142   71  194 1    
   143   72   73 2    
   144   72   74 am   BACKBONE|DICT|INTERRES
   145   74   75 1    
   146   74  195 1    
   147   75   76 1    
   148   75   77 1    
   149   75  196 1    
   150   76  197 1    
   151   76  198 1    
   152   76  199 1    
   153   77   78 2    
   154   77   79 am   BACKBONE|DICT|INTERRES
   155   79   80 1    
   156   79  200 1    
   157   80   81 1    
   158   80   82 1    
   159   80  201 1    
   160   81  202 1    
   161   81  203 1    
   162   81  204 1    
   163   82   83 2    
   164   82   84 am   BACKBONE|DICT|INTERRES
   165   84   85 1    
   166   84  205 1    
   167   85   86 1    
   168   85   87 1    
   169   85  206 1    
   170   86  207 1    
   171   86  208 1    
   172   86  209 1    
   173   87   88 2    
   174   87   89 am   BACKBONE|DICT|INTERRES
   175   89   90 1    
   176   89  210 1    
   177   90   91 1    
   178   90   92 1    
   179   90  211 1    
   180   91  212 1    
   181   91  213 1    
   182   91  214 1    
   183   92   93 2    
   184   92   94 am   BACKBONE|DICT|INTERRES
   185   94   95 1    
   186   94  215 1    
   187   95   96 1    
   188   95   97 1    
   189   95  216 1    
   190   96  217 1    
   191   96  218 1    
   192   96  219 1    
   193   97   98 2    
   194   97   99 am   BACKBONE|DICT|INTERRES
   195   99  100 1    
   196   99  220 1    
   197  100  101 1    
   198  100  102 1    
   199  100  221 1    
   200  101  222 1    
   201  101  223 1    
   202  101  224 1    
   203  102  103 2    
   204  102  104 am   BACKBONE|DICT|INTERRES
   205  104  105 1    
   206  104  225 1    
   207  105  106 1    
   208  105  107 1    
   209  105  226 1    
   210  106  227 1    
   211  106  228 1    
   212  106  229 1    
   213  107  108 2    
   214  107  109 am   BACKBONE|DICT|INTERRES
   215  109  110 1    
   216  109  230 1    
   217  110  111 1    
   218  110  112 1    
   219  110  231 1    
   220  111  232 1    
   221  111  233 1    
   222  111  234 1    
   223  112  113 2    
   224  112  114 am   BACKBONE|DICT|INTERRES
   225  114  115 1    
   226  114  235 1    
   227  115  116 1    
   228  115  117 1    
   229  115  236 1    
   230  116  237 1    
   231  116  238 1    
   232  116  239 1    
   233  117  118 2    
   234  117  119 am   BACKBONE|DICT|INTERRES
   235  119  120 1    
   236  119  240 1    
   237  120  121 1    
   238  120  124 1    
   239  120  241 1    
   240  121  122 am   BACKBONE|DICT|INTERRES
   241  121  123 2    
   242  122  242 1    
   243  122  243 1    
   244  124  125 1    
   245  124  244 1    
   246  124  245 1    
   247  125  126 1    
   248  126  246 1    
   249  126  247 1    
@<TRIPOS>SUBSTRUCTURE
     1 UNK         1 GROUP             0       ****    0 ROOT    
