@<TRIPOS>MOLECULE
3R540
247   249    1
SMALL
USER_CHARGES


@<TRIPOS>ATOM
      1 CA         -4.3044  -11.2843  -46.1014 C.3       0 UNK        -0.1800 
      2 C          -2.9187  -11.9113  -46.0604 C.2       0 UNK         0.5000 
      3 O          -1.9984  -11.3260  -45.4894 O.2       0 UNK        -0.5000 
      4 N          -2.7696  -13.1078  -46.6468 N.am      1 UNK        -0.5000 
      5 CA         -1.5085  -13.8576  -46.7642 C.3       1 UNK         0.1400 
      6 C6         -1.6669  -15.1389  -47.6176 C.3       23 UNK        -0.0398 
      7 S7         -2.2061  -14.7763  -49.3216 S.3       23 UNK        -0.2404 
      8 C8         -0.6089  -14.5783  -50.1727 C.3       23 UNK        -0.0205 
      9 C9         -0.0389  -15.9071  -50.6471 C.ar      23 UNK        -0.0193 
     10 C10        -0.4595  -16.4474  -51.8661 C.ar      23 UNK        -0.1150 
     11 C11         0.0854  -17.6406  -52.3494 C.ar      23 UNK        -0.0193 
     12 C12         1.0435  -18.3079  -51.5749 C.ar      23 UNK        -0.1150 
     13 C13         1.4827  -17.7758  -50.3600 C.ar      23 UNK        -0.0193 
     14 C14         0.9371  -16.5733  -49.8998 C.ar      23 UNK        -0.1150 
     15 C15         2.5886  -18.4774  -49.5824 C.3       23 UNK        -0.0205 
     16 S16         2.0003  -19.9580  -48.7006 S.3       23 UNK        -0.2404 
     17 C17         1.0789  -19.2095  -47.3197 C.3       23 UNK        -0.0398 
     18 CA         -0.2698  -19.9201  -47.0780 C.3       11 UNK         0.1400 
     19 N          -0.0887  -21.2307  -46.4565 N.am      11 UNK        -0.5000 
     20 C          -0.5799  -22.3797  -46.9342 C.2       10 UNK         0.5000 
     21 O          -1.2096  -22.4726  -47.9864 O.2       10 UNK        -0.5000 
     22 CA         -0.3673  -23.6415  -46.0737 C.3       10 UNK         0.1400 
     23 CB          0.9351  -24.3460  -46.4809 C.3       10 UNK        -0.1800 
     24 N          -0.3380  -23.3787  -44.6334 N.am      10 UNK        -0.5000 
     25 C          -1.3005  -22.7664  -43.9292 C.2       9 UNK         0.5000 
     26 O          -2.3699  -22.3874  -44.4105 O.2       9 UNK        -0.5000 
     27 CA         -0.9883  -22.4586  -42.4527 C.3       9 UNK         0.1400 
     28 CB         -1.5008  -23.5932  -41.5550 C.3       9 UNK        -0.1800 
     29 N           0.4287  -22.2093  -42.1515 N.am      9 UNK        -0.5000 
     30 C           1.2532  -21.3533  -42.7727 C.2       8 UNK         0.5000 
     31 O           0.9259  -20.6701  -43.7456 O.2       8 UNK        -0.5000 
     32 CA          2.6807  -21.2505  -42.2036 C.3       8 UNK         0.1400 
     33 CB          3.6942  -20.7824  -43.2622 C.3       8 UNK        -0.1800 
     34 N           2.7305  -20.3555  -41.0457 N.am      8 UNK        -0.5000 
     35 C           2.2848  -20.6763  -39.8209 C.2       7 UNK         0.5000 
     36 O           1.7863  -21.7717  -39.5543 O.2       7 UNK        -0.5000 
     37 CA          2.4342  -19.6391  -38.6889 C.3       7 UNK         0.1400 
     38 CB          3.5040  -20.0952  -37.6836 C.3       7 UNK        -0.1800 
     39 N           2.7780  -18.2949  -39.1504 N.am      7 UNK        -0.5000 
     40 C           1.9127  -17.4080  -39.6568 C.2       6 UNK         0.5000 
     41 O           0.7118  -17.6349  -39.8059 O.2       6 UNK        -0.5000 
     42 CA          2.4804  -16.0345  -40.0764 C.3       6 UNK         0.1400 
     43 CB          3.8589  -15.7042  -39.4606 C.3       6 UNK        -0.1800 
     44 N           2.5259  -15.8840  -41.5327 N.am      6 UNK        -0.5000 
     45 C           3.1441  -16.6955  -42.4035 C.2       5 UNK         0.5000 
     46 O           3.7910  -17.6897  -42.0711 O.2       5 UNK        -0.5000 
     47 CA          3.0188  -16.3550  -43.8983 C.3       5 UNK         0.1400 
     48 CB          1.8332  -17.1003  -44.5216 C.3       5 UNK        -0.1800 
     49 N           2.8619  -14.9295  -44.1792 N.am      5 UNK        -0.5000 
     50 C           3.8441  -14.0216  -44.1089 C.2       4 UNK         0.5000 
     51 O           4.9803  -14.2694  -43.7043 O.2       4 UNK        -0.5000 
     52 CA          3.5015  -12.6030  -44.5921 C.3       4 UNK         0.1400 
     53 CB          3.4925  -12.5468  -46.1285 C.3       4 UNK        -0.1800 
     54 N           2.1955  -12.1779  -44.0934 N.am      4 UNK        -0.5000 
     55 C           2.0064  -11.3830  -43.0317 C.2       3 UNK         0.5000 
     56 O           2.9214  -10.8707  -42.3859 O.2       3 UNK        -0.5000 
     57 CA          0.5468  -11.1189  -42.6088 C.3       3 UNK         0.1400 
     58 CB          0.0335   -9.8145  -43.2365 C.3       3 UNK        -0.1800 
     59 N          -0.3630  -12.2131  -42.9567 N.am      3 UNK        -0.5000 
     60 C          -0.3089  -13.4366  -42.4091 C.2       2 UNK         0.5000 
     61 O           0.4899  -13.7500  -41.5279 O.2       2 UNK        -0.5000 
     62 CA         -1.2666  -14.5113  -42.9571 C.3       2 UNK         0.1400 
     63 CB         -2.5135  -14.6139  -42.0677 C.3       2 UNK        -0.1800 
     64 N          -1.6833  -14.2997  -44.3453 N.am      2 UNK        -0.5000 
     65 C          -0.8655  -14.1992  -45.4038 C.2       1 UNK         0.5000 
     66 O           0.3582  -14.3135  -45.3292 O.2       1 UNK        -0.5000 
     67 C          -1.1970  -19.0451  -46.2158 C.2       11 UNK         0.5000 
     68 O          -2.0259  -18.3318  -46.7756 O.2       11 UNK        -0.5000 
     69 N          -1.0619  -19.1009  -44.8828 N.am      12 UNK        -0.5000 
     70 CA         -1.7988  -18.2425  -43.9527 C.3       12 UNK         0.1400 
     71 CB         -1.1848  -18.3492  -42.5476 C.3       12 UNK        -0.1800 
     72 C          -3.3112  -18.5227  -43.9019 C.2       12 UNK         0.5000 
     73 O          -4.0829  -17.5839  -43.7057 O.2       12 UNK        -0.5000 
     74 N          -3.7055  -19.7903  -44.0766 N.am      13 UNK        -0.5000 
     75 CA         -5.1006  -20.2260  -44.0606 C.3       13 UNK         0.1400 
     76 CB         -5.3019  -21.2654  -42.9447 C.3       13 UNK        -0.1800 
     77 C          -5.5130  -20.7949  -45.4248 C.2       13 UNK         0.5000 
     78 O          -6.5501  -20.3966  -45.9560 O.2       13 UNK        -0.5000 
     79 N          -4.7059  -21.7163  -45.9685 N.am      14 UNK        -0.5000 
     80 CA         -5.0251  -22.4501  -47.1958 C.3       14 UNK         0.1400 
     81 CB         -4.3595  -23.8329  -47.1432 C.3       14 UNK        -0.1800 
     82 C          -4.6631  -21.7033  -48.4945 C.2       14 UNK         0.5000 
     83 O          -5.0987  -22.1398  -49.5593 O.2       14 UNK        -0.5000 
     84 N          -3.8836  -20.6129  -48.4017 N.am      15 UNK        -0.5000 
     85 CA         -3.4966  -19.7027  -49.4943 C.3       15 UNK         0.1400 
     86 CB         -4.7091  -18.8462  -49.9131 C.3       15 UNK        -0.1800 
     87 C          -2.8178  -20.3855  -50.7042 C.2       15 UNK         0.5000 
     88 O          -2.9378  -19.8936  -51.8259 O.2       15 UNK        -0.5000 
     89 N          -2.1380  -21.5164  -50.4611 N.am      16 UNK        -0.5000 
     90 CA         -1.5157  -22.4082  -51.4430 C.3       16 UNK         0.1400 
     91 CB         -0.2403  -21.7659  -52.0192 C.3       16 UNK        -0.1800 
     92 C          -2.4986  -22.8871  -52.5345 C.2       16 UNK         0.5000 
     93 O          -2.1435  -22.9244  -53.7151 O.2       16 UNK        -0.5000 
     94 N          -3.7347  -23.2115  -52.1286 N.am      17 UNK        -0.5000 
     95 CA         -4.8184  -23.6728  -52.9952 C.3       17 UNK         0.1400 
     96 CB         -6.1622  -23.4899  -52.2707 C.3       17 UNK        -0.1800 
     97 C          -4.6056  -25.1168  -53.4911 C.2       17 UNK         0.5000 
     98 O          -5.2829  -26.0383  -53.0320 O.2       17 UNK        -0.5000 
     99 N          -3.6633  -25.2871  -54.4267 N.am      18 UNK        -0.5000 
    100 CA        -3.3854  -26.5463  -55.1251 C.3       18 UNK         0.1400 
    101 CB        -2.0692  -26.4025  -55.9039 C.3       18 UNK        -0.1800 
    102 C         -4.5329  -26.9602  -56.0692 C.2       18 UNK         0.5000 
    103 O         -4.7942  -28.1515  -56.2395 O.2       18 UNK        -0.5000 
    104 N         -5.2083  -25.9544  -56.6320 N.am      19 UNK        -0.5000 
    105 CA        -6.4381  -26.0469  -57.4151 C.3       19 UNK         0.1400 
    106 CB        -6.1543  -26.5337  -58.8482 C.3       19 UNK        -0.1800 
    107 C         -7.0861  -24.6574  -57.3934 C.2       19 UNK         0.5000 
    108 O         -8.2369  -24.5118  -56.9817 O.2       19 UNK        -0.5000 
    109 N         -6.2739  -23.6555  -57.7440 N.am      20 UNK        -0.5000 
    110 CA        -6.4401  -22.2513  -57.3889 C.3       20 UNK         0.1400 
    111 CB        -6.4256  -21.4087  -58.6741 C.3       20 UNK        -0.1800 
    112 C         -5.2613  -21.8719  -56.4754 C.2       20 UNK         0.5000 
    113 O         -4.2855  -22.6285  -56.3946 O.2       20 UNK        -0.5000 
    114 N         -5.3605  -20.7162  -55.8073 N.am      21 UNK        -0.5000 
    115 CA        -4.3110  -20.1369  -54.9630 C.3       21 UNK         0.1400 
    116 CB        -4.8404  -18.8400  -54.3285 C.3       21 UNK        -0.1800 
    117 C         -3.0239  -19.8798  -55.7695 C.2       21 UNK         0.5000 
    118 O         -3.0285  -19.0112  -56.6443 O.2       21 UNK        -0.5000 
    119 N         -1.9790  -20.6728  -55.4970 N.am      22 UNK        -0.5000 
    120 CA        -0.7202  -20.7380  -56.2608 C.3       22 UNK         0.1400 
    121 C         -0.8845  -21.3242  -57.6998 C.2       22 UNK         0.5000 
    122 N         -1.9531  -22.0527  -58.0023 N.am      22 UNK        -0.7600 
    123 O         -0.0171  -21.1526  -58.5525 O.2       22 UNK        -0.5000 
    124 C124        0.0932  -19.4084  -56.2241 C.3       23 UNK        -0.0398 
    125 S125        0.8942  -19.1117  -54.6140 S.3       23 UNK        -0.2404 
    126 C126       -0.3828  -18.1764  -53.7032 C.3       23 UNK        -0.0205 
    127 H127       -4.6736  -11.1248  -45.0884 H         1 UNK         0.0600 
    128 H128       -5.0197  -11.9151  -46.6297 H         1 UNK         0.0600 
    129 H129       -4.2635  -10.3193  -46.6065 H         1 UNK         0.0600 
    130 H130       -3.5635  -13.5288  -47.1087 H         1 UNK         0.3000 
    131 H131       -0.8004  -13.2012  -47.2742 H         1 UNK         0.0600 
    132 H132       -2.4110  -15.7967  -47.1665 H         1 UNK         0.0800 
    133 H133       -0.7388  -15.7115  -47.6520 H         1 UNK         0.0800 
    134 H134       -0.7546  -13.9229  -51.0327 H         1 UNK         0.0800 
    135 H135        0.1007  -14.0637  -49.5231 H         1 UNK         0.0800 
    136 H136       -1.2068  -15.9257  -52.4477 H         1 UNK         0.1150 
    137 H137        1.4717  -19.2373  -51.9211 H         1 UNK         0.1150 
    138 H138        1.2854  -16.1460  -48.9701 H         1 UNK         0.1150 
    139 H139        3.3745  -18.7774  -50.2770 H         1 UNK         0.0800 
    140 H140        3.0598  -17.7940  -48.8740 H         1 UNK         0.0800 
    141 H141        0.9229  -18.1515  -47.5332 H         1 UNK         0.0800 
    142 H142        1.7061  -19.2581  -46.4293 H         1 UNK         0.0800 
    143 H143       -0.7636  -20.0264  -48.0458 H         1 UNK         0.0600 
    144 H144        0.3946  -21.2419  -45.5647 H         1 UNK         0.3000 
    145 H145       -1.1970  -24.3228  -46.2662 H         1 UNK         0.0600 
    146 H146        1.0603  -25.2869  -45.9448 H         1 UNK         0.0600 
    147 H147        0.9364  -24.5780  -47.5468 H         1 UNK         0.0600 
    148 H148        1.8084  -23.7241  -46.2794 H         1 UNK         0.0600 
    149 H149        0.5056  -23.6415  -44.1461 H         1 UNK         0.3000 
    150 H150       -1.5417  -21.5570  -42.1924 H         1 UNK         0.0600 
    151 H151       -2.5596  -23.7869  -41.7339 H         1 UNK         0.0600 
    152 H152       -1.3927  -23.3406  -40.4999 H         1 UNK         0.0600 
    153 H153       -0.9607  -24.5235  -41.7349 H         1 UNK         0.0600 
    154 H154        0.7856  -22.6581  -41.3166 H         1 UNK         0.3000 
    155 H155        2.9870  -22.2496  -41.8862 H         1 UNK         0.0600 
    156 H156        3.4597  -19.7896  -43.6435 H         1 UNK         0.0600 
    157 H157        3.7073  -21.4622  -44.1149 H         1 UNK         0.0600 
    158 H158        4.7045  -20.7518  -42.8542 H         1 UNK         0.0600 
    159 H159        3.1067  -19.4269  -41.2086 H         1 UNK         0.3000 
    160 H160        1.4767  -19.5938  -38.1656 H         1 UNK         0.0600 
    161 H161        4.4895  -20.1593  -38.1466 H         1 UNK         0.0600 
    162 H162        3.2674  -21.0798  -37.2778 H         1 UNK         0.0600 
    163 H163        3.5723  -19.4073  -36.8406 H         1 UNK         0.0600 
    164 H164        3.7529  -18.0366  -39.1019 H         1 UNK         0.3000 
    165 H165        1.7732  -15.2907  -39.7075 H         1 UNK         0.0600 
    166 H166        4.1525  -14.6823  -39.7011 H         1 UNK         0.0600 
    167 H167        3.8328  -15.7816  -38.3729 H         1 UNK         0.0600 
    168 H168        4.6475  -16.3635  -39.8244 H         1 UNK         0.0600 
    169 H169        1.9881  -15.1031  -41.8909 H         1 UNK         0.3000 
    170 H170        3.9310  -16.7028  -44.3880 H         1 UNK         0.0600 
    171 H171        1.8871  -18.1699  -44.3227 H         1 UNK         0.0600 
    172 H172        0.8842  -16.7402  -44.1283 H         1 UNK         0.0600 
    173 H173        1.8147  -16.9599  -45.6014 H         1 UNK         0.0600 
    174 H174        1.9612  -14.6488  -44.5600 H         1 UNK         0.3000 
    175 H175        4.2832  -11.9282  -44.2369 H         1 UNK         0.0600 
    176 H176        2.7258  -13.1952  -46.5548 H         1 UNK         0.0600 
    177 H177        3.3061  -11.5328  -46.4826 H         1 UNK         0.0600 
    178 H178        4.4538  -12.8619  -46.5364 H         1 UNK         0.0600 
    179 H179        1.3856  -12.5848  -44.5438 H         1 UNK         0.3000 
    180 H180        0.5337  -11.0026  -41.5231 H         1 UNK         0.0600 
    181 H181       -0.9847   -9.5945  -42.9150 H         1 UNK         0.0600 
    182 H182        0.0379   -9.8642  -44.3260 H         1 UNK         0.0600 
    183 H183        0.6573   -8.9688  -42.9443 H         1 UNK         0.0600 
    184 H184       -1.0274  -12.0305  -43.7008 H         1 UNK         0.3000 
    185 H185       -0.7340  -15.4616  -42.9114 H         1 UNK         0.0600 
    186 H186       -3.1642  -15.4265  -42.3885 H         1 UNK         0.0600 
    187 H187       -2.2385  -14.8119  -41.0307 H         1 UNK         0.0600 
    188 H188       -3.0955  -13.6916  -42.0838 H         1 UNK         0.0600 
    189 H189       -2.6721  -14.1672  -44.5007 H         1 UNK         0.3000 
    190 H190       -0.3453  -19.6981  -44.4742 H         1 UNK         0.3000 
    191 H191       -1.6747  -17.2145  -44.2967 H         1 UNK         0.0600 
    192 H192       -1.6505  -17.6394  -41.8630 H         1 UNK         0.0600 
    193 H193       -0.1164  -18.1375  -42.5527 H         1 UNK         0.0600 
    194 H194       -1.3183  -19.3404  -42.1199 H         1 UNK         0.0600 
    195 H195       -3.0118  -20.5084  -44.2519 H         1 UNK         0.3000 
    196 H196       -5.7669  -19.3870  -43.8492 H         1 UNK         0.0600 
    197 H197       -4.6794  -22.1488  -43.0881 H         1 UNK         0.0600 
    198 H198       -5.0603  -20.8435  -41.9691 H         1 UNK         0.0600 
    199 H199       -6.3395  -21.5992  -42.9065 H         1 UNK         0.0600 
    200 H200       -3.8746  -22.0105  -45.4616 H         1 UNK         0.3000 
    201 H201       -6.1038  -22.6185  -47.2293 H         1 UNK         0.0600 
    202 H202       -4.7019  -24.4015  -46.2785 H         1 UNK         0.0600 
    203 H203       -3.2776  -23.7551  -47.0821 H         1 UNK         0.0600 
    204 H204       -4.5968  -24.4190  -48.0320 H         1 UNK         0.0600 
    205 H205       -3.5719  -20.3430  -47.4801 H         1 UNK         0.3000 
    206 H206       -2.7476  -19.0221  -49.0940 H         1 UNK         0.0600 
    207 H207       -5.4821  -19.4501  -50.3896 H         1 UNK         0.0600 
    208 H208       -5.1539  -18.3469  -49.0522 H         1 UNK         0.0600 
    209 H209       -4.4167  -18.0685  -50.6200 H         1 UNK         0.0600 
    210 H210       -2.0513  -21.8267  -49.4953 H         1 UNK         0.3000 
    211 H211       -1.2144  -23.3009  -50.8935 H         1 UNK         0.0600 
    212 H212        0.2965  -22.4624  -52.6640 H         1 UNK         0.0600 
    213 H213        0.4422  -21.4646  -51.2245 H         1 UNK         0.0600 
    214 H214       -0.4743  -20.8845  -52.6131 H         1 UNK         0.0600 
    215 H215       -3.9742  -23.0815  -51.1522 H         1 UNK         0.3000 
    216 H216       -4.8462  -23.0332  -53.8745 H         1 UNK         0.0600 
    217 H217       -6.1998  -24.0576  -51.3401 H         1 UNK         0.0600 
    218 H218       -6.9928  -23.8217  -52.8950 H         1 UNK         0.0600 
    219 H219       -6.3376  -22.4410  -52.0305 H         1 UNK         0.0600 
    220 H220       -3.1089  -24.4784  -54.6894 H         1 UNK         0.3000 
    221 H221       -3.2626  -27.3343  -54.3792 H         1 UNK         0.0600 
    222 H222       -1.2393  -26.1726  -55.2354 H         1 UNK         0.0600 
    223 H223       -2.1276  -25.6085  -56.6498 H         1 UNK         0.0600 
    224 H224       -1.8205  -27.3275  -56.4256 H         1 UNK         0.0600 
    225 H225       -4.9218  -25.0148  -56.3882 H         1 UNK         0.3000 
    226 H226       -7.1187  -26.7475  -56.9268 H         1 UNK         0.0600 
    227 H227       -5.4328  -25.8956  -59.3593 H         1 UNK         0.0600 
    228 H228       -5.7585  -27.5493  -58.8489 H         1 UNK         0.0600 
    229 H229       -7.0680  -26.5423  -59.4436 H         1 UNK         0.0600 
    230 H230       -5.3383  -23.8914  -58.0450 H         1 UNK         0.3000 
    231 H231       -7.3748  -22.0880  -56.8483 H         1 UNK         0.0600 
    232 H232       -5.4818  -21.5092  -59.2121 H         1 UNK         0.0600 
    233 H233       -6.5669  -20.3502  -58.4531 H         1 UNK         0.0600 
    234 H234       -7.2279  -21.7090  -59.3485 H         1 UNK         0.0600 
    235 H235       -6.1805  -20.1441  -55.9460 H         1 UNK         0.3000 
    236 H236       -4.0878  -20.8372  -54.1574 H         1 UNK         0.0600 
    237 H237       -5.6790  -19.0422  -53.6621 H         1 UNK         0.0600 
    238 H238       -4.0665  -18.3520  -53.7347 H         1 UNK         0.0600 
    239 H239       -5.1716  -18.1253  -55.0829 H         1 UNK         0.0600 
    240 H240       -2.0902  -21.4069  -54.8013 H         1 UNK         0.3000 
    241 H241       -0.1218  -21.4935  -55.7505 H         1 UNK         0.0600 
    242 H242       -2.6789  -22.2290  -57.3137 H         1 UNK         0.3800 
    243 H243       -2.0385  -22.4371  -58.9290 H         1 UNK         0.3800 
    244 H244       -0.5141  -18.5489  -56.5062 H         1 UNK         0.0800 
    245 H245        0.9085  -19.4341  -56.9481 H         1 UNK         0.0800 
    246 H246       -0.7161  -17.3494  -54.3318 H         1 UNK         0.0800 
    247 H247       -1.2511  -18.8129  -53.5409 H         1 UNK         0.0800 
@<TRIPOS>BOND
     1    1    2 1    
     2    1  127 1    
     3    1  128 1    
     4    1  129 1    
     5    2    3 2    
     6    2    4 am   BACKBONE|DICT|INTERRES
     7    4    5 1    
     8    4  130 1    
     9    5    6 1    
    10    5   65 1    
    11    5  131 1    
    12    6    7 1    
    13    6  132 1    
    14    6  133 1    
    15    7    8 1    
    16    8    9 1    
    17    8  134 1    
    18    8  135 1    
    19    9   10 ar   
    20    9   14 ar   
    21   10   11 ar   
    22   10  136 1    
    23   11   12 ar   
    24   11  126 1    
    25   12   13 ar   
    26   12  137 1    
    27   13   14 ar   
    28   13   15 1    
    29   14  138 1    
    30   15   16 1    
    31   15  139 1    
    32   15  140 1    
    33   16   17 1    
    34   17   18 1    
    35   17  141 1    
    36   17  142 1    
    37   18   19 1    
    38   18   67 1    
    39   18  143 1    
    40   19   20 am   BACKBONE|DICT|INTERRES
    41   19  144 1    
    42   20   21 2    
    43   20   22 1    
    44   22   23 1    
    45   22   24 1    
    46   22  145 1    
    47   23  146 1    
    48   23  147 1    
    49   23  148 1    
    50   24   25 am   BACKBONE|DICT|INTERRES
    51   24  149 1    
    52   25   26 2    
    53   25   27 1    
    54   27   28 1    
    55   27   29 1    
    56   27  150 1    
    57   28  151 1    
    58   28  152 1    
    59   28  153 1    
    60   29   30 am   BACKBONE|DICT|INTERRES
    61   29  154 1    
    62   30   31 2    
    63   30   32 1    
    64   32   33 1    
    65   32   34 1    
    66   32  155 1    
    67   33  156 1    
    68   33  157 1    
    69   33  158 1    
    70   34   35 am   BACKBONE|DICT|INTERRES
    71   34  159 1    
    72   35   36 2    
    73   35   37 1    
    74   37   38 1    
    75   37   39 1    
    76   37  160 1    
    77   38  161 1    
    78   38  162 1    
    79   38  163 1    
    80   39   40 am   BACKBONE|DICT|INTERRES
    81   39  164 1    
    82   40   41 2    
    83   40   42 1    
    84   42   43 1    
    85   42   44 1    
    86   42  165 1    
    87   43  166 1    
    88   43  167 1    
    89   43  168 1    
    90   44   45 am   BACKBONE|DICT|INTERRES
    91   44  169 1    
    92   45   46 2    
    93   45   47 1    
    94   47   48 1    
    95   47   49 1    
    96   47  170 1    
    97   48  171 1    
    98   48  172 1    
    99   48  173 1    
   100   49   50 am   BACKBONE|DICT|INTERRES
   101   49  174 1    
   102   50   51 2    
   103   50   52 1    
   104   52   53 1    
   105   52   54 1    
   106   52  175 1    
   107   53  176 1    
   108   53  177 1    
   109   53  178 1    
   110   54   55 am   BACKBONE|DICT|INTERRES
   111   54  179 1    
   112   55   56 2    
   113   55   57 1    
   114   57   58 1    
   115   57   59 1    
   116   57  180 1    
   117   58  181 1    
   118   58  182 1    
   119   58  183 1    
   120   59   60 am   BACKBONE|DICT|INTERRES
   121   59  184 1    
   122   60   61 2    
   123   60   62 1    
   124   62   63 1    
   125   62   64 1    
   126   62  185 1    
   127   63  186 1    
   128   63  187 1    
   129   63  188 1    
   130   64   65 am   BACKBONE|DICT|INTERRES
   131   64  189 1    
   132   65   66 2    
   133   67   68 2    
   134   67   69 am   BACKBONE|DICT|INTERRES
   135   69   70 1    
   136   69  190 1    
   137   70   71 1    
   138   70   72 1    
   139   70  191 1    
   140   71  192 1    
   141   71  193 1    
   142   71  194 1    
   143   72   73 2    
   144   72   74 am   BACKBONE|DICT|INTERRES
   145   74   75 1    
   146   74  195 1    
   147   75   76 1    
   148   75   77 1    
   149   75  196 1    
   150   76  197 1    
   151   76  198 1    
   152   76  199 1    
   153   77   78 2    
   154   77   79 am   BACKBONE|DICT|INTERRES
   155   79   80 1    
   156   79  200 1    
   157   80   81 1    
   158   80   82 1    
   159   80  201 1    
   160   81  202 1    
   161   81  203 1    
   162   81  204 1    
   163   82   83 2    
   164   82   84 am   BACKBONE|DICT|INTERRES
   165   84   85 1    
   166   84  205 1    
   167   85   86 1    
   168   85   87 1    
   169   85  206 1    
   170   86  207 1    
   171   86  208 1    
   172   86  209 1    
   173   87   88 2    
   174   87   89 am   BACKBONE|DICT|INTERRES
   175   89   90 1    
   176   89  210 1    
   177   90   91 1    
   178   90   92 1    
   179   90  211 1    
   180   91  212 1    
   181   91  213 1    
   182   91  214 1    
   183   92   93 2    
   184   92   94 am   BACKBONE|DICT|INTERRES
   185   94   95 1    
   186   94  215 1    
   187   95   96 1    
   188   95   97 1    
   189   95  216 1    
   190   96  217 1    
   191   96  218 1    
   192   96  219 1    
   193   97   98 2    
   194   97   99 am   BACKBONE|DICT|INTERRES
   195   99  100 1    
   196   99  220 1    
   197  100  101 1    
   198  100  102 1    
   199  100  221 1    
   200  101  222 1    
   201  101  223 1    
   202  101  224 1    
   203  102  103 2    
   204  102  104 am   BACKBONE|DICT|INTERRES
   205  104  105 1    
   206  104  225 1    
   207  105  106 1    
   208  105  107 1    
   209  105  226 1    
   210  106  227 1    
   211  106  228 1    
   212  106  229 1    
   213  107  108 2    
   214  107  109 am   BACKBONE|DICT|INTERRES
   215  109  110 1    
   216  109  230 1    
   217  110  111 1    
   218  110  112 1    
   219  110  231 1    
   220  111  232 1    
   221  111  233 1    
   222  111  234 1    
   223  112  113 2    
   224  112  114 am   BACKBONE|DICT|INTERRES
   225  114  115 1    
   226  114  235 1    
   227  115  116 1    
   228  115  117 1    
   229  115  236 1    
   230  116  237 1    
   231  116  238 1    
   232  116  239 1    
   233  117  118 2    
   234  117  119 am   BACKBONE|DICT|INTERRES
   235  119  120 1    
   236  119  240 1    
   237  120  121 1    
   238  120  124 1    
   239  120  241 1    
   240  121  122 am   BACKBONE|DICT|INTERRES
   241  121  123 2    
   242  122  242 1    
   243  122  243 1    
   244  124  125 1    
   245  124  244 1    
   246  124  245 1    
   247  125  126 1    
   248  126  246 1    
   249  126  247 1    
@<TRIPOS>SUBSTRUCTURE
     1 UNK         1 GROUP             0       ****    0 ROOT    
