@<TRIPOS>MOLECULE
3R540
247   249    1
SMALL
USER_CHARGES


@<TRIPOS>ATOM
      1 CA          4.7604  -13.1836  -49.3109 C.3       0 UNK        -0.1800 
      2 C           3.2659  -13.4580  -49.4006 C.2       0 UNK         0.5000 
      3 O           2.8130  -14.0923  -50.3534 O.2       0 UNK        -0.5000 
      4 N           2.5008  -12.9876  -48.4125 N.am      1 UNK        -0.5000 
      5 CA          1.0634  -13.1990  -48.2714 C.3       1 UNK         0.1400 
      6 C6          0.2352  -12.2980  -49.2279 C.3       23 UNK        -0.0398 
      7 S7         -1.5225  -12.7725  -49.3661 S.3       23 UNK        -0.2404 
      8 C8         -1.4280  -14.3082  -50.3400 C.3       23 UNK        -0.0205 
      9 C9         -2.7515  -15.0515  -50.2833 C.ar      23 UNK        -0.0193 
     10 C10        -3.6254  -15.0217  -51.3734 C.ar      23 UNK        -0.1150 
     11 C11        -4.8577  -15.6779  -51.3112 C.ar      23 UNK        -0.0193 
     12 C12        -5.2143  -16.3623  -50.1455 C.ar      23 UNK        -0.1150 
     13 C13        -4.3449  -16.4060  -49.0512 C.ar      23 UNK        -0.0193 
     14 C14        -3.1103  -15.7562  -49.1289 C.ar      23 UNK        -0.1150 
     15 C15        -4.7584  -17.1349  -47.7822 C.3       23 UNK        -0.0205 
     16 S16        -4.4416  -18.9208  -47.9074 S.3       23 UNK        -0.2404 
     17 C17        -2.9907  -19.1240  -46.8177 C.3       23 UNK        -0.0398 
     18 CA         -2.5251  -20.5982  -46.7448 C.3       11 UNK         0.1400 
     19 N          -1.1596  -20.7268  -46.2260 N.am      11 UNK        -0.5000 
     20 C          -0.4564  -21.8681  -46.2442 C.2       10 UNK         0.5000 
     21 O          -0.8816  -22.9127  -46.7308 O.2       10 UNK        -0.5000 
     22 CA          0.9188  -21.8676  -45.5548 C.3       10 UNK         0.1400 
     23 CB          1.9844  -21.2135  -46.4460 C.3       10 UNK        -0.1800 
     24 N           0.8770  -21.2161  -44.2453 N.am      10 UNK        -0.5000 
     25 C           0.1722  -21.6776  -43.2015 C.2       9 UNK         0.5000 
     26 O          -0.4451  -22.7420  -43.2159 O.2       9 UNK        -0.5000 
     27 CA          0.1019  -20.7848  -41.9488 C.3       9 UNK         0.1400 
     28 CB          1.3227  -21.0118  -41.0453 C.3       9 UNK        -0.1800 
     29 N          -0.0179  -19.3621  -42.2705 N.am      9 UNK        -0.5000 
     30 C          -1.0530  -18.8093  -42.9201 C.2       8 UNK         0.5000 
     31 O          -2.0496  -19.4351  -43.2802 O.2       8 UNK        -0.5000 
     32 CA         -0.9204  -17.3211  -43.2905 C.3       8 UNK         0.1400 
     33 CB         -1.2080  -16.4228  -42.0791 C.3       8 UNK        -0.1800 
     34 N           0.4011  -17.0143  -43.8396 N.am      8 UNK        -0.5000 
     35 C           0.8734  -17.5238  -44.9866 C.2       7 UNK         0.5000 
     36 O           0.2028  -18.2237  -45.7451 O.2       7 UNK        -0.5000 
     37 CA          2.3513  -17.2542  -45.3179 C.3       7 UNK         0.1400 
     38 CB          2.5155  -15.9377  -46.0799 C.3       7 UNK        -0.1800 
     39 N           3.1864  -17.2238  -44.1195 N.am      7 UNK        -0.5000 
     40 C           3.5416  -18.3127  -43.4259 C.2       6 UNK         0.5000 
     41 O           3.2235  -19.4578  -43.7444 O.2       6 UNK        -0.5000 
     42 CA          4.3538  -18.0731  -42.1404 C.3       6 UNK         0.1400 
     43 CB          5.8471  -17.9175  -42.4637 C.3       6 UNK        -0.1800 
     44 N           3.8924  -16.8994  -41.3957 N.am      6 UNK        -0.5000 
     45 C           2.6954  -16.8092  -40.7996 C.2       5 UNK         0.5000 
     46 O           1.8642  -17.7163  -40.8010 O.2       5 UNK        -0.5000 
     47 CA          2.3526  -15.4693  -40.1234 C.3       5 UNK         0.1400 
     48 CB          2.8572  -15.4541  -38.6729 C.3       5 UNK        -0.1800 
     49 N           2.8765  -14.2981  -40.8326 N.am      5 UNK        -0.5000 
     50 C           2.5169  -13.9341  -42.0699 C.2       4 UNK         0.5000 
     51 O           1.7580  -14.5944  -42.7850 O.2       4 UNK        -0.5000 
     52 CA          3.1364  -12.6364  -42.6126 C.3       4 UNK         0.1400 
     53 CB          4.2357  -12.9554  -43.6376 C.3       4 UNK        -0.1800 
     54 N           2.0998  -11.8382  -43.2572 N.am      4 UNK        -0.5000 
     55 C           1.2957  -10.9683  -42.6278 C.2       3 UNK         0.5000 
     56 O           1.4478  -10.6203  -41.4562 O.2       3 UNK        -0.5000 
     57 CA          0.0968  -10.4215  -43.4344 C.3       3 UNK         0.1400 
     58 CB          0.4891   -9.1452  -44.1936 C.3       3 UNK        -0.1800 
     59 N          -0.4030  -11.4123  -44.3879 N.am      3 UNK        -0.5000 
     60 C          -0.9996  -12.5560  -44.0332 C.2       2 UNK         0.5000 
     61 O          -1.4721  -12.7406  -42.9110 O.2       2 UNK        -0.5000 
     62 CA         -1.0380  -13.7065  -45.0661 C.3       2 UNK         0.1400 
     63 CB         -2.4513  -14.2986  -45.2025 C.3       2 UNK        -0.1800 
     64 N          -0.5182  -13.4415  -46.4150 N.am      2 UNK        -0.5000 
     65 C           0.7106  -13.0518  -46.7781 C.2       1 UNK         0.5000 
     66 O           1.5623  -12.6353  -45.9879 O.2       1 UNK        -0.5000 
     67 C          -3.5258  -21.5007  -45.9824 C.2       11 UNK         0.5000 
     68 O          -4.3658  -22.1438  -46.6139 O.2       11 UNK        -0.5000 
     69 N          -3.3815  -21.5910  -44.6521 N.am      12 UNK        -0.5000 
     70 CA         -4.1526  -22.4973  -43.7967 C.3       12 UNK         0.1400 
     71 CB         -3.8574  -22.1926  -42.3208 C.3       12 UNK        -0.1800 
     72 C          -3.9109  -23.9886  -44.1109 C.2       12 UNK         0.5000 
     73 O          -4.8382  -24.7901  -43.9859 O.2       12 UNK        -0.5000 
     74 N          -2.6984  -24.3338  -44.5663 N.am      13 UNK        -0.5000 
     75 CA         -2.3137  -25.6573  -45.0600 C.3       13 UNK         0.1400 
     76 CB         -0.7897  -25.8270  -44.9253 C.3       13 UNK        -0.1800 
     77 C          -2.8231  -25.8989  -46.4986 C.2       13 UNK         0.5000 
     78 O          -2.0315  -26.1198  -47.4190 O.2       13 UNK        -0.5000 
     79 N          -4.1536  -25.8494  -46.6546 N.am      14 UNK        -0.5000 
     80 CA         -4.9277  -26.1302  -47.8669 C.3       14 UNK         0.1400 
     81 CB         -4.8875  -27.6411  -48.1789 C.3       14 UNK        -0.1800 
     82 C          -4.5118  -25.2631  -49.0720 C.2       14 UNK         0.5000 
     83 O          -4.2749  -25.7953  -50.1574 O.2       14 UNK        -0.5000 
     84 N          -4.4047  -23.9437  -48.8539 N.am      15 UNK        -0.5000 
     85 CA         -4.0002  -22.9306  -49.8355 C.3       15 UNK         0.1400 
     86 CB         -5.0661  -22.7956  -50.9430 C.3       15 UNK        -0.1800 
     87 C          -2.5791  -23.1854  -50.3791 C.2       15 UNK         0.5000 
     88 O          -2.3567  -23.1190  -51.5891 O.2       15 UNK        -0.5000 
     89 N          -1.6534  -23.5158  -49.4658 N.am      16 UNK        -0.5000 
     90 CA         -0.2672  -23.9221  -49.7126 C.3       16 UNK         0.1400 
     91 CB          0.5603  -22.7303  -50.2374 C.3       16 UNK        -0.1800 
     92 C          -0.1894  -25.1757  -50.6046 C.2       16 UNK         0.5000 
     93 O           0.5449  -25.1884  -51.5921 O.2       16 UNK        -0.5000 
     94 N          -0.9970  -26.1898  -50.2580 N.am      17 UNK        -0.5000 
     95 CA         -1.2442  -27.4175  -51.0242 C.3       17 UNK         0.1400 
     96 CB         -0.0003  -28.3297  -51.0091 C.3       17 UNK        -0.1800 
     97 C          -1.7669  -27.1198  -52.4485 C.2       17 UNK         0.5000 
     98 O          -1.2580  -27.6624  -53.4311 O.2       17 UNK        -0.5000 
     99 N          -2.7662  -26.2298  -52.5149 N.am      18 UNK        -0.5000 
    100 CA        -3.4482  -25.7079  -53.7028 C.3       18 UNK         0.1400 
    101 CB        -4.1996  -26.8355  -54.4404 C.3       18 UNK        -0.1800 
    102 C         -2.5641  -24.8661  -54.6508 C.2       18 UNK         0.5000 
    103 O         -2.9656  -24.6311  -55.7922 O.2       18 UNK        -0.5000 
    104 N         -1.3968  -24.4016  -54.1818 N.am      19 UNK        -0.5000 
    105 CA        -0.5043  -23.5210  -54.9387 C.3       19 UNK         0.1400 
    106 CB         0.9061  -23.5586  -54.3349 C.3       19 UNK        -0.1800 
    107 C         -1.0227  -22.0731  -55.0111 C.2       19 UNK         0.5000 
    108 O         -0.8048  -21.4061  -56.0242 O.2       19 UNK        -0.5000 
    109 N         -1.7130  -21.6111  -53.9586 N.am      20 UNK        -0.5000 
    110 CA        -2.3810  -20.3122  -53.9152 C.3       20 UNK         0.1400 
    111 CB        -2.4752  -19.8243  -52.4577 C.3       20 UNK        -0.1800 
    112 C         -3.7546  -20.4270  -54.5995 C.2       20 UNK         0.5000 
    113 O         -4.7719  -20.6070  -53.9295 O.2       20 UNK        -0.5000 
    114 N         -3.7464  -20.3748  -55.9379 N.am      21 UNK        -0.5000 
    115 CA        -4.9388  -20.4765  -56.7826 C.3       21 UNK         0.1400 
    116 CB        -4.5047  -20.7000  -58.2391 C.3       21 UNK        -0.1800 
    117 C         -5.8663  -19.2503  -56.6735 C.2       21 UNK         0.5000 
    118 O         -7.0818  -19.4005  -56.8032 O.2       21 UNK        -0.5000 
    119 N         -5.2744  -18.0718  -56.4282 N.am      22 UNK        -0.5000 
    120 CA        -5.9529  -16.7840  -56.1798 C.3       22 UNK         0.1400 
    121 C         -6.7366  -16.2026  -57.3983 C.2       22 UNK         0.5000 
    122 N         -6.4905  -16.6578  -58.6207 N.am      22 UNK        -0.7600 
    123 O         -7.5560  -15.3005  -57.2448 O.2       22 UNK        -0.5000 
    124 C124       -6.7960  -16.7921  -54.8715 C.3       23 UNK        -0.0398 
    125 S125       -5.7913  -17.2115  -53.4044 S.3       23 UNK        -0.2404 
    126 C126       -5.8083  -15.6369  -52.4969 C.3       23 UNK        -0.0205 
    127 H127        5.3132  -14.1228  -49.2870 H         1 UNK         0.0600 
    128 H128        5.0150  -12.6165  -48.4149 H         1 UNK         0.0600 
    129 H129        5.0902  -12.6138  -50.1796 H         1 UNK         0.0600 
    130 H130        2.9152  -12.5189  -47.6152 H         1 UNK         0.3000 
    131 H131        0.8785  -14.2452  -48.5157 H         1 UNK         0.0600 
    132 H132        0.2925  -11.2549  -48.9125 H         1 UNK         0.0800 
    133 H133        0.6578  -12.3262  -50.2331 H         1 UNK         0.0800 
    134 H134       -1.1598  -14.0661  -51.3696 H         1 UNK         0.0800 
    135 H135       -0.6424  -14.9629  -49.9643 H         1 UNK         0.0800 
    136 H136       -3.3495  -14.4806  -52.2677 H         1 UNK         0.1150 
    137 H137       -6.1689  -16.8672  -50.0929 H         1 UNK         0.1150 
    138 H138       -2.4357  -15.7821  -48.2851 H         1 UNK         0.1150 
    139 H139       -5.8244  -16.9814  -47.6076 H         1 UNK         0.0800 
    140 H140       -4.2492  -16.7151  -46.9135 H         1 UNK         0.0800 
    141 H141       -3.2162  -18.7353  -45.8230 H         1 UNK         0.0800 
    142 H142       -2.1899  -18.4999  -47.2175 H         1 UNK         0.0800 
    143 H143       -2.4809  -20.9715  -47.7695 H         1 UNK         0.0600 
    144 H144       -0.7299  -19.8879  -45.8449 H         1 UNK         0.3000 
    145 H145        1.2103  -22.9081  -45.3965 H         1 UNK         0.0600 
    146 H146        2.9636  -21.2285  -45.9673 H         1 UNK         0.0600 
    147 H147        2.0770  -21.7470  -47.3927 H         1 UNK         0.0600 
    148 H148        1.7403  -20.1781  -46.6794 H         1 UNK         0.0600 
    149 H149        1.4244  -20.3701  -44.1329 H         1 UNK         0.3000 
    150 H150       -0.7899  -21.0719  -41.3884 H         1 UNK         0.0600 
    151 H151        1.4162  -22.0636  -40.7723 H         1 UNK         0.0600 
    152 H152        1.2390  -20.4415  -40.1200 H         1 UNK         0.0600 
    153 H153        2.2496  -20.7161  -41.5367 H         1 UNK         0.0600 
    154 H154        0.7412  -18.7624  -41.9588 H         1 UNK         0.3000 
    155 H155       -1.6618  -17.0996  -44.0610 H         1 UNK         0.0600 
    156 H156       -2.2289  -16.5667  -41.7241 H         1 UNK         0.0600 
    157 H157       -1.0961  -15.3690  -42.3305 H         1 UNK         0.0600 
    158 H158       -0.5399  -16.6373  -41.2459 H         1 UNK         0.0600 
    159 H159        0.9936  -16.3934  -43.2981 H         1 UNK         0.3000 
    160 H160        2.7005  -18.0612  -45.9650 H         1 UNK         0.0600 
    161 H161        2.2348  -15.0926  -45.4542 H         1 UNK         0.0600 
    162 H162        1.8897  -15.9225  -46.9725 H         1 UNK         0.0600 
    163 H163        3.5466  -15.7893  -46.4009 H         1 UNK         0.0600 
    164 H164        3.4435  -16.3147  -43.7648 H         1 UNK         0.3000 
    165 H165        4.2319  -18.9507  -41.5019 H         1 UNK         0.0600 
    166 H166        6.4397  -17.8247  -41.5534 H         1 UNK         0.0600 
    167 H167        6.2210  -18.7869  -43.0063 H         1 UNK         0.0600 
    168 H168        6.0382  -17.0383  -43.0803 H         1 UNK         0.0600 
    169 H169        4.5180  -16.1089  -41.3468 H         1 UNK         0.3000 
    170 H170        1.2644  -15.3824  -40.1037 H         1 UNK         0.0600 
    171 H171        2.4648  -16.3051  -38.1143 H         1 UNK         0.0600 
    172 H172        3.9457  -15.5028  -38.6236 H         1 UNK         0.0600 
    173 H173        2.5368  -14.5511  -38.1530 H         1 UNK         0.0600 
    174 H174        3.5127  -13.7091  -40.3146 H         1 UNK         0.3000 
    175 H175        3.5812  -12.0704  -41.7915 H         1 UNK         0.0600 
    176 H176        3.8459  -13.5133  -44.4897 H         1 UNK         0.0600 
    177 H177        4.6917  -12.0422  -44.0202 H         1 UNK         0.0600 
    178 H178        5.0300  -13.5524  -43.1880 H         1 UNK         0.0600 
    179 H179        1.8766  -12.1036  -44.2132 H         1 UNK         0.3000 
    180 H180       -0.7024  -10.1755  -42.7322 H         1 UNK         0.0600 
    181 H181        1.2801   -9.3360  -44.9201 H         1 UNK         0.0600 
    182 H182        0.8508   -8.3790  -43.5067 H         1 UNK         0.0600 
    183 H183       -0.3640   -8.7265  -44.7277 H         1 UNK         0.0600 
    184 H184       -0.0015  -11.3793  -45.3149 H         1 UNK         0.3000 
    185 H185       -0.3976  -14.4823  -44.6454 H         1 UNK         0.0600 
    186 H186       -2.8682  -14.5675  -44.2312 H         1 UNK         0.0600 
    187 H187       -3.1368  -13.5915  -45.6709 H         1 UNK         0.0600 
    188 H188       -2.4402  -15.2070  -45.8048 H         1 UNK         0.0600 
    189 H189       -1.1574  -13.6720  -47.1637 H         1 UNK         0.3000 
    190 H190       -2.7068  -20.9879  -44.1888 H         1 UNK         0.3000 
    191 H191       -5.2104  -22.2945  -43.9759 H         1 UNK         0.0600 
    192 H192       -2.8153  -22.3856  -42.0692 H         1 UNK         0.0600 
    193 H193       -4.0726  -21.1510  -42.0815 H         1 UNK         0.0600 
    194 H194       -4.4717  -22.8111  -41.6654 H         1 UNK         0.0600 
    195 H195       -1.9912  -23.6126  -44.6389 H         1 UNK         0.3000 
    196 H196       -2.7792  -26.4136  -44.4249 H         1 UNK         0.0600 
    197 H197       -0.4830  -26.8316  -45.2185 H         1 UNK         0.0600 
    198 H198       -0.4662  -25.6754  -43.8954 H         1 UNK         0.0600 
    199 H199       -0.2428  -25.1239  -45.5522 H         1 UNK         0.0600 
    200 H200       -4.6965  -25.6102  -45.8308 H         1 UNK         0.3000 
    201 H201       -5.9619  -25.8656  -47.6431 H         1 UNK         0.0600 
    202 H202       -5.5391  -27.8853  -49.0188 H         1 UNK         0.0600 
    203 H203       -5.2262  -28.2289  -47.3259 H         1 UNK         0.0600 
    204 H204       -3.8817  -27.9744  -48.4372 H         1 UNK         0.0600 
    205 H205       -4.5690  -23.5830  -47.9177 H         1 UNK         0.3000 
    206 H206       -3.9623  -21.9771  -49.3094 H         1 UNK         0.0600 
    207 H207       -6.0497  -22.5963  -50.5182 H         1 UNK         0.0600 
    208 H208       -4.8341  -21.9697  -51.6134 H         1 UNK         0.0600 
    209 H209       -5.1416  -23.6955  -51.5523 H         1 UNK         0.0600 
    210 H210       -1.9217  -23.5492  -48.4889 H         1 UNK         0.3000 
    211 H211        0.1524  -24.2171  -48.7503 H         1 UNK         0.0600 
    212 H212        0.5273  -21.8954  -49.5375 H         1 UNK         0.0600 
    213 H213        1.6075  -23.0060  -50.3653 H         1 UNK         0.0600 
    214 H214        0.1943  -22.3714  -51.1991 H         1 UNK         0.0600 
    215 H215       -1.5443  -26.0859  -49.4082 H         1 UNK         0.3000 
    216 H216       -2.0472  -27.9443  -50.5066 H         1 UNK         0.0600 
    217 H217       -0.2150  -29.2887  -51.4818 H         1 UNK         0.0600 
    218 H218        0.8386  -27.8827  -51.5433 H         1 UNK         0.0600 
    219 H219        0.3233  -28.5361  -49.9889 H         1 UNK         0.0600 
    220 H220       -3.1374  -25.8844  -51.6318 H         1 UNK         0.3000 
    221 H221       -4.1995  -25.0159  -53.3217 H         1 UNK         0.0600 
    222 H222       -3.5129  -27.5363  -54.9158 H         1 UNK         0.0600 
    223 H223       -4.8350  -27.3983  -53.7565 H         1 UNK         0.0600 
    224 H224       -4.8457  -26.4323  -55.2209 H         1 UNK         0.0600 
    225 H225       -1.1379  -24.6086  -53.2254 H         1 UNK         0.3000 
    226 H226       -0.4361  -23.8996  -55.9609 H         1 UNK         0.0600 
    227 H227        1.2910  -24.5777  -54.2923 H         1 UNK         0.0600 
    228 H228        1.6022  -22.9717  -54.9352 H         1 UNK         0.0600 
    229 H229        0.9225  -23.1504  -53.3248 H         1 UNK         0.0600 
    230 H230       -1.8912  -22.2333  -53.1724 H         1 UNK         0.3000 
    231 H231       -1.7879  -19.5767  -54.4629 H         1 UNK         0.0600 
    232 H232       -2.9554  -18.8460  -52.4062 H         1 UNK         0.0600 
    233 H233       -1.4859  -19.7266  -52.0108 H         1 UNK         0.0600 
    234 H234       -3.0547  -20.5023  -51.8338 H         1 UNK         0.0600 
    235 H235       -2.8546  -20.3026  -56.4104 H         1 UNK         0.3000 
    236 H236       -5.5082  -21.3508  -56.4598 H         1 UNK         0.0600 
    237 H237       -3.9142  -21.6112  -58.3380 H         1 UNK         0.0600 
    238 H238       -5.3713  -20.8029  -58.8937 H         1 UNK         0.0600 
    239 H239       -3.9057  -19.8692  -58.6140 H         1 UNK         0.0600 
    240 H240       -4.2687  -18.0578  -56.3470 H         1 UNK         0.3000 
    241 H241       -5.1466  -16.0660  -56.0262 H         1 UNK         0.0600 
    242 H242       -6.9914  -16.2708  -59.4054 H         1 UNK         0.3800 
    243 H243       -5.8153  -17.3906  -58.7681 H         1 UNK         0.3800 
    244 H244       -7.2656  -15.8210  -54.7079 H         1 UNK         0.0800 
    245 H245       -7.6148  -17.5085  -54.9467 H         1 UNK         0.0800 
    246 H246       -6.8213  -15.4276  -52.1498 H         1 UNK         0.0800 
    247 H247       -5.5363  -14.8249  -53.1733 H         1 UNK         0.0800 
@<TRIPOS>BOND
     1    1    2 1    
     2    1  127 1    
     3    1  128 1    
     4    1  129 1    
     5    2    3 2    
     6    2    4 am   BACKBONE|DICT|INTERRES
     7    4    5 1    
     8    4  130 1    
     9    5    6 1    
    10    5   65 1    
    11    5  131 1    
    12    6    7 1    
    13    6  132 1    
    14    6  133 1    
    15    7    8 1    
    16    8    9 1    
    17    8  134 1    
    18    8  135 1    
    19    9   10 ar   
    20    9   14 ar   
    21   10   11 ar   
    22   10  136 1    
    23   11   12 ar   
    24   11  126 1    
    25   12   13 ar   
    26   12  137 1    
    27   13   14 ar   
    28   13   15 1    
    29   14  138 1    
    30   15   16 1    
    31   15  139 1    
    32   15  140 1    
    33   16   17 1    
    34   17   18 1    
    35   17  141 1    
    36   17  142 1    
    37   18   19 1    
    38   18   67 1    
    39   18  143 1    
    40   19   20 am   BACKBONE|DICT|INTERRES
    41   19  144 1    
    42   20   21 2    
    43   20   22 1    
    44   22   23 1    
    45   22   24 1    
    46   22  145 1    
    47   23  146 1    
    48   23  147 1    
    49   23  148 1    
    50   24   25 am   BACKBONE|DICT|INTERRES
    51   24  149 1    
    52   25   26 2    
    53   25   27 1    
    54   27   28 1    
    55   27   29 1    
    56   27  150 1    
    57   28  151 1    
    58   28  152 1    
    59   28  153 1    
    60   29   30 am   BACKBONE|DICT|INTERRES
    61   29  154 1    
    62   30   31 2    
    63   30   32 1    
    64   32   33 1    
    65   32   34 1    
    66   32  155 1    
    67   33  156 1    
    68   33  157 1    
    69   33  158 1    
    70   34   35 am   BACKBONE|DICT|INTERRES
    71   34  159 1    
    72   35   36 2    
    73   35   37 1    
    74   37   38 1    
    75   37   39 1    
    76   37  160 1    
    77   38  161 1    
    78   38  162 1    
    79   38  163 1    
    80   39   40 am   BACKBONE|DICT|INTERRES
    81   39  164 1    
    82   40   41 2    
    83   40   42 1    
    84   42   43 1    
    85   42   44 1    
    86   42  165 1    
    87   43  166 1    
    88   43  167 1    
    89   43  168 1    
    90   44   45 am   BACKBONE|DICT|INTERRES
    91   44  169 1    
    92   45   46 2    
    93   45   47 1    
    94   47   48 1    
    95   47   49 1    
    96   47  170 1    
    97   48  171 1    
    98   48  172 1    
    99   48  173 1    
   100   49   50 am   BACKBONE|DICT|INTERRES
   101   49  174 1    
   102   50   51 2    
   103   50   52 1    
   104   52   53 1    
   105   52   54 1    
   106   52  175 1    
   107   53  176 1    
   108   53  177 1    
   109   53  178 1    
   110   54   55 am   BACKBONE|DICT|INTERRES
   111   54  179 1    
   112   55   56 2    
   113   55   57 1    
   114   57   58 1    
   115   57   59 1    
   116   57  180 1    
   117   58  181 1    
   118   58  182 1    
   119   58  183 1    
   120   59   60 am   BACKBONE|DICT|INTERRES
   121   59  184 1    
   122   60   61 2    
   123   60   62 1    
   124   62   63 1    
   125   62   64 1    
   126   62  185 1    
   127   63  186 1    
   128   63  187 1    
   129   63  188 1    
   130   64   65 am   BACKBONE|DICT|INTERRES
   131   64  189 1    
   132   65   66 2    
   133   67   68 2    
   134   67   69 am   BACKBONE|DICT|INTERRES
   135   69   70 1    
   136   69  190 1    
   137   70   71 1    
   138   70   72 1    
   139   70  191 1    
   140   71  192 1    
   141   71  193 1    
   142   71  194 1    
   143   72   73 2    
   144   72   74 am   BACKBONE|DICT|INTERRES
   145   74   75 1    
   146   74  195 1    
   147   75   76 1    
   148   75   77 1    
   149   75  196 1    
   150   76  197 1    
   151   76  198 1    
   152   76  199 1    
   153   77   78 2    
   154   77   79 am   BACKBONE|DICT|INTERRES
   155   79   80 1    
   156   79  200 1    
   157   80   81 1    
   158   80   82 1    
   159   80  201 1    
   160   81  202 1    
   161   81  203 1    
   162   81  204 1    
   163   82   83 2    
   164   82   84 am   BACKBONE|DICT|INTERRES
   165   84   85 1    
   166   84  205 1    
   167   85   86 1    
   168   85   87 1    
   169   85  206 1    
   170   86  207 1    
   171   86  208 1    
   172   86  209 1    
   173   87   88 2    
   174   87   89 am   BACKBONE|DICT|INTERRES
   175   89   90 1    
   176   89  210 1    
   177   90   91 1    
   178   90   92 1    
   179   90  211 1    
   180   91  212 1    
   181   91  213 1    
   182   91  214 1    
   183   92   93 2    
   184   92   94 am   BACKBONE|DICT|INTERRES
   185   94   95 1    
   186   94  215 1    
   187   95   96 1    
   188   95   97 1    
   189   95  216 1    
   190   96  217 1    
   191   96  218 1    
   192   96  219 1    
   193   97   98 2    
   194   97   99 am   BACKBONE|DICT|INTERRES
   195   99  100 1    
   196   99  220 1    
   197  100  101 1    
   198  100  102 1    
   199  100  221 1    
   200  101  222 1    
   201  101  223 1    
   202  101  224 1    
   203  102  103 2    
   204  102  104 am   BACKBONE|DICT|INTERRES
   205  104  105 1    
   206  104  225 1    
   207  105  106 1    
   208  105  107 1    
   209  105  226 1    
   210  106  227 1    
   211  106  228 1    
   212  106  229 1    
   213  107  108 2    
   214  107  109 am   BACKBONE|DICT|INTERRES
   215  109  110 1    
   216  109  230 1    
   217  110  111 1    
   218  110  112 1    
   219  110  231 1    
   220  111  232 1    
   221  111  233 1    
   222  111  234 1    
   223  112  113 2    
   224  112  114 am   BACKBONE|DICT|INTERRES
   225  114  115 1    
   226  114  235 1    
   227  115  116 1    
   228  115  117 1    
   229  115  236 1    
   230  116  237 1    
   231  116  238 1    
   232  116  239 1    
   233  117  118 2    
   234  117  119 am   BACKBONE|DICT|INTERRES
   235  119  120 1    
   236  119  240 1    
   237  120  121 1    
   238  120  124 1    
   239  120  241 1    
   240  121  122 am   BACKBONE|DICT|INTERRES
   241  121  123 2    
   242  122  242 1    
   243  122  243 1    
   244  124  125 1    
   245  124  244 1    
   246  124  245 1    
   247  125  126 1    
   248  126  246 1    
   249  126  247 1    
@<TRIPOS>SUBSTRUCTURE
     1 UNK         1 GROUP             0       ****    0 ROOT    
