@<TRIPOS>MOLECULE
3R540
247   249    1
SMALL
USER_CHARGES


@<TRIPOS>ATOM
      1 CA         -3.7820  -13.8631  -49.4131 C.3       0 UNK        -0.1800 
      2 C          -2.7024  -13.2606  -48.5246 C.2       0 UNK         0.5000 
      3 O          -2.8542  -12.1386  -48.0422 O.2       0 UNK        -0.5000 
      4 N          -1.6161  -14.0097  -48.2975 N.am      1 UNK        -0.5000 
      5 CA         -0.4421  -13.5954  -47.5148 C.3       1 UNK         0.1400 
      6 C6          0.7974  -14.4850  -47.7955 C.3       23 UNK        -0.0398 
      7 S7          1.2919  -14.4678  -49.5517 S.3       23 UNK        -0.2404 
      8 C8          2.0304  -16.1298  -49.7426 C.3       23 UNK        -0.0205 
      9 C9          1.0569  -17.3048  -49.8750 C.ar      23 UNK        -0.0193 
     10 C10        -0.3361  -17.1597  -49.8346 C.ar      23 UNK        -0.1150 
     11 C11        -1.1786  -18.2660  -49.9667 C.ar      23 UNK        -0.0193 
     12 C12        -0.6244  -19.5316  -50.1649 C.ar      23 UNK        -0.1150 
     13 C13         0.7616  -19.6943  -50.2301 C.ar      23 UNK        -0.0193 
     14 C14         1.5923  -18.5818  -50.0704 C.ar      23 UNK        -0.1150 
     15 C15         1.3647  -21.0643  -50.5000 C.3       23 UNK        -0.0205 
     16 S16         1.7486  -21.9502  -48.9605 S.3       23 UNK        -0.2404 
     17 C17         0.0711  -22.3459  -48.3742 C.3       23 UNK        -0.0398 
     18 CA          0.0860  -23.4419  -47.2873 C.3       11 UNK         0.1400 
     19 N           0.5682  -22.9535  -45.9945 N.am      11 UNK        -0.5000 
     20 C           0.8166  -23.7307  -44.9308 C.2       10 UNK         0.5000 
     21 O           0.7357  -24.9592  -44.9472 O.2       10 UNK        -0.5000 
     22 CA          1.1478  -23.0110  -43.6105 C.3       10 UNK         0.1400 
     23 CB          2.6086  -22.5371  -43.5855 C.3       10 UNK        -0.1800 
     24 N           0.2572  -21.8773  -43.3612 N.am      10 UNK        -0.5000 
     25 C          -1.0688  -21.9745  -43.1884 C.2       9 UNK         0.5000 
     26 O          -1.6794  -23.0430  -43.1529 O.2       9 UNK        -0.5000 
     27 CA         -1.8500  -20.6530  -43.0925 C.3       9 UNK         0.1400 
     28 CB         -1.8049  -20.0829  -41.6667 C.3       9 UNK        -0.1800 
     29 N          -1.3547  -19.6556  -44.0416 N.am      9 UNK        -0.5000 
     30 C          -1.5144  -19.7351  -45.3700 C.2       8 UNK         0.5000 
     31 O          -2.1201  -20.6453  -45.9330 O.2       8 UNK        -0.5000 
     32 CA         -0.8566  -18.6309  -46.2156 C.3       8 UNK         0.1400 
     33 CB         -1.7635  -17.3966  -46.2826 C.3       8 UNK        -0.1800 
     34 N           0.4644  -18.2423  -45.7202 N.am      8 UNK        -0.5000 
     35 C           1.5250  -19.0617  -45.7124 C.2       7 UNK         0.5000 
     36 O           1.4935  -20.2229  -46.1134 O.2       7 UNK        -0.5000 
     37 CA          2.8223  -18.5123  -45.0941 C.3       7 UNK         0.1400 
     38 CB          3.5645  -17.6290  -46.1093 C.3       7 UNK        -0.1800 
     39 N           2.6154  -17.7541  -43.8575 N.am      7 UNK        -0.5000 
     40 C           1.9609  -18.1778  -42.7656 C.2       6 UNK         0.5000 
     41 O           1.4309  -19.2860  -42.6833 O.2       6 UNK        -0.5000 
     42 CA          1.8764  -17.2158  -41.5601 C.3       6 UNK         0.1400 
     43 CB          2.5076  -17.8551  -40.3128 C.3       6 UNK        -0.1800 
     44 N           2.5047  -15.9096  -41.7868 N.am      6 UNK        -0.5000 
     45 C           2.0000  -14.9318  -42.5489 C.2       5 UNK         0.5000 
     46 O           0.9365  -15.0269  -43.1614 O.2       5 UNK        -0.5000 
     47 CA          2.8726  -13.6779  -42.6912 C.3       5 UNK         0.1400 
     48 CB          4.0559  -13.9510  -43.6401 C.3       5 UNK        -0.1800 
     49 N           2.0918  -12.5551  -43.2043 N.am      5 UNK        -0.5000 
     50 C           2.4027  -11.2670  -43.0099 C.2       4 UNK         0.5000 
     51 O           3.3414  -10.8951  -42.3037 O.2       4 UNK        -0.5000 
     52 CA          1.5485  -10.2081  -43.7250 C.3       4 UNK         0.1400 
     53 CB          2.0523  -10.0055  -45.1635 C.3       4 UNK        -0.1800 
     54 N           0.1334  -10.5708  -43.7677 N.am      4 UNK        -0.5000 
     55 C          -0.8352   -9.9690  -43.0643 C.2       3 UNK         0.5000 
     56 O          -0.6277   -9.0689  -42.2491 O.2       3 UNK        -0.5000 
     57 CA         -2.2886  -10.4175  -43.3236 C.3       3 UNK         0.1400 
     58 CB         -3.0066   -9.4038  -44.2282 C.3       3 UNK        -0.1800 
     59 N          -2.3900  -11.7414  -43.9362 N.am      3 UNK        -0.5000 
     60 C          -2.1991  -12.8962  -43.2860 C.2       2 UNK         0.5000 
     61 O          -1.9748  -12.9701  -42.0775 O.2       2 UNK        -0.5000 
     62 CA         -2.2662  -14.1853  -44.1289 C.3       2 UNK         0.1400 
     63 CB         -3.6901  -14.7634  -44.0837 C.3       2 UNK        -0.1800 
     64 N          -1.8603  -14.0410  -45.5338 N.am      2 UNK        -0.5000 
     65 C          -0.7086  -13.5267  -45.9950 C.2       1 UNK         0.5000 
     66 O           0.1384  -13.0012  -45.2746 O.2       1 UNK        -0.5000 
     67 C          -1.2966  -24.1064  -47.1668 C.2       11 UNK         0.5000 
     68 O          -1.4628  -25.2104  -47.6790 O.2       11 UNK        -0.5000 
     69 N          -2.2456  -23.4664  -46.4681 N.am      12 UNK        -0.5000 
     70 CA         -3.5920  -23.9969  -46.2368 C.3       12 UNK         0.1400 
     71 CB         -4.4496  -22.9537  -45.5060 C.3       12 UNK        -0.1800 
     72 C          -3.5920  -25.3370  -45.4775 C.2       12 UNK         0.5000 
     73 O          -4.3302  -26.2457  -45.8582 O.2       12 UNK        -0.5000 
     74 N          -2.7251  -25.4592  -44.4619 N.am      13 UNK        -0.5000 
     75 CA         -2.4935  -26.6939  -43.7077 C.3       13 UNK         0.1400 
     76 CB         -1.6024  -26.3880  -42.4945 C.3       13 UNK        -0.1800 
     77 C          -1.8825  -27.8233  -44.5626 C.2       13 UNK         0.5000 
     78 O          -2.2120  -28.9908  -44.3514 O.2       13 UNK        -0.5000 
     79 N          -1.0292  -27.4558  -45.5274 N.am      14 UNK        -0.5000 
     80 CA         -0.4170  -28.3597  -46.5044 C.3       14 UNK         0.1400 
     81 CB          0.9041  -27.7358  -46.9847 C.3       14 UNK        -0.1800 
     82 C          -1.3324  -28.6806  -47.7069 C.2       14 UNK         0.5000 
     83 O          -0.9589  -29.5152  -48.5323 O.2       14 UNK        -0.5000 
     84 N          -2.4905  -28.0088  -47.7985 N.am      15 UNK        -0.5000 
     85 CA         -3.4601  -28.0291  -48.9001 C.3       15 UNK         0.1400 
     86 CB         -4.0957  -29.4261  -49.0601 C.3       15 UNK        -0.1800 
     87 C          -2.8920  -27.4596  -50.2209 C.2       15 UNK         0.5000 
     88 O          -3.2708  -27.9084  -51.3047 O.2       15 UNK        -0.5000 
     89 N          -2.0010  -26.4697  -50.1019 N.am      16 UNK        -0.5000 
     90 CA         -1.4112  -25.7013  -51.1935 C.3       16 UNK         0.1400 
     91 CB          0.0935  -25.5462  -50.9132 C.3       16 UNK        -0.1800 
     92 C          -2.0866  -24.3215  -51.2959 C.2       16 UNK         0.5000 
     93 O          -2.7970  -23.9028  -50.3782 O.2       16 UNK        -0.5000 
     94 N          -1.8304  -23.6227  -52.4048 N.am      17 UNK        -0.5000 
     95 CA         -2.3199  -22.2766  -52.6815 C.3       17 UNK         0.1400 
     96 CB         -3.6891  -22.3563  -53.3783 C.3       17 UNK        -0.1800 
     97 C          -1.3057  -21.5504  -53.5732 C.2       17 UNK         0.5000 
     98 O          -0.5808  -22.2035  -54.3293 O.2       17 UNK        -0.5000 
     99 N          -1.2996  -20.2159  -53.4928 N.am      18 UNK        -0.5000 
    100 CA        -0.6012  -19.3390  -54.4316 C.3       18 UNK         0.1400 
    101 CB        -0.2466  -18.0257  -53.7130 C.3       18 UNK        -0.1800 
    102 C         -1.4823  -19.0718  -55.6684 C.2       18 UNK         0.5000 
    103 O         -2.6444  -19.4875  -55.7075 O.2       18 UNK        -0.5000 
    104 N         -0.9341  -18.3319  -56.6424 N.am      19 UNK        -0.5000 
    105 CA        -1.5919  -17.9418  -57.8987 C.3       19 UNK         0.1400 
    106 CB        -0.5849  -17.1690  -58.7646 C.3       19 UNK        -0.1800 
    107 C         -2.8938  -17.1261  -57.7292 C.2       19 UNK         0.5000 
    108 O         -3.7047  -17.0789  -58.6546 O.2       19 UNK        -0.5000 
    109 N         -3.0845  -16.5269  -56.5460 N.am      20 UNK        -0.5000 
    110 CA        -4.3106  -15.8532  -56.1166 C.3       20 UNK         0.1400 
    111 CB        -3.9903  -15.0234  -54.8621 C.3       20 UNK        -0.1800 
    112 C         -5.4900  -16.8119  -55.8351 C.2       20 UNK         0.5000 
    113 O         -6.6141  -16.3330  -55.6809 O.2       20 UNK        -0.5000 
    114 N         -5.2215  -18.1266  -55.7476 N.am      21 UNK        -0.5000 
    115 CA        -6.1564  -19.2070  -55.4023 C.3       21 UNK         0.1400 
    116 CB        -7.2784  -19.3405  -56.4530 C.3       21 UNK        -0.1800 
    117 C         -6.6820  -19.0917  -53.9548 C.2       21 UNK         0.5000 
    118 O         -7.8323  -19.4293  -53.6718 O.2       21 UNK        -0.5000 
    119 N         -5.8082  -18.6092  -53.0658 N.am      22 UNK        -0.5000 
    120 CA        -6.0483  -18.3489  -51.6384 C.3       22 UNK         0.1400 
    121 C         -6.0600  -19.6031  -50.7134 C.2       22 UNK         0.5000 
    122 N         -5.8800  -20.8137  -51.2241 N.am      22 UNK        -0.7600 
    123 O         -6.2492  -19.4759  -49.5071 O.2       22 UNK        -0.5000 
    124 C124       -5.0896  -17.2444  -51.1190 C.3       23 UNK        -0.0398 
    125 S125       -3.3313  -17.5529  -51.5148 S.3       23 UNK        -0.2404 
    126 C126       -2.6856  -18.0852  -49.9043 C.3       23 UNK        -0.0205 
    127 H127       -3.4727  -14.8195  -49.8347 H         1 UNK         0.0600 
    128 H128       -4.0083  -13.1885  -50.2387 H         1 UNK         0.0600 
    129 H129       -4.6956  -14.0216  -48.8403 H         1 UNK         0.0600 
    130 H130       -1.5453  -14.9122  -48.7395 H         1 UNK         0.3000 
    131 H131       -0.1897  -12.5778  -47.8211 H         1 UNK         0.0600 
    132 H132        1.6568  -14.1410  -47.2163 H         1 UNK         0.0800 
    133 H133        0.6141  -15.5130  -47.4807 H         1 UNK         0.0800 
    134 H134        2.6557  -16.1088  -50.6363 H         1 UNK         0.0800 
    135 H135        2.7035  -16.3152  -48.9045 H         1 UNK         0.0800 
    136 H136       -0.7831  -16.1877  -49.7176 H         1 UNK         0.1150 
    137 H137       -1.2717  -20.3883  -50.2735 H         1 UNK         0.1150 
    138 H138        2.6648  -18.7101  -50.1153 H         1 UNK         0.1150 
    139 H139        0.6938  -21.6646  -51.1161 H         1 UNK         0.0800 
    140 H140        2.2831  -20.9527  -51.0780 H         1 UNK         0.0800 
    141 H141       -0.5134  -22.6645  -49.2388 H         1 UNK         0.0800 
    142 H142       -0.4027  -21.4380  -47.9992 H         1 UNK         0.0800 
    143 H143        0.7759  -24.2253  -47.6087 H         1 UNK         0.0600 
    144 H144        0.7299  -21.9519  -45.9233 H         1 UNK         0.3000 
    145 H145        1.0090  -23.7269  -42.7978 H         1 UNK         0.0600 
    146 H146        2.8540  -22.0673  -42.6328 H         1 UNK         0.0600 
    147 H147        2.8137  -21.8151  -44.3757 H         1 UNK         0.0600 
    148 H148        3.2920  -23.3759  -43.7222 H         1 UNK         0.0600 
    149 H149        0.6829  -20.9551  -43.3329 H         1 UNK         0.3000 
    150 H150       -2.8933  -20.8634  -43.3361 H         1 UNK         0.0600 
    151 H151       -2.2162  -20.7964  -40.9516 H         1 UNK         0.0600 
    152 H152       -2.3938  -19.1690  -41.5886 H         1 UNK         0.0600 
    153 H153       -0.7872  -19.8545  -41.3498 H         1 UNK         0.0600 
    154 H154       -0.7804  -18.9164  -43.6641 H         1 UNK         0.3000 
    155 H155       -0.7344  -19.0220  -47.2270 H         1 UNK         0.0600 
    156 H156       -2.7731  -17.6656  -46.5962 H         1 UNK         0.0600 
    157 H157       -1.3860  -16.6694  -46.9983 H         1 UNK         0.0600 
    158 H158       -1.8374  -16.9121  -45.3099 H         1 UNK         0.0600 
    159 H159        0.5633  -17.3164  -45.3308 H         1 UNK         0.3000 
    160 H160        3.4580  -19.3660  -44.8515 H         1 UNK         0.0600 
    161 H161        3.0021  -16.7243  -46.3438 H         1 UNK         0.0600 
    162 H162        3.7304  -18.1642  -47.0456 H         1 UNK         0.0600 
    163 H163        4.5414  -17.3278  -45.7309 H         1 UNK         0.0600 
    164 H164        3.0154  -16.8293  -43.8271 H         1 UNK         0.3000 
    165 H165        0.8154  -17.0553  -41.3576 H         1 UNK         0.0600 
    166 H166        2.3954  -17.2119  -39.4398 H         1 UNK         0.0600 
    167 H167        2.0306  -18.8067  -40.0738 H         1 UNK         0.0600 
    168 H168        3.5716  -18.0482  -40.4547 H         1 UNK         0.0600 
    169 H169        3.3952  -15.7631  -41.3327 H         1 UNK         0.3000 
    170 H170        3.2528  -13.4286  -41.6982 H         1 UNK         0.0600 
    171 H171        3.7123  -14.1956  -44.6463 H         1 UNK         0.0600 
    172 H172        4.7124  -13.0840  -43.7149 H         1 UNK         0.0600 
    173 H173        4.6661  -14.7835  -43.2882 H         1 UNK         0.0600 
    174 H174        1.3013  -12.8110  -43.7931 H         1 UNK         0.3000 
    175 H175        1.6840   -9.2648  -43.1920 H         1 UNK         0.0600 
    176 H176        1.9523  -10.9138  -45.7591 H         1 UNK         0.0600 
    177 H177        1.4974   -9.2133  -45.6662 H         1 UNK         0.0600 
    178 H178        3.1053   -9.7211  -45.1725 H         1 UNK         0.0600 
    179 H179       -0.1065  -11.3507  -44.3722 H         1 UNK         0.3000 
    180 H180       -2.8031  -10.4384  -42.3605 H         1 UNK         0.0600 
    181 H181       -4.0550   -9.6697  -44.3646 H         1 UNK         0.0600 
    182 H182       -2.5433   -9.3460  -45.2141 H         1 UNK         0.0600 
    183 H183       -2.9805   -8.4035  -43.7937 H         1 UNK         0.0600 
    184 H184       -2.5704  -11.7737  -44.9296 H         1 UNK         0.3000 
    185 H185       -1.5936  -14.9096  -43.6686 H         1 UNK         0.0600 
    186 H186       -4.4089  -14.0938  -44.5579 H         1 UNK         0.0600 
    187 H187       -3.7505  -15.7277  -44.5871 H         1 UNK         0.0600 
    188 H188       -4.0165  -14.9182  -43.0544 H         1 UNK         0.0600 
    189 H189       -2.5040  -14.4088  -46.2176 H         1 UNK         0.3000 
    190 H190       -2.0593  -22.5330  -46.1108 H         1 UNK         0.3000 
    191 H191       -4.0413  -24.1754  -47.2161 H         1 UNK         0.0600 
    192 H192       -4.0358  -22.7047  -44.5292 H         1 UNK         0.0600 
    193 H193       -5.4636  -23.3232  -45.3485 H         1 UNK         0.0600 
    194 H194       -4.5262  -22.0322  -46.0833 H         1 UNK         0.0600 
    195 H195       -2.1863  -24.6449  -44.1799 H         1 UNK         0.3000 
    196 H196       -3.4594  -27.0453  -43.3394 H         1 UNK         0.0600 
    197 H197       -2.0647  -25.6458  -41.8435 H         1 UNK         0.0600 
    198 H198       -0.6277  -26.0045  -42.7977 H         1 UNK         0.0600 
    199 H199       -1.4324  -27.2848  -41.8975 H         1 UNK         0.0600 
    200 H200       -0.7873  -26.4754  -45.6122 H         1 UNK         0.3000 
    201 H201       -0.1840  -29.3058  -46.0118 H         1 UNK         0.0600 
    202 H202        1.5718  -27.5321  -46.1474 H         1 UNK         0.0600 
    203 H203        0.7374  -26.7978  -47.5146 H         1 UNK         0.0600 
    204 H204        1.4312  -28.4062  -47.6645 H         1 UNK         0.0600 
    205 H205       -2.6817  -27.3264  -47.0760 H         1 UNK         0.3000 
    206 H206       -4.2554  -27.3442  -48.6029 H         1 UNK         0.0600 
    207 H207       -4.4873  -29.7915  -48.1108 H         1 UNK         0.0600 
    208 H208       -4.9285  -29.3971  -49.7636 H         1 UNK         0.0600 
    209 H209       -3.3803  -30.1589  -49.4337 H         1 UNK         0.0600 
    210 H210       -1.8121  -26.1051  -49.1686 H         1 UNK         0.3000 
    211 H211       -1.5428  -26.2240  -52.1430 H         1 UNK         0.0600 
    212 H212        0.2782  -25.0073  -49.9840 H         1 UNK         0.0600 
    213 H213        0.5930  -25.0001  -51.7141 H         1 UNK         0.0600 
    214 H214        0.5789  -26.5191  -50.8334 H         1 UNK         0.0600 
    215 H215       -1.1965  -23.9862  -53.1057 H         1 UNK         0.3000 
    216 H216       -2.4231  -21.7211  -51.7477 H         1 UNK         0.0600 
    217 H217       -4.0701  -21.3601  -53.6058 H         1 UNK         0.0600 
    218 H218       -4.4245  -22.8571  -52.7488 H         1 UNK         0.0600 
    219 H219       -3.6275  -22.9045  -54.3192 H         1 UNK         0.0600 
    220 H220       -1.9464  -19.7566  -52.8685 H         1 UNK         0.3000 
    221 H221        0.3238  -19.8155  -54.7629 H         1 UNK         0.0600 
    222 H222       -1.1355  -17.4553  -53.4450 H         1 UNK         0.0600 
    223 H223        0.3151  -18.2162  -52.7990 H         1 UNK         0.0600 
    224 H224        0.3751  -17.3851  -54.3389 H         1 UNK         0.0600 
    225 H225        0.0187  -18.0164  -56.5299 H         1 UNK         0.3000 
    226 H226       -1.8597  -18.8605  -58.4244 H         1 UNK         0.0600 
    227 H227        0.2971  -17.7726  -58.9796 H         1 UNK         0.0600 
    228 H228       -1.0249  -16.8890  -59.7227 H         1 UNK         0.0600 
    229 H229       -0.2549  -16.2521  -58.2746 H         1 UNK         0.0600 
    230 H230       -2.3550  -16.6128  -55.8545 H         1 UNK         0.3000 
    231 H231       -4.6248  -15.1724  -56.9103 H         1 UNK         0.0600 
    232 H232       -4.8673  -14.4720  -54.5208 H         1 UNK         0.0600 
    233 H233       -3.2071  -14.2918  -55.0614 H         1 UNK         0.0600 
    234 H234       -3.6587  -15.6541  -54.0362 H         1 UNK         0.0600 
    235 H235       -4.2588  -18.4278  -55.8734 H         1 UNK         0.3000 
    236 H236       -5.5716  -20.1273  -55.4356 H         1 UNK         0.0600 
    237 H237       -7.9635  -18.4928  -56.4292 H         1 UNK         0.0600 
    238 H238       -6.8679  -19.4129  -57.4601 H         1 UNK         0.0600 
    239 H239       -7.8695  -20.2402  -56.2787 H         1 UNK         0.0600 
    240 H240       -4.8839  -18.3673  -53.3915 H         1 UNK         0.3000 
    241 H241       -7.0593  -17.9451  -51.5594 H         1 UNK         0.0600 
    242 H242       -5.8955  -21.6139  -50.6122 H         1 UNK         0.3800 
    243 H243       -5.7783  -20.9377  -52.2162 H         1 UNK         0.3800 
    244 H244       -5.2147  -17.0762  -50.0480 H         1 UNK         0.0800 
    245 H245       -5.3581  -16.2969  -51.5882 H         1 UNK         0.0800 
    246 H246       -3.1715  -19.0146  -49.6027 H         1 UNK         0.0800 
    247 H247       -2.9365  -17.3430  -49.1457 H         1 UNK         0.0800 
@<TRIPOS>BOND
     1    1    2 1    
     2    1  127 1    
     3    1  128 1    
     4    1  129 1    
     5    2    3 2    
     6    2    4 am   BACKBONE|DICT|INTERRES
     7    4    5 1    
     8    4  130 1    
     9    5    6 1    
    10    5   65 1    
    11    5  131 1    
    12    6    7 1    
    13    6  132 1    
    14    6  133 1    
    15    7    8 1    
    16    8    9 1    
    17    8  134 1    
    18    8  135 1    
    19    9   10 ar   
    20    9   14 ar   
    21   10   11 ar   
    22   10  136 1    
    23   11   12 ar   
    24   11  126 1    
    25   12   13 ar   
    26   12  137 1    
    27   13   14 ar   
    28   13   15 1    
    29   14  138 1    
    30   15   16 1    
    31   15  139 1    
    32   15  140 1    
    33   16   17 1    
    34   17   18 1    
    35   17  141 1    
    36   17  142 1    
    37   18   19 1    
    38   18   67 1    
    39   18  143 1    
    40   19   20 am   BACKBONE|DICT|INTERRES
    41   19  144 1    
    42   20   21 2    
    43   20   22 1    
    44   22   23 1    
    45   22   24 1    
    46   22  145 1    
    47   23  146 1    
    48   23  147 1    
    49   23  148 1    
    50   24   25 am   BACKBONE|DICT|INTERRES
    51   24  149 1    
    52   25   26 2    
    53   25   27 1    
    54   27   28 1    
    55   27   29 1    
    56   27  150 1    
    57   28  151 1    
    58   28  152 1    
    59   28  153 1    
    60   29   30 am   BACKBONE|DICT|INTERRES
    61   29  154 1    
    62   30   31 2    
    63   30   32 1    
    64   32   33 1    
    65   32   34 1    
    66   32  155 1    
    67   33  156 1    
    68   33  157 1    
    69   33  158 1    
    70   34   35 am   BACKBONE|DICT|INTERRES
    71   34  159 1    
    72   35   36 2    
    73   35   37 1    
    74   37   38 1    
    75   37   39 1    
    76   37  160 1    
    77   38  161 1    
    78   38  162 1    
    79   38  163 1    
    80   39   40 am   BACKBONE|DICT|INTERRES
    81   39  164 1    
    82   40   41 2    
    83   40   42 1    
    84   42   43 1    
    85   42   44 1    
    86   42  165 1    
    87   43  166 1    
    88   43  167 1    
    89   43  168 1    
    90   44   45 am   BACKBONE|DICT|INTERRES
    91   44  169 1    
    92   45   46 2    
    93   45   47 1    
    94   47   48 1    
    95   47   49 1    
    96   47  170 1    
    97   48  171 1    
    98   48  172 1    
    99   48  173 1    
   100   49   50 am   BACKBONE|DICT|INTERRES
   101   49  174 1    
   102   50   51 2    
   103   50   52 1    
   104   52   53 1    
   105   52   54 1    
   106   52  175 1    
   107   53  176 1    
   108   53  177 1    
   109   53  178 1    
   110   54   55 am   BACKBONE|DICT|INTERRES
   111   54  179 1    
   112   55   56 2    
   113   55   57 1    
   114   57   58 1    
   115   57   59 1    
   116   57  180 1    
   117   58  181 1    
   118   58  182 1    
   119   58  183 1    
   120   59   60 am   BACKBONE|DICT|INTERRES
   121   59  184 1    
   122   60   61 2    
   123   60   62 1    
   124   62   63 1    
   125   62   64 1    
   126   62  185 1    
   127   63  186 1    
   128   63  187 1    
   129   63  188 1    
   130   64   65 am   BACKBONE|DICT|INTERRES
   131   64  189 1    
   132   65   66 2    
   133   67   68 2    
   134   67   69 am   BACKBONE|DICT|INTERRES
   135   69   70 1    
   136   69  190 1    
   137   70   71 1    
   138   70   72 1    
   139   70  191 1    
   140   71  192 1    
   141   71  193 1    
   142   71  194 1    
   143   72   73 2    
   144   72   74 am   BACKBONE|DICT|INTERRES
   145   74   75 1    
   146   74  195 1    
   147   75   76 1    
   148   75   77 1    
   149   75  196 1    
   150   76  197 1    
   151   76  198 1    
   152   76  199 1    
   153   77   78 2    
   154   77   79 am   BACKBONE|DICT|INTERRES
   155   79   80 1    
   156   79  200 1    
   157   80   81 1    
   158   80   82 1    
   159   80  201 1    
   160   81  202 1    
   161   81  203 1    
   162   81  204 1    
   163   82   83 2    
   164   82   84 am   BACKBONE|DICT|INTERRES
   165   84   85 1    
   166   84  205 1    
   167   85   86 1    
   168   85   87 1    
   169   85  206 1    
   170   86  207 1    
   171   86  208 1    
   172   86  209 1    
   173   87   88 2    
   174   87   89 am   BACKBONE|DICT|INTERRES
   175   89   90 1    
   176   89  210 1    
   177   90   91 1    
   178   90   92 1    
   179   90  211 1    
   180   91  212 1    
   181   91  213 1    
   182   91  214 1    
   183   92   93 2    
   184   92   94 am   BACKBONE|DICT|INTERRES
   185   94   95 1    
   186   94  215 1    
   187   95   96 1    
   188   95   97 1    
   189   95  216 1    
   190   96  217 1    
   191   96  218 1    
   192   96  219 1    
   193   97   98 2    
   194   97   99 am   BACKBONE|DICT|INTERRES
   195   99  100 1    
   196   99  220 1    
   197  100  101 1    
   198  100  102 1    
   199  100  221 1    
   200  101  222 1    
   201  101  223 1    
   202  101  224 1    
   203  102  103 2    
   204  102  104 am   BACKBONE|DICT|INTERRES
   205  104  105 1    
   206  104  225 1    
   207  105  106 1    
   208  105  107 1    
   209  105  226 1    
   210  106  227 1    
   211  106  228 1    
   212  106  229 1    
   213  107  108 2    
   214  107  109 am   BACKBONE|DICT|INTERRES
   215  109  110 1    
   216  109  230 1    
   217  110  111 1    
   218  110  112 1    
   219  110  231 1    
   220  111  232 1    
   221  111  233 1    
   222  111  234 1    
   223  112  113 2    
   224  112  114 am   BACKBONE|DICT|INTERRES
   225  114  115 1    
   226  114  235 1    
   227  115  116 1    
   228  115  117 1    
   229  115  236 1    
   230  116  237 1    
   231  116  238 1    
   232  116  239 1    
   233  117  118 2    
   234  117  119 am   BACKBONE|DICT|INTERRES
   235  119  120 1    
   236  119  240 1    
   237  120  121 1    
   238  120  124 1    
   239  120  241 1    
   240  121  122 am   BACKBONE|DICT|INTERRES
   241  121  123 2    
   242  122  242 1    
   243  122  243 1    
   244  124  125 1    
   245  124  244 1    
   246  124  245 1    
   247  125  126 1    
   248  126  246 1    
   249  126  247 1    
@<TRIPOS>SUBSTRUCTURE
     1 UNK         1 GROUP             0       ****    0 ROOT    
