@<TRIPOS>MOLECULE
3R540
247   249    1
SMALL
USER_CHARGES


@<TRIPOS>ATOM
      1 CA          5.1008  -10.3761  -52.5199 C.3       0 UNK        -0.1800 
      2 C           5.6850  -11.1382  -51.3383 C.2       0 UNK         0.5000 
      3 O           6.9066  -11.2437  -51.2210 O.2       0 UNK        -0.5000 
      4 N           4.8188  -11.6752  -50.4713 N.am      1 UNK        -0.5000 
      5 CA          5.1863  -12.3794  -49.2396 C.3       1 UNK         0.1400 
      6 C6          4.0945  -13.4089  -48.8371 C.3       23 UNK        -0.0398 
      7 S7          2.5045  -12.6812  -48.2958 S.3       23 UNK        -0.2404 
      8 C8          1.7888  -14.0506  -47.3300 C.3       23 UNK        -0.0205 
      9 C9          1.3311  -15.1790  -48.2401 C.ar      23 UNK        -0.0193 
     10 C10         0.0399  -15.1691  -48.7792 C.ar      23 UNK        -0.1150 
     11 C11        -0.3707  -16.1842  -49.6484 C.ar      23 UNK        -0.0193 
     12 C12         0.5254  -17.1978  -49.9911 C.ar      23 UNK        -0.1150 
     13 C13         1.8065  -17.2350  -49.4368 C.ar      23 UNK        -0.0193 
     14 C14         2.2030  -16.2258  -48.5562 C.ar      23 UNK        -0.1150 
     15 C15         2.7544  -18.3701  -49.7920 C.3       23 UNK        -0.0205 
     16 S16         2.6392  -19.7456  -48.6058 S.3       23 UNK        -0.2404 
     17 C17         0.8852  -20.2138  -48.7856 C.3       23 UNK        -0.0398 
     18 CA          0.5606  -21.5691  -48.1277 C.3       11 UNK         0.1400 
     19 N           0.7129  -21.5423  -46.6711 N.am      11 UNK        -0.5000 
     20 C           0.6612  -22.6266  -45.8859 C.2       10 UNK         0.5000 
     21 O           0.5279  -23.7751  -46.3116 O.2       10 UNK        -0.5000 
     22 CA          0.7162  -22.3832  -44.3674 C.3       10 UNK         0.1400 
     23 CB          2.1570  -22.1246  -43.9021 C.3       10 UNK        -0.1800 
     24 N          -0.1505  -21.2812  -43.9452 N.am      10 UNK        -0.5000 
     25 C          -1.4865  -21.2888  -44.0608 C.2       9 UNK         0.5000 
     26 O          -2.1271  -22.2438  -44.4984 O.2       9 UNK        -0.5000 
     27 CA         -2.2377  -20.0097  -43.6525 C.3       9 UNK         0.1400 
     28 CB         -2.4224  -19.9543  -42.1289 C.3       9 UNK        -0.1800 
     29 N          -1.5868  -18.7860  -44.1210 N.am      9 UNK        -0.5000 
     30 C          -1.3971  -18.4682  -45.4102 C.2       8 UNK         0.5000 
     31 O          -1.7752  -19.1682  -46.3470 O.2       8 UNK        -0.5000 
     32 CA         -0.5988  -17.1852  -45.7043 C.3       8 UNK         0.1400 
     33 CB         -1.4772  -15.9363  -45.5406 C.3       8 UNK        -0.1800 
     34 N           0.5956  -17.0606  -44.8690 N.am      8 UNK        -0.5000 
     35 C           1.5976  -17.9519  -44.8514 C.2       7 UNK         0.5000 
     36 O           1.6329  -18.9647  -45.5484 O.2       7 UNK        -0.5000 
     37 CA          2.7128  -17.7049  -43.8254 C.3       7 UNK         0.1400 
     38 CB          3.6525  -16.5797  -44.2881 C.3       7 UNK        -0.1800 
     39 N           2.1618  -17.3966  -42.5053 N.am      7 UNK        -0.5000 
     40 C           1.4947  -18.2789  -41.7454 C.2       6 UNK         0.5000 
     41 O           1.3162  -19.4557  -42.0586 O.2       6 UNK        -0.5000 
     42 CA          0.8924  -17.7482  -40.4320 C.3       6 UNK         0.1400 
     43 CB          1.9438  -17.7556  -39.3124 C.3       6 UNK        -0.1800 
     44 N           0.3382  -16.4009  -40.5675 N.am      6 UNK        -0.5000 
     45 C          -0.7189  -16.0849  -41.3296 C.2       5 UNK         0.5000 
     46 O          -1.3641  -16.9047  -41.9794 O.2       5 UNK        -0.5000 
     47 CA         -1.0846  -14.5930  -41.4195 C.3       5 UNK         0.1400 
     48 CB         -2.0406  -14.2000  -40.2836 C.3       5 UNK        -0.1800 
     49 N           0.0909  -13.7200  -41.3931 N.am      5 UNK        -0.5000 
     50 C           1.0385  -13.7040  -42.3384 C.2       4 UNK         0.5000 
     51 O           1.0262  -14.4291  -43.3378 O.2       4 UNK        -0.5000 
     52 CA          2.2252  -12.7588  -42.0984 C.3       4 UNK         0.1400 
     53 CB          3.4544  -13.5466  -41.6191 C.3       4 UNK        -0.1800 
     54 N           2.5626  -12.0489  -43.3260 N.am      4 UNK        -0.5000 
     55 C           1.8844  -11.0013  -43.8117 C.2       3 UNK         0.5000 
     56 O           0.9373  -10.4762  -43.2236 O.2       3 UNK        -0.5000 
     57 CA          2.3209  -10.4686  -45.1925 C.3       3 UNK         0.1400 
     58 CB          2.1621   -8.9394  -45.3233 C.3       3 UNK        -0.1800 
     59 N           3.6638  -10.9039  -45.5987 N.am      3 UNK        -0.5000 
     60 C           4.8468  -10.5550  -45.0674 C.2       2 UNK         0.5000 
     61 O           4.9694   -9.7847  -44.1148 O.2       2 UNK        -0.5000 
     62 CA          6.1134  -11.1952  -45.6822 C.3       2 UNK         0.1400 
     63 CB          6.7741  -12.1460  -44.6701 C.3       2 UNK        -0.1800 
     64 N           5.8708  -11.9393  -46.9238 N.am      2 UNK        -0.5000 
     65 C           5.5351  -11.3906  -48.0999 C.2       1 UNK         0.5000 
     66 O           5.4552  -10.1715  -48.2752 O.2       1 UNK        -0.5000 
     67 C          -0.8426  -22.0501  -48.5441 C.2       11 UNK         0.5000 
     68 O          -0.9414  -22.9104  -49.4171 O.2       11 UNK        -0.5000 
     69 N          -1.8934  -21.5396  -47.8847 N.am      12 UNK        -0.5000 
     70 CA         -3.2796  -21.9533  -48.0968 C.3       12 UNK         0.1400 
     71 CB         -4.2298  -21.0732  -47.2730 C.3       12 UNK        -0.1800 
     72 C          -3.5084  -23.4414  -47.7859 C.2       12 UNK         0.5000 
     73 O          -4.1688  -24.1189  -48.5713 O.2       12 UNK        -0.5000 
     74 N          -2.9338  -23.9365  -46.6807 N.am      13 UNK        -0.5000 
     75 CA         -2.9620  -25.3474  -46.2919 C.3       13 UNK         0.1400 
     76 CB         -2.3484  -25.5178  -44.8945 C.3       13 UNK        -0.1800 
     77 C          -2.2624  -26.2582  -47.3169 C.2       13 UNK         0.5000 
     78 O          -2.8247  -27.2885  -47.6909 O.2       13 UNK        -0.5000 
     79 N          -1.0821  -25.8374  -47.7965 N.am      14 UNK        -0.5000 
     80 CA         -0.3354  -26.5050  -48.8678 C.3       14 UNK         0.1400 
     81 CB          1.0476  -25.8529  -49.0136 C.3       14 UNK        -0.1800 
     82 C          -1.0894  -26.5070  -50.2137 C.2       14 UNK         0.5000 
     83 O          -1.0168  -27.4885  -50.9530 O.2       14 UNK        -0.5000 
     84 N          -1.8449  -25.4335  -50.4759 N.am      15 UNK        -0.5000 
     85 CA         -2.7490  -25.2633  -51.6132 C.3       15 UNK         0.1400 
     86 CB         -2.8675  -23.7614  -51.9297 C.3       15 UNK        -0.1800 
     87 C          -4.1360  -25.9128  -51.4024 C.2       15 UNK         0.5000 
     88 O          -5.0747  -25.5494  -52.1093 O.2       15 UNK        -0.5000 
     89 N          -4.2571  -26.8510  -50.4499 N.am      16 UNK        -0.5000 
     90 CA         -5.4447  -27.6574  -50.1437 C.3       16 UNK         0.1400 
     91 CB         -5.7659  -28.6134  -51.3122 C.3       16 UNK        -0.1800 
     92 C          -6.6547  -26.8053  -49.7086 C.2       16 UNK         0.5000 
     93 O          -7.7495  -26.9509  -50.2550 O.2       16 UNK        -0.5000 
     94 N          -6.4113  -25.9219  -48.7310 N.am      17 UNK        -0.5000 
     95 CA         -7.3272  -24.9118  -48.1899 C.3       17 UNK         0.1400 
     96 CB         -8.5825  -25.5528  -47.5605 C.3       17 UNK        -0.1800 
     97 C          -7.6407  -23.8144  -49.2268 C.2       17 UNK         0.5000 
     98 O          -8.7965  -23.4186  -49.3873 O.2       17 UNK        -0.5000 
     99 N          -6.5783  -23.3487  -49.9003 N.am      18 UNK        -0.5000 
    100 CA        -6.5521  -22.3193  -50.9418 C.3       18 UNK         0.1400 
    101 CB        -6.8385  -20.9289  -50.3362 C.3       18 UNK        -0.1800 
    102 C         -7.4619  -22.6569  -52.1404 C.2       18 UNK         0.5000 
    103 O         -8.2951  -21.8392  -52.5383 O.2       18 UNK        -0.5000 
    104 N         -7.2951  -23.8676  -52.6904 N.am      19 UNK        -0.5000 
    105 CA        -7.9795  -24.3300  -53.8950 C.3       19 UNK         0.1400 
    106 CB        -7.7252  -25.8332  -54.0881 C.3       19 UNK        -0.1800 
    107 C         -7.5054  -23.5186  -55.1134 C.2       19 UNK         0.5000 
    108 O         -6.3085  -23.5024  -55.4067 O.2       19 UNK        -0.5000 
    109 N         -8.4477  -22.8193  -55.7578 N.am      20 UNK        -0.5000 
    110 CA        -8.2864  -21.8464  -56.8472 C.3       20 UNK         0.1400 
    111 CB        -7.5877  -22.4598  -58.0765 C.3       20 UNK        -0.1800 
    112 C         -7.6195  -20.5212  -56.4206 C.2       20 UNK         0.5000 
    113 O         -8.0850  -19.4613  -56.8424 O.2       20 UNK        -0.5000 
    114 N         -6.5739  -20.5818  -55.5886 N.am      21 UNK        -0.5000 
    115 CA        -5.8563  -19.4355  -55.0403 C.3       21 UNK         0.1400 
    116 CB        -4.8986  -18.8591  -56.1008 C.3       21 UNK        -0.1800 
    117 C         -5.0822  -19.8529  -53.7808 C.2       21 UNK         0.5000 
    118 O         -4.8008  -21.0377  -53.5921 O.2       21 UNK        -0.5000 
    119 N         -4.7303  -18.8580  -52.9576 N.am      22 UNK        -0.5000 
    120 CA        -3.8455  -18.9929  -51.7863 C.3       22 UNK         0.1400 
    121 C         -2.3641  -19.3020  -52.1722 C.2       22 UNK         0.5000 
    122 N         -1.8763  -18.8464  -53.3208 N.am      22 UNK        -0.7600 
    123 O         -1.6574  -19.9841  -51.4372 O.2       22 UNK        -0.5000 
    124 C124       -4.0196  -17.7515  -50.8580 C.3       23 UNK        -0.0398 
    125 S125       -2.7967  -17.5145  -49.5169 S.3       23 UNK        -0.2404 
    126 C126       -1.7689  -16.1937  -50.2421 C.3       23 UNK        -0.0205 
    127 H127        5.4419   -9.3410  -52.5038 H         1 UNK         0.0600 
    128 H128        4.0106  -10.3750  -52.5026 H         1 UNK         0.0600 
    129 H129        5.4254  -10.8290  -53.4567 H         1 UNK         0.0600 
    130 H130        3.8283  -11.5250  -50.6008 H         1 UNK         0.3000 
    131 H131        6.0974  -12.9474  -49.4400 H         1 UNK         0.0600 
    132 H132        3.8918  -14.0691  -49.6819 H         1 UNK         0.0800 
    133 H133        4.4709  -14.0616  -48.0486 H         1 UNK         0.0800 
    134 H134        0.9425  -13.6725  -46.7548 H         1 UNK         0.0800 
    135 H135        2.5110  -14.4149  -46.5979 H         1 UNK         0.0800 
    136 H136       -0.6405  -14.3680  -48.5272 H         1 UNK         0.1150 
    137 H137        0.2098  -17.9762  -50.6719 H         1 UNK         0.1150 
    138 H138        3.1947  -16.2509  -48.1278 H         1 UNK         0.1150 
    139 H139        2.5449  -18.7393  -50.7972 H         1 UNK         0.0800 
    140 H140        3.7816  -18.0030  -49.8102 H         1 UNK         0.0800 
    141 H141        0.6550  -20.2460  -49.8524 H         1 UNK         0.0800 
    142 H142        0.2614  -19.4294  -48.3531 H         1 UNK         0.0800 
    143 H143        1.2720  -22.3032  -48.5125 H         1 UNK         0.0600 
    144 H144        0.8685  -20.6308  -46.2482 H         1 UNK         0.3000 
    145 H145        0.3619  -23.2912  -43.8751 H         1 UNK         0.0600 
    146 H146        2.2106  -22.0422  -42.8165 H         1 UNK         0.0600 
    147 H147        2.8157  -22.9414  -44.1995 H         1 UNK         0.0600 
    148 H148        2.5607  -21.2053  -44.3268 H         1 UNK         0.0600 
    149 H149        0.3071  -20.4692  -43.5445 H         1 UNK         0.3000 
    150 H150       -3.2284  -20.0492  -44.1091 H         1 UNK         0.0600 
    151 H151       -2.9097  -20.8579  -41.7606 H         1 UNK         0.0600 
    152 H152       -3.0456  -19.1085  -41.8384 H         1 UNK         0.0600 
    153 H153       -1.4675  -19.8606  -41.6110 H         1 UNK         0.0600 
    154 H154       -1.2881  -18.1306  -43.4033 H         1 UNK         0.3000 
    155 H155       -0.2681  -17.2379  -46.7433 H         1 UNK         0.0600 
    156 H156       -1.8495  -15.8351  -44.5211 H         1 UNK         0.0600 
    157 H157       -2.3406  -15.9813  -46.2057 H         1 UNK         0.0600 
    158 H158       -0.9245  -15.0298  -45.7855 H         1 UNK         0.0600 
    159 H159        0.6513  -16.2488  -44.2632 H         1 UNK         0.3000 
    160 H160        3.3006  -18.6218  -43.7424 H         1 UNK         0.0600 
    161 H161        3.1316  -15.6282  -44.3915 H         1 UNK         0.0600 
    162 H162        4.0904  -16.8168  -45.2586 H         1 UNK         0.0600 
    163 H163        4.4748  -16.4395  -43.5866 H         1 UNK         0.0600 
    164 H164        2.2164  -16.4366  -42.2009 H         1 UNK         0.3000 
    165 H165        0.0809  -18.4194  -40.1430 H         1 UNK         0.0600 
    166 H166        1.5069  -17.4569  -38.3593 H         1 UNK         0.0600 
    167 H167        2.3626  -18.7538  -39.1778 H         1 UNK         0.0600 
    168 H168        2.7711  -17.0789  -39.5300 H         1 UNK         0.0600 
    169 H169        0.8058  -15.6617  -40.0645 H         1 UNK         0.3000 
    170 H170       -1.5993  -14.4354  -42.3697 H         1 UNK         0.0600 
    171 H171       -2.9349  -14.8247  -40.2934 H         1 UNK         0.0600 
    172 H172       -1.5728  -14.3117  -39.3047 H         1 UNK         0.0600 
    173 H173       -2.3680  -13.1651  -40.3840 H         1 UNK         0.0600 
    174 H174        0.1710  -13.0950  -40.6038 H         1 UNK         0.3000 
    175 H175        1.9601  -12.0310  -41.3283 H         1 UNK         0.0600 
    176 H176        3.7843  -14.2747  -42.3601 H         1 UNK         0.0600 
    177 H177        4.2917  -12.8793  -41.4133 H         1 UNK         0.0600 
    178 H178        3.2382  -14.0889  -40.6978 H         1 UNK         0.0600 
    179 H179        3.3000  -12.4424  -43.8893 H         1 UNK         0.3000 
    180 H180        1.6344  -10.9231  -45.9077 H         1 UNK         0.0600 
    181 H181        2.7456   -8.4036  -44.5744 H         1 UNK         0.0600 
    182 H182        1.1206   -8.6423  -45.1963 H         1 UNK         0.0600 
    183 H183        2.4784   -8.5936  -46.3075 H         1 UNK         0.0600 
    184 H184        3.6826  -11.5368  -46.3861 H         1 UNK         0.3000 
    185 H185        6.8124  -10.3850  -45.8996 H         1 UNK         0.0600 
    186 H186        7.0155  -11.6261  -43.7419 H         1 UNK         0.0600 
    187 H187        6.1212  -12.9822  -44.4164 H         1 UNK         0.0600 
    188 H188        7.7066  -12.5535  -45.0613 H         1 UNK         0.0600 
    189 H189        5.9406  -12.9439  -46.8526 H         1 UNK         0.3000 
    190 H190       -1.7434  -20.7929  -47.2089 H         1 UNK         0.3000 
    191 H191       -3.5098  -21.7958  -49.1522 H         1 UNK         0.0600 
    192 H192       -4.0025  -21.1229  -46.2084 H         1 UNK         0.0600 
    193 H193       -5.2664  -21.3872  -47.4006 H         1 UNK         0.0600 
    194 H194       -4.1637  -20.0295  -47.5815 H         1 UNK         0.0600 
    195 H195       -2.4506  -23.3011  -46.0505 H         1 UNK         0.3000 
    196 H196       -4.0087  -25.6537  -46.2387 H         1 UNK         0.0600 
    197 H197       -2.3674  -26.5630  -44.5835 H         1 UNK         0.0600 
    198 H198       -2.9031  -24.9469  -44.1497 H         1 UNK         0.0600 
    199 H199       -1.3110  -25.1842  -44.8649 H         1 UNK         0.0600 
    200 H200       -0.6725  -24.9899  -47.4151 H         1 UNK         0.3000 
    201 H201       -0.1894  -27.5455  -48.5710 H         1 UNK         0.0600 
    202 H202        1.6087  -25.9065  -48.0804 H         1 UNK         0.0600 
    203 H203        0.9714  -24.8030  -49.2966 H         1 UNK         0.0600 
    204 H204        1.6384  -26.3573  -49.7791 H         1 UNK         0.0600 
    205 H205       -1.7858  -24.6441  -49.8394 H         1 UNK         0.3000 
    206 H206       -2.3069  -25.7501  -52.4845 H         1 UNK         0.0600 
    207 H207       -1.8901  -23.3211  -52.1277 H         1 UNK         0.0600 
    208 H208       -3.4840  -23.5836  -52.8120 H         1 UNK         0.0600 
    209 H209       -3.3134  -23.2131  -51.1010 H         1 UNK         0.0600 
    210 H210       -3.4491  -27.0382  -49.8703 H         1 UNK         0.3000 
    211 H211       -5.1804  -28.2726  -49.2823 H         1 UNK         0.0600 
    212 H212       -6.0742  -28.0727  -52.2076 H         1 UNK         0.0600 
    213 H213       -6.5756  -29.2943  -51.0475 H         1 UNK         0.0600 
    214 H214       -4.9007  -29.2238  -51.5707 H         1 UNK         0.0600 
    215 H215       -5.4477  -25.8163  -48.4362 H         1 UNK         0.3000 
    216 H216       -6.7832  -24.4159  -47.3845 H         1 UNK         0.0600 
    217 H217       -9.1724  -24.8058  -47.0282 H         1 UNK         0.0600 
    218 H218       -8.3122  -26.3254  -46.8408 H         1 UNK         0.0600 
    219 H219       -9.2331  -26.0035  -48.3100 H         1 UNK         0.0600 
    220 H220       -5.6775  -23.7545  -49.6616 H         1 UNK         0.3000 
    221 H221       -5.5338  -22.3030  -51.3300 H         1 UNK         0.0600 
    222 H222       -7.8359  -20.8740  -49.8993 H         1 UNK         0.0600 
    223 H223       -6.1167  -20.6799  -49.5597 H         1 UNK         0.0600 
    224 H224       -6.7732  -20.1498  -51.0962 H         1 UNK         0.0600 
    225 H225       -6.5494  -24.4700  -52.3466 H         1 UNK         0.3000 
    226 H226       -9.0522  -24.1835  -53.7528 H         1 UNK         0.0600 
    227 H227       -8.0435  -26.4025  -53.2143 H         1 UNK         0.0600 
    228 H228       -8.2778  -26.2140  -54.9476 H         1 UNK         0.0600 
    229 H229       -6.6688  -26.0456  -54.2571 H         1 UNK         0.0600 
    230 H230       -9.3897  -22.8785  -55.3959 H         1 UNK         0.3000 
    231 H231       -9.3026  -21.5927  -57.1532 H         1 UNK         0.0600 
    232 H232       -8.0822  -23.3773  -58.3953 H         1 UNK         0.0600 
    233 H233       -6.5404  -22.6912  -57.8818 H         1 UNK         0.0600 
    234 H234       -7.6123  -21.7674  -58.9188 H         1 UNK         0.0600 
    235 H235       -6.2446  -21.4907  -55.2717 H         1 UNK         0.3000 
    236 H236       -6.5825  -18.6725  -54.7518 H         1 UNK         0.0600 
    237 H237       -4.3507  -17.9996  -55.7137 H         1 UNK         0.0600 
    238 H238       -4.1652  -19.6006  -56.4204 H         1 UNK         0.0600 
    239 H239       -5.4382  -18.5211  -56.9855 H         1 UNK         0.0600 
    240 H240       -5.0082  -17.9167  -53.1939 H         1 UNK         0.3000 
    241 H241       -4.1838  -19.8628  -51.2202 H         1 UNK         0.0600 
    242 H242       -0.9256  -19.0670  -53.5704 H         1 UNK         0.3800 
    243 H243       -2.4425  -18.2991  -53.9473 H         1 UNK         0.3800 
    244 H244       -5.0044  -17.7987  -50.3913 H         1 UNK         0.0800 
    245 H245       -4.0349  -16.8413  -51.4591 H         1 UNK         0.0800 
    246 H246       -2.2624  -15.2318  -50.0954 H         1 UNK         0.0800 
    247 H247       -1.6838  -16.3379  -51.3203 H         1 UNK         0.0800 
@<TRIPOS>BOND
     1    1    2 1    
     2    1  127 1    
     3    1  128 1    
     4    1  129 1    
     5    2    3 2    
     6    2    4 am   BACKBONE|DICT|INTERRES
     7    4    5 1    
     8    4  130 1    
     9    5    6 1    
    10    5   65 1    
    11    5  131 1    
    12    6    7 1    
    13    6  132 1    
    14    6  133 1    
    15    7    8 1    
    16    8    9 1    
    17    8  134 1    
    18    8  135 1    
    19    9   10 ar   
    20    9   14 ar   
    21   10   11 ar   
    22   10  136 1    
    23   11   12 ar   
    24   11  126 1    
    25   12   13 ar   
    26   12  137 1    
    27   13   14 ar   
    28   13   15 1    
    29   14  138 1    
    30   15   16 1    
    31   15  139 1    
    32   15  140 1    
    33   16   17 1    
    34   17   18 1    
    35   17  141 1    
    36   17  142 1    
    37   18   19 1    
    38   18   67 1    
    39   18  143 1    
    40   19   20 am   BACKBONE|DICT|INTERRES
    41   19  144 1    
    42   20   21 2    
    43   20   22 1    
    44   22   23 1    
    45   22   24 1    
    46   22  145 1    
    47   23  146 1    
    48   23  147 1    
    49   23  148 1    
    50   24   25 am   BACKBONE|DICT|INTERRES
    51   24  149 1    
    52   25   26 2    
    53   25   27 1    
    54   27   28 1    
    55   27   29 1    
    56   27  150 1    
    57   28  151 1    
    58   28  152 1    
    59   28  153 1    
    60   29   30 am   BACKBONE|DICT|INTERRES
    61   29  154 1    
    62   30   31 2    
    63   30   32 1    
    64   32   33 1    
    65   32   34 1    
    66   32  155 1    
    67   33  156 1    
    68   33  157 1    
    69   33  158 1    
    70   34   35 am   BACKBONE|DICT|INTERRES
    71   34  159 1    
    72   35   36 2    
    73   35   37 1    
    74   37   38 1    
    75   37   39 1    
    76   37  160 1    
    77   38  161 1    
    78   38  162 1    
    79   38  163 1    
    80   39   40 am   BACKBONE|DICT|INTERRES
    81   39  164 1    
    82   40   41 2    
    83   40   42 1    
    84   42   43 1    
    85   42   44 1    
    86   42  165 1    
    87   43  166 1    
    88   43  167 1    
    89   43  168 1    
    90   44   45 am   BACKBONE|DICT|INTERRES
    91   44  169 1    
    92   45   46 2    
    93   45   47 1    
    94   47   48 1    
    95   47   49 1    
    96   47  170 1    
    97   48  171 1    
    98   48  172 1    
    99   48  173 1    
   100   49   50 am   BACKBONE|DICT|INTERRES
   101   49  174 1    
   102   50   51 2    
   103   50   52 1    
   104   52   53 1    
   105   52   54 1    
   106   52  175 1    
   107   53  176 1    
   108   53  177 1    
   109   53  178 1    
   110   54   55 am   BACKBONE|DICT|INTERRES
   111   54  179 1    
   112   55   56 2    
   113   55   57 1    
   114   57   58 1    
   115   57   59 1    
   116   57  180 1    
   117   58  181 1    
   118   58  182 1    
   119   58  183 1    
   120   59   60 am   BACKBONE|DICT|INTERRES
   121   59  184 1    
   122   60   61 2    
   123   60   62 1    
   124   62   63 1    
   125   62   64 1    
   126   62  185 1    
   127   63  186 1    
   128   63  187 1    
   129   63  188 1    
   130   64   65 am   BACKBONE|DICT|INTERRES
   131   64  189 1    
   132   65   66 2    
   133   67   68 2    
   134   67   69 am   BACKBONE|DICT|INTERRES
   135   69   70 1    
   136   69  190 1    
   137   70   71 1    
   138   70   72 1    
   139   70  191 1    
   140   71  192 1    
   141   71  193 1    
   142   71  194 1    
   143   72   73 2    
   144   72   74 am   BACKBONE|DICT|INTERRES
   145   74   75 1    
   146   74  195 1    
   147   75   76 1    
   148   75   77 1    
   149   75  196 1    
   150   76  197 1    
   151   76  198 1    
   152   76  199 1    
   153   77   78 2    
   154   77   79 am   BACKBONE|DICT|INTERRES
   155   79   80 1    
   156   79  200 1    
   157   80   81 1    
   158   80   82 1    
   159   80  201 1    
   160   81  202 1    
   161   81  203 1    
   162   81  204 1    
   163   82   83 2    
   164   82   84 am   BACKBONE|DICT|INTERRES
   165   84   85 1    
   166   84  205 1    
   167   85   86 1    
   168   85   87 1    
   169   85  206 1    
   170   86  207 1    
   171   86  208 1    
   172   86  209 1    
   173   87   88 2    
   174   87   89 am   BACKBONE|DICT|INTERRES
   175   89   90 1    
   176   89  210 1    
   177   90   91 1    
   178   90   92 1    
   179   90  211 1    
   180   91  212 1    
   181   91  213 1    
   182   91  214 1    
   183   92   93 2    
   184   92   94 am   BACKBONE|DICT|INTERRES
   185   94   95 1    
   186   94  215 1    
   187   95   96 1    
   188   95   97 1    
   189   95  216 1    
   190   96  217 1    
   191   96  218 1    
   192   96  219 1    
   193   97   98 2    
   194   97   99 am   BACKBONE|DICT|INTERRES
   195   99  100 1    
   196   99  220 1    
   197  100  101 1    
   198  100  102 1    
   199  100  221 1    
   200  101  222 1    
   201  101  223 1    
   202  101  224 1    
   203  102  103 2    
   204  102  104 am   BACKBONE|DICT|INTERRES
   205  104  105 1    
   206  104  225 1    
   207  105  106 1    
   208  105  107 1    
   209  105  226 1    
   210  106  227 1    
   211  106  228 1    
   212  106  229 1    
   213  107  108 2    
   214  107  109 am   BACKBONE|DICT|INTERRES
   215  109  110 1    
   216  109  230 1    
   217  110  111 1    
   218  110  112 1    
   219  110  231 1    
   220  111  232 1    
   221  111  233 1    
   222  111  234 1    
   223  112  113 2    
   224  112  114 am   BACKBONE|DICT|INTERRES
   225  114  115 1    
   226  114  235 1    
   227  115  116 1    
   228  115  117 1    
   229  115  236 1    
   230  116  237 1    
   231  116  238 1    
   232  116  239 1    
   233  117  118 2    
   234  117  119 am   BACKBONE|DICT|INTERRES
   235  119  120 1    
   236  119  240 1    
   237  120  121 1    
   238  120  124 1    
   239  120  241 1    
   240  121  122 am   BACKBONE|DICT|INTERRES
   241  121  123 2    
   242  122  242 1    
   243  122  243 1    
   244  124  125 1    
   245  124  244 1    
   246  124  245 1    
   247  125  126 1    
   248  126  246 1    
   249  126  247 1    
@<TRIPOS>SUBSTRUCTURE
     1 UNK         1 GROUP             0       ****    0 ROOT    
