@<TRIPOS>MOLECULE
3R540
247   249    1
SMALL
USER_CHARGES


@<TRIPOS>ATOM
      1 CA         -3.9872  -11.5092  -44.9631 C.3       0 UNK        -0.1800 
      2 C          -3.0039  -10.7595  -45.8512 C.2       0 UNK         0.5000 
      3 O          -2.8019   -9.5596  -45.6625 O.2       0 UNK        -0.5000 
      4 N          -2.3992  -11.4595  -46.8168 N.am      1 UNK        -0.5000 
      5 CA         -1.3805  -10.9208  -47.7224 C.3       1 UNK         0.1400 
      6 C6         -1.3869  -11.6280  -49.1010 C.3       23 UNK        -0.0398 
      7 S7         -2.9105  -11.2762  -50.0436 S.3       23 UNK        -0.2404 
      8 C8         -3.0769  -12.7870  -51.0616 C.3       23 UNK        -0.0205 
      9 C9         -3.6284  -14.0301  -50.3568 C.ar      23 UNK        -0.0193 
     10 C10        -3.9136  -15.1592  -51.1313 C.ar      23 UNK        -0.1150 
     11 C11        -4.4238  -16.3235  -50.5478 C.ar      23 UNK        -0.0193 
     12 C12        -4.6324  -16.3638  -49.1664 C.ar      23 UNK        -0.1150 
     13 C13        -4.3309  -15.2544  -48.3724 C.ar      23 UNK        -0.0193 
     14 C14        -3.8543  -14.0896  -48.9764 C.ar      23 UNK        -0.1150 
     15 C15        -4.5053  -15.2958  -46.8619 C.3       23 UNK        -0.0205 
     16 S16        -2.8867  -15.3543  -46.0212 S.3       23 UNK        -0.2404 
     17 C17        -2.8671  -17.0527  -45.3614 C.3       23 UNK        -0.0398 
     18 CA         -2.6642  -18.1336  -46.4612 C.3       11 UNK         0.1400 
     19 N          -1.3336  -18.7477  -46.4216 N.am      11 UNK        -0.5000 
     20 C          -0.7360  -19.3163  -47.4794 C.2       10 UNK         0.5000 
     21 O          -1.1715  -19.2448  -48.6256 O.2       10 UNK        -0.5000 
     22 CA          0.5525  -20.1238  -47.2281 C.3       10 UNK         0.1400 
     23 CB          1.8042  -19.2795  -47.4933 C.3       10 UNK        -0.1800 
     24 N           0.6276  -20.6686  -45.8747 N.am      10 UNK        -0.5000 
     25 C          -0.0767  -21.7227  -45.4429 C.2       9 UNK         0.5000 
     26 O          -0.7995  -22.4030  -46.1675 O.2       9 UNK        -0.5000 
     27 CA          0.0278  -22.0568  -43.9426 C.3       9 UNK         0.1400 
     28 CB          1.0849  -23.1457  -43.7081 C.3       9 UNK        -0.1800 
     29 N           0.3457  -20.8953  -43.1067 N.am      9 UNK        -0.5000 
     30 C          -0.4287  -19.8153  -42.9468 C.2       8 UNK         0.5000 
     31 O          -1.5165  -19.6715  -43.5039 O.2       8 UNK        -0.5000 
     32 CA          0.1224  -18.6788  -42.0722 C.3       8 UNK         0.1400 
     33 CB          0.0413  -19.0189  -40.5729 C.3       8 UNK        -0.1800 
     34 N           1.4645  -18.2401  -42.4655 N.am      8 UNK        -0.5000 
     35 C           2.6437  -18.8680  -42.3532 C.2       7 UNK         0.5000 
     36 O           2.7796  -20.0063  -41.9031 O.2       7 UNK        -0.5000 
     37 CA          3.8819  -18.0903  -42.8414 C.3       7 UNK         0.1400 
     38 CB          4.2118  -18.4646  -44.2934 C.3       7 UNK        -0.1800 
     39 N           3.7061  -16.6391  -42.7539 N.am      7 UNK        -0.5000 
     40 C           3.6739  -15.9443  -41.6074 C.2       6 UNK         0.5000 
     41 O           3.8975  -16.4357  -40.5006 O.2       6 UNK        -0.5000 
     42 CA          3.2847  -14.4595  -41.7157 C.3       6 UNK         0.1400 
     43 CB          4.4827  -13.6029  -42.1531 C.3       6 UNK        -0.1800 
     44 N           2.1661  -14.2587  -42.6392 N.am      6 UNK        -0.5000 
     45 C           0.8952  -14.5954  -42.3739 C.2       5 UNK         0.5000 
     46 O           0.5234  -15.0684  -41.3003 O.2       5 UNK        -0.5000 
     47 CA         -0.1350  -14.3862  -43.4984 C.3       5 UNK         0.1400 
     48 CB         -0.8425  -13.0341  -43.3386 C.3       5 UNK        -0.1800 
     49 N           0.4542  -14.4643  -44.8348 N.am      5 UNK        -0.5000 
     50 C           0.8610  -15.6025  -45.4124 C.2       4 UNK         0.5000 
     51 O           0.7821  -16.7098  -44.8788 O.2       4 UNK        -0.5000 
     52 CA          1.5141  -15.4683  -46.7981 C.3       4 UNK         0.1400 
     53 CB          0.4515  -15.2455  -47.8844 C.3       4 UNK        -0.1800 
     54 N           2.5191  -14.4064  -46.8528 N.am      4 UNK        -0.5000 
     55 C           3.6394  -14.3623  -46.1193 C.2       3 UNK         0.5000 
     56 O           3.9341  -15.2173  -45.2842 O.2       3 UNK        -0.5000 
     57 CA          4.5721  -13.1479  -46.3054 C.3       3 UNK         0.1400 
     58 CB          5.5242  -13.3482  -47.4998 C.3       3 UNK        -0.1800 
     59 N           3.8668  -11.8599  -46.3679 N.am      3 UNK        -0.5000 
     60 C           3.0504  -11.4022  -47.3254 C.2       2 UNK         0.5000 
     61 O           2.8316  -11.9858  -48.3901 O.2       2 UNK        -0.5000 
     62 CA          2.3125  -10.0876  -47.0123 C.3       2 UNK         0.1400 
     63 CB          3.0190   -8.8992  -47.6814 C.3       2 UNK        -0.1800 
     64 N           0.9147  -10.1237  -47.4479 N.am      2 UNK        -0.5000 
     65 C           0.0063  -11.0313  -47.0624 C.2       1 UNK         0.5000 
     66 O           0.2363  -11.9355  -46.2525 O.2       1 UNK        -0.5000 
     67 C          -3.7368  -19.2350  -46.3567 C.2       11 UNK         0.5000 
     68 O          -4.6493  -19.2903  -47.1810 O.2       11 UNK        -0.5000 
     69 N          -3.5928  -20.1215  -45.3622 N.am      12 UNK        -0.5000 
     70 CA         -4.4561  -21.2772  -45.1080 C.3       12 UNK         0.1400 
     71 CB         -4.3309  -21.6659  -43.6241 C.3       12 UNK        -0.1800 
     72 C          -4.1439  -22.4511  -46.0622 C.2       12 UNK         0.5000 
     73 O          -3.9360  -23.5810  -45.6176 O.2       12 UNK        -0.5000 
     74 N          -4.1082  -22.1519  -47.3661 N.am      13 UNK        -0.5000 
     75 CA         -3.6856  -23.0513  -48.4372 C.3       13 UNK         0.1400 
     76 CB         -3.3172  -22.2076  -49.6645 C.3       13 UNK        -0.1800 
     77 C          -4.7285  -24.1182  -48.8155 C.2       13 UNK         0.5000 
     78 O          -4.4050  -24.9961  -49.6149 O.2       13 UNK        -0.5000 
     79 N          -5.9496  -24.0317  -48.2663 N.am      14 UNK        -0.5000 
     80 CA         -7.0560  -24.9846  -48.4306 C.3       14 UNK         0.1400 
     81 CB         -6.7108  -26.3238  -47.7442 C.3       14 UNK        -0.1800 
     82 C          -7.4777  -25.1583  -49.9053 C.2       14 UNK         0.5000 
     83 O          -7.5899  -26.2843  -50.3903 O.2       14 UNK        -0.5000 
     84 N          -7.6647  -24.0220  -50.5942 N.am      15 UNK        -0.5000 
     85 CA         -7.9463  -23.9017  -52.0314 C.3       15 UNK         0.1400 
     86 CB         -9.3049  -24.5379  -52.3967 C.3       15 UNK        -0.1800 
     87 C          -6.7757  -24.4072  -52.9034 C.2       15 UNK         0.5000 
     88 O          -6.9929  -25.0791  -53.9132 O.2       15 UNK        -0.5000 
     89 N          -5.5536  -24.0495  -52.4820 N.am      16 UNK        -0.5000 
     90 CA         -4.2629  -24.3624  -53.1035 C.3       16 UNK         0.1400 
     91 CB         -4.1468  -23.7092  -54.4960 C.3       16 UNK        -0.1800 
     92 C          -3.9374  -25.8719  -53.1073 C.2       16 UNK         0.5000 
     93 O          -3.4305  -26.3941  -54.1025 O.2       16 UNK        -0.5000 
     94 N          -4.2429  -26.5438  -51.9908 N.am      17 UNK        -0.5000 
     95 CA         -4.0068  -27.9712  -51.7744 C.3       17 UNK         0.1400 
     96 CB         -5.3325  -28.6500  -51.3981 C.3       17 UNK        -0.1800 
     97 C          -2.9573  -28.2127  -50.6770 C.2       17 UNK         0.5000 
     98 O          -2.1449  -29.1282  -50.8133 O.2       17 UNK        -0.5000 
     99 N          -2.9832  -27.3982  -49.6131 N.am      18 UNK        -0.5000 
    100 CA        -2.0586  -27.4813  -48.4801 C.3       18 UNK         0.1400 
    101 CB        -2.7752  -27.0048  -47.2066 C.3       18 UNK        -0.1800 
    102 C         -0.7728  -26.6672  -48.7127 C.2       18 UNK         0.5000 
    103 O          0.2396  -26.9439  -48.0682 O.2       18 UNK        -0.5000 
    104 N         -0.8250  -25.6942  -49.6289 N.am      19 UNK        -0.5000 
    105 CA         0.2985  -24.8719  -50.0580 C.3       19 UNK         0.1400 
    106 CB         0.4435  -23.6516  -49.1327 C.3       19 UNK        -0.1800 
    107 C          0.0459  -24.4363  -51.5048 C.2       19 UNK         0.5000 
    108 O         -1.1097  -24.2623  -51.8941 O.2       19 UNK        -0.5000 
    109 N          1.1255  -24.2466  -52.2705 N.am      20 UNK        -0.5000 
    110 CA         1.0746  -23.8269  -53.6745 C.3       20 UNK         0.1400 
    111 CB         2.3589  -24.2992  -54.3743 C.3       20 UNK        -0.1800 
    112 C          0.8949  -22.3058  -53.8541 C.2       20 UNK         0.5000 
    113 O          0.6103  -21.8635  -54.9676 O.2       20 UNK        -0.5000 
    114 N          1.0723  -21.5342  -52.7707 N.am      21 UNK        -0.5000 
    115 CA         1.0865  -20.0672  -52.7359 C.3       21 UNK         0.1400 
    116 CB         1.3274  -19.6122  -51.2880 C.3       21 UNK        -0.1800 
    117 C         -0.1709  -19.3841  -53.3103 C.2       21 UNK         0.5000 
    118 O         -0.0564  -18.3060  -53.8950 O.2       21 UNK        -0.5000 
    119 N         -1.3310  -20.0306  -53.1530 N.am      22 UNK        -0.5000 
    120 CA        -2.6230  -19.5841  -53.7001 C.3       22 UNK         0.1400 
    121 C         -2.9342  -20.1521  -55.1168 C.2       22 UNK         0.5000 
    122 N         -2.0512  -20.9159  -55.7501 N.am      22 UNK        -0.7600 
    123 O         -3.9982  -19.8809  -55.6661 O.2       22 UNK        -0.5000 
    124 C124       -3.7811  -19.8437  -52.7018 C.3       23 UNK        -0.0398 
    125 S125       -3.5624  -18.8803  -51.1660 S.3       23 UNK        -0.2404 
    126 C126       -4.7562  -17.5306  -51.4132 C.3       23 UNK        -0.0205 
    127 H127       -3.9951  -12.5773  -45.1783 H         1 UNK         0.0600 
    128 H128       -3.7215  -11.3782  -43.9141 H         1 UNK         0.0600 
    129 H129       -4.9959  -11.1240  -45.1114 H         1 UNK         0.0600 
    130 H130       -2.5461  -12.4563  -46.8693 H         1 UNK         0.3000 
    131 H131       -1.5816   -9.8604  -47.8909 H         1 UNK         0.0600 
    132 H132       -0.5457  -11.2955  -49.7123 H         1 UNK         0.0800 
    133 H133       -1.2674  -12.7055  -48.9827 H         1 UNK         0.0800 
    134 H134       -2.1068  -13.0274  -51.4992 H         1 UNK         0.0800 
    135 H135       -3.7372  -12.5472  -51.8963 H         1 UNK         0.0800 
    136 H136       -3.7437  -15.1279  -52.1986 H         1 UNK         0.1150 
    137 H137       -5.0174  -17.2658  -48.7137 H         1 UNK         0.1150 
    138 H138       -3.6522  -13.2377  -48.3499 H         1 UNK         0.1150 
    139 H139       -5.0425  -14.4035  -46.5380 H         1 UNK         0.0800 
    140 H140       -5.1239  -16.1449  -46.5674 H         1 UNK         0.0800 
    141 H141       -3.7928  -17.1898  -44.7982 H         1 UNK         0.0800 
    142 H142       -2.0753  -17.1097  -44.6133 H         1 UNK         0.0800 
    143 H143       -2.7913  -17.6691  -47.4408 H         1 UNK         0.0600 
    144 H144       -0.9196  -18.8626  -45.5069 H         1 UNK         0.3000 
    145 H145        0.5530  -20.9518  -47.9395 H         1 UNK         0.0600 
    146 H146        2.6949  -19.9055  -47.5471 H         1 UNK         0.0600 
    147 H147        1.7293  -18.7345  -48.4351 H         1 UNK         0.0600 
    148 H148        1.9570  -18.5549  -46.6976 H         1 UNK         0.0600 
    149 H149        1.2006  -20.1705  -45.2105 H         1 UNK         0.3000 
    150 H150       -0.9416  -22.4451  -43.6251 H         1 UNK         0.0600 
    151 H151        2.0833  -22.8016  -43.9812 H         1 UNK         0.0600 
    152 H152        0.8688  -24.0349  -44.3020 H         1 UNK         0.0600 
    153 H153        1.1099  -23.4521  -42.6623 H         1 UNK         0.0600 
    154 H154        1.2439  -20.8970  -42.6307 H         1 UNK         0.3000 
    155 H155       -0.5228  -17.8151  -42.2419 H         1 UNK         0.0600 
    156 H156        0.6445  -19.8892  -40.3136 H         1 UNK         0.0600 
    157 H157       -0.9864  -19.2377  -40.2810 H         1 UNK         0.0600 
    158 H158        0.3814  -18.1812  -39.9636 H         1 UNK         0.0600 
    159 H159        1.4766  -17.3571  -42.9615 H         1 UNK         0.3000 
    160 H160        4.7254  -18.3785  -42.2107 H         1 UNK         0.0600 
    161 H161        3.4284  -18.1354  -44.9753 H         1 UNK         0.0600 
    162 H162        4.3234  -19.5434  -44.4094 H         1 UNK         0.0600 
    163 H163        5.1455  -18.0029  -44.6150 H         1 UNK         0.0600 
    164 H164        3.5829  -16.1435  -43.6329 H         1 UNK         0.3000 
    165 H165        2.9747  -14.1206  -40.7247 H         1 UNK         0.0600 
    166 H166        4.2116  -12.5495  -42.2241 H         1 UNK         0.0600 
    167 H167        5.2968  -13.6808  -41.4315 H         1 UNK         0.0600 
    168 H168        4.8759  -13.9162  -43.1196 H         1 UNK         0.0600 
    169 H169        2.3850  -13.9051  -43.5582 H         1 UNK         0.3000 
    170 H170       -0.8863  -15.1735  -43.4086 H         1 UNK         0.0600 
    171 H171       -1.6132  -12.9112  -44.0979 H         1 UNK         0.0600 
    172 H172       -0.1456  -12.2002  -43.4310 H         1 UNK         0.0600 
    173 H173       -1.3274  -12.9558  -42.3649 H         1 UNK         0.0600 
    174 H174        0.5191  -13.5925  -45.3559 H         1 UNK         0.3000 
    175 H175        2.0330  -16.3988  -47.0197 H         1 UNK         0.0600 
    176 H176       -0.2741  -16.0604  -47.8929 H         1 UNK         0.0600 
    177 H177        0.9007  -15.1988  -48.8764 H         1 UNK         0.0600 
    178 H178       -0.1001  -14.3204  -47.7197 H         1 UNK         0.0600 
    179 H179        2.3595  -13.6470  -47.5079 H         1 UNK         0.3000 
    180 H180        5.1930  -13.0939  -45.4101 H         1 UNK         0.0600 
    181 H181        6.2042  -12.5033  -47.6082 H         1 UNK         0.0600 
    182 H182        4.9868  -13.4702  -48.4403 H         1 UNK         0.0600 
    183 H183        6.1347  -14.2411  -47.3601 H         1 UNK         0.0600 
    184 H184        3.9582  -11.2976  -45.5331 H         1 UNK         0.3000 
    185 H185        2.3138   -9.9304  -45.9317 H         1 UNK         0.0600 
    186 H186        2.5367   -7.9559  -47.4241 H         1 UNK         0.0600 
    187 H187        4.0585   -8.8300  -47.3582 H         1 UNK         0.0600 
    188 H188        3.0191   -8.9919  -48.7683 H         1 UNK         0.0600 
    189 H189        0.6503   -9.4310  -48.1329 H         1 UNK         0.3000 
    190 H190       -2.8086  -20.0089  -44.7226 H         1 UNK         0.3000 
    191 H191       -5.4929  -20.9854  -45.2869 H         1 UNK         0.0600 
    192 H192       -5.0045  -22.4864  -43.3742 H         1 UNK         0.0600 
    193 H193       -4.5857  -20.8283  -42.9746 H         1 UNK         0.0600 
    194 H194       -3.3178  -21.9831  -43.3762 H         1 UNK         0.0600 
    195 H195       -4.3032  -21.1905  -47.6277 H         1 UNK         0.3000 
    196 H196       -2.7879  -23.5774  -48.1054 H         1 UNK         0.0600 
    197 H197       -4.1852  -21.6819  -50.0628 H         1 UNK         0.0600 
    198 H198       -2.5587  -21.4642  -49.4194 H         1 UNK         0.0600 
    199 H199       -2.9081  -22.8281  -50.4607 H         1 UNK         0.0600 
    200 H200       -6.1199  -23.2605  -47.6374 H         1 UNK         0.3000 
    201 H201       -7.9162  -24.5595  -47.9114 H         1 UNK         0.0600 
    202 H202       -5.8876  -26.8365  -48.2425 H         1 UNK         0.0600 
    203 H203       -7.5673  -26.9988  -47.7517 H         1 UNK         0.0600 
    204 H204       -6.4267  -26.1711  -46.7030 H         1 UNK         0.0600 
    205 H205       -7.5486  -23.1497  -50.0977 H         1 UNK         0.3000 
    206 H206       -8.0284  -22.8329  -52.2345 H         1 UNK         0.0600 
    207 H207      -10.1033  -24.1554  -51.7609 H         1 UNK         0.0600 
    208 H208       -9.5753  -24.3100  -53.4283 H         1 UNK         0.0600 
    209 H209       -9.2882  -25.6235  -52.2990 H         1 UNK         0.0600 
    210 H210       -5.4990  -23.5426  -51.6116 H         1 UNK         0.3000 
    211 H211       -3.5177  -23.8900  -52.4678 H         1 UNK         0.0600 
    212 H212       -3.1238  -23.7706  -54.8694 H         1 UNK         0.0600 
    213 H213       -4.4170  -22.6547  -54.4601 H         1 UNK         0.0600 
    214 H214       -4.7929  -24.1942  -55.2281 H         1 UNK         0.0600 
    215 H215       -4.6136  -26.0180  -51.2050 H         1 UNK         0.3000 
    216 H216       -3.6385  -28.4410  -52.6886 H         1 UNK         0.0600 
    217 H217       -5.7299  -28.2650  -50.4584 H         1 UNK         0.0600 
    218 H218       -5.2014  -29.7265  -51.2826 H         1 UNK         0.0600 
    219 H219       -6.0879  -28.4928  -52.1683 H         1 UNK         0.0600 
    220 H220       -3.6496  -26.6305  -49.5896 H         1 UNK         0.3000 
    221 H221       -1.7674  -28.5228  -48.3282 H         1 UNK         0.0600 
    222 H222       -3.6862  -27.5759  -47.0275 H         1 UNK         0.0600 
    223 H223       -3.0448  -25.9506  -47.2606 H         1 UNK         0.0600 
    224 H224       -2.1364  -27.1302  -46.3316 H         1 UNK         0.0600 
    225 H225       -1.6763  -25.5516  -50.1574 H         1 UNK         0.3000 
    226 H226        1.2154  -25.4645  -50.0288 H         1 UNK         0.0600 
    227 H227        1.2816  -23.0238  -49.4368 H         1 UNK         0.0600 
    228 H228       -0.4533  -23.0313  -49.1406 H         1 UNK         0.0600 
    229 H229        0.6254  -23.9568  -48.1021 H         1 UNK         0.0600 
    230 H230        2.0440  -24.4104  -51.8831 H         1 UNK         0.3000 
    231 H231        0.2261  -24.3135  -54.1610 H         1 UNK         0.0600 
    232 H232        3.2479  -23.8444  -53.9354 H         1 UNK         0.0600 
    233 H233        2.3465  -24.0394  -55.4337 H         1 UNK         0.0600 
    234 H234        2.4679  -25.3820  -54.3095 H         1 UNK         0.0600 
    235 H235        1.2945  -21.9995  -51.9043 H         1 UNK         0.3000 
    236 H236        1.9340  -19.7397  -53.3412 H         1 UNK         0.0600 
    237 H237        2.2806  -19.9808  -50.9087 H         1 UNK         0.0600 
    238 H238        1.3484  -18.5240  -51.2153 H         1 UNK         0.0600 
    239 H239        0.5401  -19.9689  -50.6231 H         1 UNK         0.0600 
    240 H240       -1.3282  -20.9154  -52.6681 H         1 UNK         0.3000 
    241 H241       -2.5793  -18.5033  -53.8480 H         1 UNK         0.0600 
    242 H242       -2.2751  -21.2607  -56.6695 H         1 UNK         0.3800 
    243 H243       -1.1454  -21.1334  -55.3465 H         1 UNK         0.3800 
    244 H244       -3.8325  -20.9033  -52.4481 H         1 UNK         0.0800 
    245 H245       -4.7481  -19.5923  -53.1407 H         1 UNK         0.0800 
    246 H246       -4.7687  -17.2437  -52.4659 H         1 UNK         0.0800 
    247 H247       -5.7593  -17.8884  -51.1771 H         1 UNK         0.0800 
@<TRIPOS>BOND
     1    1    2 1    
     2    1  127 1    
     3    1  128 1    
     4    1  129 1    
     5    2    3 2    
     6    2    4 am   BACKBONE|DICT|INTERRES
     7    4    5 1    
     8    4  130 1    
     9    5    6 1    
    10    5   65 1    
    11    5  131 1    
    12    6    7 1    
    13    6  132 1    
    14    6  133 1    
    15    7    8 1    
    16    8    9 1    
    17    8  134 1    
    18    8  135 1    
    19    9   10 ar   
    20    9   14 ar   
    21   10   11 ar   
    22   10  136 1    
    23   11   12 ar   
    24   11  126 1    
    25   12   13 ar   
    26   12  137 1    
    27   13   14 ar   
    28   13   15 1    
    29   14  138 1    
    30   15   16 1    
    31   15  139 1    
    32   15  140 1    
    33   16   17 1    
    34   17   18 1    
    35   17  141 1    
    36   17  142 1    
    37   18   19 1    
    38   18   67 1    
    39   18  143 1    
    40   19   20 am   BACKBONE|DICT|INTERRES
    41   19  144 1    
    42   20   21 2    
    43   20   22 1    
    44   22   23 1    
    45   22   24 1    
    46   22  145 1    
    47   23  146 1    
    48   23  147 1    
    49   23  148 1    
    50   24   25 am   BACKBONE|DICT|INTERRES
    51   24  149 1    
    52   25   26 2    
    53   25   27 1    
    54   27   28 1    
    55   27   29 1    
    56   27  150 1    
    57   28  151 1    
    58   28  152 1    
    59   28  153 1    
    60   29   30 am   BACKBONE|DICT|INTERRES
    61   29  154 1    
    62   30   31 2    
    63   30   32 1    
    64   32   33 1    
    65   32   34 1    
    66   32  155 1    
    67   33  156 1    
    68   33  157 1    
    69   33  158 1    
    70   34   35 am   BACKBONE|DICT|INTERRES
    71   34  159 1    
    72   35   36 2    
    73   35   37 1    
    74   37   38 1    
    75   37   39 1    
    76   37  160 1    
    77   38  161 1    
    78   38  162 1    
    79   38  163 1    
    80   39   40 am   BACKBONE|DICT|INTERRES
    81   39  164 1    
    82   40   41 2    
    83   40   42 1    
    84   42   43 1    
    85   42   44 1    
    86   42  165 1    
    87   43  166 1    
    88   43  167 1    
    89   43  168 1    
    90   44   45 am   BACKBONE|DICT|INTERRES
    91   44  169 1    
    92   45   46 2    
    93   45   47 1    
    94   47   48 1    
    95   47   49 1    
    96   47  170 1    
    97   48  171 1    
    98   48  172 1    
    99   48  173 1    
   100   49   50 am   BACKBONE|DICT|INTERRES
   101   49  174 1    
   102   50   51 2    
   103   50   52 1    
   104   52   53 1    
   105   52   54 1    
   106   52  175 1    
   107   53  176 1    
   108   53  177 1    
   109   53  178 1    
   110   54   55 am   BACKBONE|DICT|INTERRES
   111   54  179 1    
   112   55   56 2    
   113   55   57 1    
   114   57   58 1    
   115   57   59 1    
   116   57  180 1    
   117   58  181 1    
   118   58  182 1    
   119   58  183 1    
   120   59   60 am   BACKBONE|DICT|INTERRES
   121   59  184 1    
   122   60   61 2    
   123   60   62 1    
   124   62   63 1    
   125   62   64 1    
   126   62  185 1    
   127   63  186 1    
   128   63  187 1    
   129   63  188 1    
   130   64   65 am   BACKBONE|DICT|INTERRES
   131   64  189 1    
   132   65   66 2    
   133   67   68 2    
   134   67   69 am   BACKBONE|DICT|INTERRES
   135   69   70 1    
   136   69  190 1    
   137   70   71 1    
   138   70   72 1    
   139   70  191 1    
   140   71  192 1    
   141   71  193 1    
   142   71  194 1    
   143   72   73 2    
   144   72   74 am   BACKBONE|DICT|INTERRES
   145   74   75 1    
   146   74  195 1    
   147   75   76 1    
   148   75   77 1    
   149   75  196 1    
   150   76  197 1    
   151   76  198 1    
   152   76  199 1    
   153   77   78 2    
   154   77   79 am   BACKBONE|DICT|INTERRES
   155   79   80 1    
   156   79  200 1    
   157   80   81 1    
   158   80   82 1    
   159   80  201 1    
   160   81  202 1    
   161   81  203 1    
   162   81  204 1    
   163   82   83 2    
   164   82   84 am   BACKBONE|DICT|INTERRES
   165   84   85 1    
   166   84  205 1    
   167   85   86 1    
   168   85   87 1    
   169   85  206 1    
   170   86  207 1    
   171   86  208 1    
   172   86  209 1    
   173   87   88 2    
   174   87   89 am   BACKBONE|DICT|INTERRES
   175   89   90 1    
   176   89  210 1    
   177   90   91 1    
   178   90   92 1    
   179   90  211 1    
   180   91  212 1    
   181   91  213 1    
   182   91  214 1    
   183   92   93 2    
   184   92   94 am   BACKBONE|DICT|INTERRES
   185   94   95 1    
   186   94  215 1    
   187   95   96 1    
   188   95   97 1    
   189   95  216 1    
   190   96  217 1    
   191   96  218 1    
   192   96  219 1    
   193   97   98 2    
   194   97   99 am   BACKBONE|DICT|INTERRES
   195   99  100 1    
   196   99  220 1    
   197  100  101 1    
   198  100  102 1    
   199  100  221 1    
   200  101  222 1    
   201  101  223 1    
   202  101  224 1    
   203  102  103 2    
   204  102  104 am   BACKBONE|DICT|INTERRES
   205  104  105 1    
   206  104  225 1    
   207  105  106 1    
   208  105  107 1    
   209  105  226 1    
   210  106  227 1    
   211  106  228 1    
   212  106  229 1    
   213  107  108 2    
   214  107  109 am   BACKBONE|DICT|INTERRES
   215  109  110 1    
   216  109  230 1    
   217  110  111 1    
   218  110  112 1    
   219  110  231 1    
   220  111  232 1    
   221  111  233 1    
   222  111  234 1    
   223  112  113 2    
   224  112  114 am   BACKBONE|DICT|INTERRES
   225  114  115 1    
   226  114  235 1    
   227  115  116 1    
   228  115  117 1    
   229  115  236 1    
   230  116  237 1    
   231  116  238 1    
   232  116  239 1    
   233  117  118 2    
   234  117  119 am   BACKBONE|DICT|INTERRES
   235  119  120 1    
   236  119  240 1    
   237  120  121 1    
   238  120  124 1    
   239  120  241 1    
   240  121  122 am   BACKBONE|DICT|INTERRES
   241  121  123 2    
   242  122  242 1    
   243  122  243 1    
   244  124  125 1    
   245  124  244 1    
   246  124  245 1    
   247  125  126 1    
   248  126  246 1    
   249  126  247 1    
@<TRIPOS>SUBSTRUCTURE
     1 UNK         1 GROUP             0       ****    0 ROOT    
