@<TRIPOS>MOLECULE
3R540
247   249    1
SMALL
USER_CHARGES


@<TRIPOS>ATOM
      1 CA          1.8746  -10.9165  -46.8360 C.3       0 UNK        -0.1800 
      2 C           0.9416  -12.0815  -46.5444 C.2       0 UNK         0.5000 
      3 O           1.1313  -12.7953  -45.5560 O.2       0 UNK        -0.5000 
      4 N          -0.0831  -12.2629  -47.3866 N.am      1 UNK        -0.5000 
      5 CA         -1.1263  -13.2925  -47.2723 C.3       1 UNK         0.1400 
      6 C6         -1.7571  -13.6356  -48.6446 C.3       23 UNK        -0.0398 
      7 S7         -0.5543  -14.4388  -49.7573 S.3       23 UNK        -0.2404 
      8 C8         -1.1849  -16.1458  -49.7537 C.3       23 UNK        -0.0205 
      9 C9         -0.3096  -17.0662  -50.5881 C.ar      23 UNK        -0.0193 
     10 C10        -0.4035  -17.0426  -51.9824 C.ar      23 UNK        -0.1150 
     11 C11         0.3795  -17.8986  -52.7607 C.ar      23 UNK        -0.0193 
     12 C12         1.2551  -18.7890  -52.1352 C.ar      23 UNK        -0.1150 
     13 C13         1.3638  -18.8183  -50.7421 C.ar      23 UNK        -0.0193 
     14 C14         0.5822  -17.9505  -49.9724 C.ar      23 UNK        -0.1150 
     15 C15         2.3341  -19.7843  -50.0811 C.3       23 UNK        -0.0205 
     16 S16         1.4784  -21.2513  -49.4266 S.3       23 UNK        -0.2404 
     17 C17         1.4792  -20.8691  -47.6484 C.3       23 UNK        -0.0398 
     18 CA          0.5185  -21.7699  -46.8272 C.3       11 UNK         0.1400 
     19 N           1.1609  -22.2329  -45.5946 N.am      11 UNK        -0.5000 
     20 C           0.7146  -23.1988  -44.7834 C.2       10 UNK         0.5000 
     21 O          -0.4026  -23.7069  -44.8902 O.2       10 UNK        -0.5000 
     22 CA          1.6954  -23.7090  -43.7035 C.3       10 UNK         0.1400 
     23 CB          3.1523  -23.2529  -43.9147 C.3       10 UNK        -0.1800 
     24 N           1.2625  -23.2901  -42.3767 N.am      10 UNK        -0.5000 
     25 C           0.3558  -23.9320  -41.6297 C.2       9 UNK         0.5000 
     26 O          -0.1025  -25.0389  -41.9159 O.2       9 UNK        -0.5000 
     27 CA         -0.1267  -23.2395  -40.3366 C.3       9 UNK         0.1400 
     28 CB          0.4551  -23.9455  -39.1016 C.3       9 UNK        -0.1800 
     29 N           0.1755  -21.8089  -40.2375 N.am      9 UNK        -0.5000 
     30 C          -0.2149  -20.8438  -41.0819 C.2       8 UNK         0.5000 
     31 O          -0.8738  -21.0524  -42.1000 O.2       8 UNK        -0.5000 
     32 CA          0.2297  -19.4037  -40.7441 C.3       8 UNK         0.1400 
     33 CB          0.5344  -19.1919  -39.2461 C.3       8 UNK        -0.1800 
     34 N           1.3673  -18.9264  -41.5380 N.am      8 UNK        -0.5000 
     35 C           2.5088  -19.5670  -41.8311 C.2       7 UNK         0.5000 
     36 O           2.7407  -20.7435  -41.5454 O.2       7 UNK        -0.5000 
     37 CA          3.5773  -18.7198  -42.5537 C.3       7 UNK         0.1400 
     38 CB          4.7796  -19.5446  -43.0577 C.3       7 UNK        -0.1800 
     39 N           3.0436  -17.8892  -43.6371 N.am      7 UNK        -0.5000 
     40 C           2.3878  -18.2997  -44.7329 C.2       6 UNK         0.5000 
     41 O           2.0424  -19.4652  -44.9208 O.2       6 UNK        -0.5000 
     42 CA          2.0732  -17.2420  -45.8153 C.3       6 UNK         0.1400 
     43 CB          0.5634  -17.0213  -45.9806 C.3       6 UNK        -0.1800 
     44 N           2.6992  -15.9454  -45.5645 N.am      6 UNK        -0.5000 
     45 C           3.9970  -15.6644  -45.7415 C.2       5 UNK         0.5000 
     46 O           4.8163  -16.4588  -46.2028 O.2       5 UNK        -0.5000 
     47 CA          4.4544  -14.2646  -45.2986 C.3       5 UNK         0.1400 
     48 CB          4.5167  -13.3161  -46.5041 C.3       5 UNK        -0.1800 
     49 N           3.5720  -13.7025  -44.2695 N.am      5 UNK        -0.5000 
     50 C           3.6371  -14.0326  -42.9723 C.2       4 UNK         0.5000 
     51 O           4.4452  -14.8437  -42.5183 O.2       4 UNK        -0.5000 
     52 CA          2.6279  -13.3534  -42.0277 C.3       4 UNK         0.1400 
     53 CB          2.6303  -11.8231  -42.1924 C.3       4 UNK        -0.1800 
     54 N           1.2590  -13.8459  -42.1792 N.am      4 UNK        -0.5000 
     55 C           0.8320  -15.0989  -41.9774 C.2       3 UNK         0.5000 
     56 O           1.5757  -16.0394  -41.7042 O.2       3 UNK        -0.5000 
     57 CA         -0.6790  -15.3818  -42.1118 C.3       3 UNK         0.1400 
     58 CB         -1.3292  -15.6041  -40.7330 C.3       3 UNK        -0.1800 
     59 N          -1.4340  -14.4087  -42.9134 N.am      3 UNK        -0.5000 
     60 C          -1.7293  -13.1279  -42.6421 C.2       2 UNK         0.5000 
     61 O          -1.3893  -12.5450  -41.6127 O.2       2 UNK        -0.5000 
     62 CA         -2.4345  -12.3655  -43.7755 C.3       2 UNK         0.1400 
     63 CB         -2.5206  -10.8475  -43.5336 C.3       2 UNK        -0.1800 
     64 N          -1.6851  -12.6230  -44.9991 N.am      2 UNK        -0.5000 
     65 C          -2.1783  -12.9131  -46.2040 C.2       1 UNK         0.5000 
     66 O          -3.3804  -12.8990  -46.4723 O.2       1 UNK        -0.5000 
     67 C          -0.8396  -21.0759  -46.5961 C.2       11 UNK         0.5000 
     68 O          -1.7259  -21.1860  -47.4454 O.2       11 UNK        -0.5000 
     69 N          -0.9839  -20.3779  -45.4595 N.am      12 UNK        -0.5000 
     70 CA         -2.2016  -19.6471  -45.0989 C.3       12 UNK         0.1400 
     71 CB         -1.9171  -18.6572  -43.9527 C.3       12 UNK        -0.1800 
     72 C          -3.3506  -20.6069  -44.7468 C.2       12 UNK         0.5000 
     73 O          -4.4617  -20.4323  -45.2458 O.2       12 UNK        -0.5000 
     74 N          -3.0479  -21.6235  -43.9285 N.am      13 UNK        -0.5000 
     75 CA         -3.9739  -22.6904  -43.5481 C.3       13 UNK         0.1400 
     76 CB         -3.3946  -23.4726  -42.3639 C.3       13 UNK        -0.1800 
     77 C          -4.3048  -23.6358  -44.7167 C.2       13 UNK         0.5000 
     78 O          -5.4430  -24.0963  -44.8135 O.2       13 UNK        -0.5000 
     79 N          -3.3243  -23.8826  -45.5996 N.am      14 UNK        -0.5000 
     80 CA         -3.5134  -24.6078  -46.8601 C.3       14 UNK         0.1400 
     81 CB         -2.1442  -24.9242  -47.4796 C.3       14 UNK        -0.1800 
     82 C          -4.3921  -23.8371  -47.8667 C.2       14 UNK         0.5000 
     83 O          -5.0639  -24.4660  -48.6848 O.2       14 UNK        -0.5000 
     84 N          -4.3752  -22.4993  -47.7653 N.am      15 UNK        -0.5000 
     85 CA         -5.1392  -21.5214  -48.5393 C.3       15 UNK         0.1400 
     86 CB         -6.6445  -21.6364  -48.2256 C.3       15 UNK        -0.1800 
     87 C          -4.8204  -21.6018  -50.0424 C.2       15 UNK         0.5000 
     88 O          -5.7294  -21.7291  -50.8640 O.2       15 UNK        -0.5000 
     89 N          -3.5215  -21.5297  -50.3689 N.am      16 UNK        -0.5000 
     90 CA         -2.9604  -21.6885  -51.7163 C.3       16 UNK         0.1400 
     91 CB         -1.4483  -21.4287  -51.6636 C.3       16 UNK        -0.1800 
     92 C          -3.6129  -20.8117  -52.8022 C.2       16 UNK         0.5000 
     93 O          -3.8261  -21.2879  -53.9183 O.2       16 UNK        -0.5000 
     94 N          -3.9507  -19.5661  -52.4437 N.am      17 UNK        -0.5000 
     95 CA         -4.6144  -18.6030  -53.3219 C.3       17 UNK         0.1400 
     96 CB         -4.5263  -17.2054  -52.6912 C.3       17 UNK        -0.1800 
     97 C          -6.0778  -18.9707  -53.6334 C.2       17 UNK         0.5000 
     98 O          -6.5364  -18.7230  -54.7487 O.2       17 UNK        -0.5000 
     99 N          -6.7784  -19.5681  -52.6593 N.am      18 UNK        -0.5000 
    100 CA        -8.1577  -20.0399  -52.8040 C.3       18 UNK         0.1400 
    101 CB        -8.8174  -20.1321  -51.4198 C.3       18 UNK        -0.1800 
    102 C         -8.2165  -21.3972  -53.5252 C.2       18 UNK         0.5000 
    103 O         -9.1265  -21.6282  -54.3217 O.2       18 UNK        -0.5000 
    104 N         -7.2234  -22.2552  -53.2550 N.am      19 UNK        -0.5000 
    105 CA        -7.0199  -23.5526  -53.9013 C.3       19 UNK         0.1400 
    106 CB        -5.9976  -24.3512  -53.0770 C.3       19 UNK        -0.1800 
    107 C         -6.5526  -23.4438  -55.3678 C.2       19 UNK         0.5000 
    108 O         -6.6213  -24.4366  -56.0932 O.2       19 UNK        -0.5000 
    109 N         -6.0723  -22.2547  -55.7634 N.am      20 UNK        -0.5000 
    110 CA        -5.4778  -21.9093  -57.0583 C.3       20 UNK         0.1400 
    111 CB        -6.5004  -22.0551  -58.2043 C.3       20 UNK        -0.1800 
    112 C         -4.1544  -22.6588  -57.3204 C.2       20 UNK         0.5000 
    113 O         -3.8240  -22.9617  -58.4683 O.2       20 UNK        -0.5000 
    114 N         -3.4015  -22.9188  -56.2429 N.am      21 UNK        -0.5000 
    115 CA        -2.0854  -23.5597  -56.2672 C.3       21 UNK         0.1400 
    116 CB        -1.7720  -24.0917  -54.8604 C.3       21 UNK        -0.1800 
    117 C         -0.9725  -22.6089  -56.7518 C.2       21 UNK         0.5000 
    118 O          0.1028  -23.0735  -57.1314 O.2       21 UNK        -0.5000 
    119 N         -1.2550  -21.3008  -56.7320 N.am      22 UNK        -0.5000 
    120 CA        -0.3698  -20.2109  -57.1702 C.3       22 UNK         0.1400 
    121 C         -0.1155  -20.1482  -58.7062 C.2       22 UNK         0.5000 
    122 N         -0.8575  -20.8697  -59.5386 N.am      22 UNK        -0.7600 
    123 O          0.7761  -19.4305  -59.1508 O.2       22 UNK        -0.5000 
    124 C124       -0.8710  -18.8380  -56.6512 C.3       23 UNK        -0.0398 
    125 S125       -1.1475  -18.8239  -54.8476 S.3       23 UNK        -0.2404 
    126 C126        0.2804  -17.8628  -54.2756 C.3       23 UNK        -0.0205 
    127 H127        2.5474  -11.1640  -47.6567 H         1 UNK         0.0600 
    128 H128        2.4760  -10.6778  -45.9587 H         1 UNK         0.0600 
    129 H129        1.3087  -10.0261  -47.1101 H         1 UNK         0.0600 
    130 H130       -0.1853  -11.6336  -48.1699 H         1 UNK         0.3000 
    131 H131       -0.6563  -14.2052  -46.9016 H         1 UNK         0.0600 
    132 H132       -2.6162  -14.2984  -48.5258 H         1 UNK         0.0800 
    133 H133       -2.1379  -12.7350  -49.1286 H         1 UNK         0.0800 
    134 H134       -1.2482  -16.5092  -48.7269 H         1 UNK         0.0800 
    135 H135       -2.2017  -16.1580  -50.1495 H         1 UNK         0.0800 
    136 H136       -1.0867  -16.3567  -52.4630 H         1 UNK         0.1150 
    137 H137        1.8543  -19.4597  -52.7349 H         1 UNK         0.1150 
    138 H138        0.6619  -17.9693  -48.8956 H         1 UNK         0.1150 
    139 H139        2.8878  -19.2736  -49.2918 H         1 UNK         0.0800 
    140 H140        3.0829  -20.1162  -50.8019 H         1 UNK         0.0800 
    141 H141        1.2626  -19.8101  -47.5037 H         1 UNK         0.0800 
    142 H142        2.5094  -20.9980  -47.3129 H         1 UNK         0.0800 
    143 H143        0.3126  -22.6733  -47.4040 H         1 UNK         0.0600 
    144 H144        2.0420  -21.7905  -45.3716 H         1 UNK         0.3000 
    145 H145        1.6865  -24.7994  -43.7603 H         1 UNK         0.0600 
    146 H146        3.5256  -23.5582  -44.8932 H         1 UNK         0.0600 
    147 H147        3.8107  -23.6967  -43.1678 H         1 UNK         0.0600 
    148 H148        3.2538  -22.1712  -43.8376 H         1 UNK         0.0600 
    149 H149        1.5982  -22.3871  -42.0567 H         1 UNK         0.3000 
    150 H150       -1.2118  -23.3445  -40.3047 H         1 UNK         0.0600 
    151 H151        1.5409  -23.8499  -39.0606 H         1 UNK         0.0600 
    152 H152        0.2194  -25.0106  -39.1102 H         1 UNK         0.0600 
    153 H153        0.0451  -23.5326  -38.1797 H         1 UNK         0.0600 
    154 H154        0.7574  -21.5367  -39.4591 H         1 UNK         0.3000 
    155 H155       -0.6148  -18.7631  -41.0005 H         1 UNK         0.0600 
    156 H156        1.4320  -19.7245  -38.9297 H         1 UNK         0.0600 
    157 H157       -0.2946  -19.5273  -38.6213 H         1 UNK         0.0600 
    158 H158        0.6907  -18.1351  -39.0291 H         1 UNK         0.0600 
    159 H159        1.3337  -17.9440  -41.7948 H         1 UNK         0.3000 
    160 H160        3.9552  -18.0247  -41.8024 H         1 UNK         0.0600 
    161 H161        4.4958  -20.2341  -43.8516 H         1 UNK         0.0600 
    162 H162        5.2241  -20.1311  -42.2527 H         1 UNK         0.0600 
    163 H163        5.5604  -18.8933  -43.4505 H         1 UNK         0.0600 
    164 H164        3.2334  -16.9007  -43.5462 H         1 UNK         0.3000 
    165 H165        2.4599  -17.6323  -46.7589 H         1 UNK         0.0600 
    166 H166        0.3619  -16.3418  -46.8079 H         1 UNK         0.0600 
    167 H167        0.0505  -17.9546  -46.2068 H         1 UNK         0.0600 
    168 H168        0.1158  -16.5975  -45.0820 H         1 UNK         0.0600 
    169 H169        2.1059  -15.2128  -45.2011 H         1 UNK         0.3000 
    170 H170        5.4625  -14.3532  -44.8878 H         1 UNK         0.0600 
    171 H171        4.7519  -12.2963  -46.1992 H         1 UNK         0.0600 
    172 H172        3.5750  -13.3013  -47.0516 H         1 UNK         0.0600 
    173 H173        5.2902  -13.6337  -47.2042 H         1 UNK         0.0600 
    174 H174        2.8238  -13.0956  -44.5901 H         1 UNK         0.3000 
    175 H175        2.9437  -13.5773  -41.0067 H         1 UNK         0.0600 
    176 H176        3.6423  -11.4220  -42.1216 H         1 UNK         0.0600 
    177 H177        2.2188  -11.5139  -43.1540 H         1 UNK         0.0600 
    178 H178        2.0382  -11.3455  -41.4114 H         1 UNK         0.0600 
    179 H179        0.5496  -13.1446  -42.3427 H         1 UNK         0.3000 
    180 H180       -0.7530  -16.3234  -42.6550 H         1 UNK         0.0600 
    181 H181       -1.2824  -14.7111  -40.1096 H         1 UNK         0.0600 
    182 H182       -0.8251  -16.4018  -40.1870 H         1 UNK         0.0600 
    183 H183       -2.3760  -15.8908  -40.8327 H         1 UNK         0.0600 
    184 H184       -1.7398  -14.7539  -43.8119 H         1 UNK         0.3000 
    185 H185       -3.4460  -12.7688  -43.8566 H         1 UNK         0.0600 
    186 H186       -3.0828  -10.6268  -42.6255 H         1 UNK         0.0600 
    187 H187       -1.5312  -10.4006  -43.4282 H         1 UNK         0.0600 
    188 H188       -3.0269  -10.3471  -44.3591 H         1 UNK         0.0600 
    189 H189       -0.6736  -12.6580  -44.9006 H         1 UNK         0.3000 
    190 H190       -0.2112  -20.3520  -44.8067 H         1 UNK         0.3000 
    191 H191       -2.5010  -19.0654  -45.9738 H         1 UNK         0.0600 
    192 H192       -0.8569  -18.4229  -43.8669 H         1 UNK         0.0600 
    193 H193       -2.4512  -17.7212  -44.1169 H         1 UNK         0.0600 
    194 H194       -2.2417  -19.0363  -42.9836 H         1 UNK         0.0600 
    195 H195       -2.1222  -21.6466  -43.5101 H         1 UNK         0.3000 
    196 H196       -4.9071  -22.2260  -43.2224 H         1 UNK         0.0600 
    197 H197       -4.0829  -24.2515  -42.0336 H         1 UNK         0.0600 
    198 H198       -3.2108  -22.8163  -41.5135 H         1 UNK         0.0600 
    199 H199       -2.4558  -23.9554  -42.6327 H         1 UNK         0.0600 
    200 H200       -2.3899  -23.5380  -45.4037 H         1 UNK         0.3000 
    201 H201       -4.0133  -25.5522  -46.6357 H         1 UNK         0.0600 
    202 H202       -2.2554  -25.5168  -48.3885 H         1 UNK         0.0600 
    203 H203       -1.5205  -25.4961  -46.7922 H         1 UNK         0.0600 
    204 H204       -1.6061  -24.0152  -47.7466 H         1 UNK         0.0600 
    205 H205       -3.7318  -22.0976  -47.0953 H         1 UNK         0.3000 
    206 H206       -4.8069  -20.5383  -48.2025 H         1 UNK         0.0600 
    207 H207       -6.8252  -21.5915  -47.1514 H         1 UNK         0.0600 
    208 H208       -7.1992  -20.8160  -48.6809 H         1 UNK         0.0600 
    209 H209       -7.0689  -22.5691  -48.5986 H         1 UNK         0.0600 
    210 H210       -2.8528  -21.4313  -49.6152 H         1 UNK         0.3000 
    211 H211       -3.1158  -22.7287  -52.0072 H         1 UNK         0.0600 
    212 H212       -0.9465  -22.1650  -51.0362 H         1 UNK         0.0600 
    213 H213       -0.9977  -21.4859  -52.6554 H         1 UNK         0.0600 
    214 H214       -1.2249  -20.4386  -51.2639 H         1 UNK         0.0600 
    215 H215       -3.7350  -19.2609  -51.5068 H         1 UNK         0.3000 
    216 H216       -4.0760  -18.5808  -54.2713 H         1 UNK         0.0600 
    217 H217       -5.0252  -17.1674  -51.7221 H         1 UNK         0.0600 
    218 H218       -4.9946  -16.4575  -53.3323 H         1 UNK         0.0600 
    219 H219       -3.4888  -16.9043  -52.5478 H         1 UNK         0.0600 
    220 H220       -6.3050  -19.8178  -51.8013 H         1 UNK         0.3000 
    221 H221       -8.7193  -19.3156  -53.3980 H         1 UNK         0.0600 
    222 H222       -8.3370  -20.8835  -50.7932 H         1 UNK         0.0600 
    223 H223       -8.7741  -19.1773  -50.8955 H         1 UNK         0.0600 
    224 H224       -9.8689  -20.4073  -51.5094 H         1 UNK         0.0600 
    225 H225       -6.5606  -22.0064  -52.5243 H         1 UNK         0.3000 
    226 H226       -7.9689  -24.0924  -53.8944 H         1 UNK         0.0600 
    227 H227       -6.3240  -24.4648  -52.0427 H         1 UNK         0.0600 
    228 H228       -5.8586  -25.3523  -53.4869 H         1 UNK         0.0600 
    229 H229       -5.0230  -23.8625  -53.0674 H         1 UNK         0.0600 
    230 H230       -6.0245  -21.5295  -55.0609 H         1 UNK         0.3000 
    231 H231       -5.2137  -20.8530  -56.9905 H         1 UNK         0.0600 
    232 H232       -6.7550  -23.0981  -58.3935 H         1 UNK         0.0600 
    233 H233       -6.1053  -21.6435  -59.1336 H         1 UNK         0.0600 
    234 H234       -7.4226  -21.5192  -57.9794 H         1 UNK         0.0600 
    235 H235       -3.7116  -22.5567  -55.3448 H         1 UNK         0.3000 
    236 H236       -2.1219  -24.4068  -56.9553 H         1 UNK         0.0600 
    237 H237       -1.7084  -23.2834  -54.1325 H         1 UNK         0.0600 
    238 H238       -2.5386  -24.7888  -54.5216 H         1 UNK         0.0600 
    239 H239       -0.8192  -24.6223  -54.8460 H         1 UNK         0.0600 
    240 H240       -2.1512  -21.0186  -56.3640 H         1 UNK         0.3000 
    241 H241        0.6052  -20.3958  -56.7156 H         1 UNK         0.0600 
    242 H242       -0.6798  -20.8221  -60.5298 H         1 UNK         0.3800 
    243 H243       -1.5891  -21.4696  -59.1891 H         1 UNK         0.3800 
    244 H244       -1.8136  -18.5741  -57.1336 H         1 UNK         0.0800 
    245 H245       -0.1671  -18.0460  -56.9133 H         1 UNK         0.0800 
    246 H246        1.1920  -18.2616  -54.7237 H         1 UNK         0.0800 
    247 H247        0.1882  -16.8313  -54.6191 H         1 UNK         0.0800 
@<TRIPOS>BOND
     1    1    2 1    
     2    1  127 1    
     3    1  128 1    
     4    1  129 1    
     5    2    3 2    
     6    2    4 am   BACKBONE|DICT|INTERRES
     7    4    5 1    
     8    4  130 1    
     9    5    6 1    
    10    5   65 1    
    11    5  131 1    
    12    6    7 1    
    13    6  132 1    
    14    6  133 1    
    15    7    8 1    
    16    8    9 1    
    17    8  134 1    
    18    8  135 1    
    19    9   10 ar   
    20    9   14 ar   
    21   10   11 ar   
    22   10  136 1    
    23   11   12 ar   
    24   11  126 1    
    25   12   13 ar   
    26   12  137 1    
    27   13   14 ar   
    28   13   15 1    
    29   14  138 1    
    30   15   16 1    
    31   15  139 1    
    32   15  140 1    
    33   16   17 1    
    34   17   18 1    
    35   17  141 1    
    36   17  142 1    
    37   18   19 1    
    38   18   67 1    
    39   18  143 1    
    40   19   20 am   BACKBONE|DICT|INTERRES
    41   19  144 1    
    42   20   21 2    
    43   20   22 1    
    44   22   23 1    
    45   22   24 1    
    46   22  145 1    
    47   23  146 1    
    48   23  147 1    
    49   23  148 1    
    50   24   25 am   BACKBONE|DICT|INTERRES
    51   24  149 1    
    52   25   26 2    
    53   25   27 1    
    54   27   28 1    
    55   27   29 1    
    56   27  150 1    
    57   28  151 1    
    58   28  152 1    
    59   28  153 1    
    60   29   30 am   BACKBONE|DICT|INTERRES
    61   29  154 1    
    62   30   31 2    
    63   30   32 1    
    64   32   33 1    
    65   32   34 1    
    66   32  155 1    
    67   33  156 1    
    68   33  157 1    
    69   33  158 1    
    70   34   35 am   BACKBONE|DICT|INTERRES
    71   34  159 1    
    72   35   36 2    
    73   35   37 1    
    74   37   38 1    
    75   37   39 1    
    76   37  160 1    
    77   38  161 1    
    78   38  162 1    
    79   38  163 1    
    80   39   40 am   BACKBONE|DICT|INTERRES
    81   39  164 1    
    82   40   41 2    
    83   40   42 1    
    84   42   43 1    
    85   42   44 1    
    86   42  165 1    
    87   43  166 1    
    88   43  167 1    
    89   43  168 1    
    90   44   45 am   BACKBONE|DICT|INTERRES
    91   44  169 1    
    92   45   46 2    
    93   45   47 1    
    94   47   48 1    
    95   47   49 1    
    96   47  170 1    
    97   48  171 1    
    98   48  172 1    
    99   48  173 1    
   100   49   50 am   BACKBONE|DICT|INTERRES
   101   49  174 1    
   102   50   51 2    
   103   50   52 1    
   104   52   53 1    
   105   52   54 1    
   106   52  175 1    
   107   53  176 1    
   108   53  177 1    
   109   53  178 1    
   110   54   55 am   BACKBONE|DICT|INTERRES
   111   54  179 1    
   112   55   56 2    
   113   55   57 1    
   114   57   58 1    
   115   57   59 1    
   116   57  180 1    
   117   58  181 1    
   118   58  182 1    
   119   58  183 1    
   120   59   60 am   BACKBONE|DICT|INTERRES
   121   59  184 1    
   122   60   61 2    
   123   60   62 1    
   124   62   63 1    
   125   62   64 1    
   126   62  185 1    
   127   63  186 1    
   128   63  187 1    
   129   63  188 1    
   130   64   65 am   BACKBONE|DICT|INTERRES
   131   64  189 1    
   132   65   66 2    
   133   67   68 2    
   134   67   69 am   BACKBONE|DICT|INTERRES
   135   69   70 1    
   136   69  190 1    
   137   70   71 1    
   138   70   72 1    
   139   70  191 1    
   140   71  192 1    
   141   71  193 1    
   142   71  194 1    
   143   72   73 2    
   144   72   74 am   BACKBONE|DICT|INTERRES
   145   74   75 1    
   146   74  195 1    
   147   75   76 1    
   148   75   77 1    
   149   75  196 1    
   150   76  197 1    
   151   76  198 1    
   152   76  199 1    
   153   77   78 2    
   154   77   79 am   BACKBONE|DICT|INTERRES
   155   79   80 1    
   156   79  200 1    
   157   80   81 1    
   158   80   82 1    
   159   80  201 1    
   160   81  202 1    
   161   81  203 1    
   162   81  204 1    
   163   82   83 2    
   164   82   84 am   BACKBONE|DICT|INTERRES
   165   84   85 1    
   166   84  205 1    
   167   85   86 1    
   168   85   87 1    
   169   85  206 1    
   170   86  207 1    
   171   86  208 1    
   172   86  209 1    
   173   87   88 2    
   174   87   89 am   BACKBONE|DICT|INTERRES
   175   89   90 1    
   176   89  210 1    
   177   90   91 1    
   178   90   92 1    
   179   90  211 1    
   180   91  212 1    
   181   91  213 1    
   182   91  214 1    
   183   92   93 2    
   184   92   94 am   BACKBONE|DICT|INTERRES
   185   94   95 1    
   186   94  215 1    
   187   95   96 1    
   188   95   97 1    
   189   95  216 1    
   190   96  217 1    
   191   96  218 1    
   192   96  219 1    
   193   97   98 2    
   194   97   99 am   BACKBONE|DICT|INTERRES
   195   99  100 1    
   196   99  220 1    
   197  100  101 1    
   198  100  102 1    
   199  100  221 1    
   200  101  222 1    
   201  101  223 1    
   202  101  224 1    
   203  102  103 2    
   204  102  104 am   BACKBONE|DICT|INTERRES
   205  104  105 1    
   206  104  225 1    
   207  105  106 1    
   208  105  107 1    
   209  105  226 1    
   210  106  227 1    
   211  106  228 1    
   212  106  229 1    
   213  107  108 2    
   214  107  109 am   BACKBONE|DICT|INTERRES
   215  109  110 1    
   216  109  230 1    
   217  110  111 1    
   218  110  112 1    
   219  110  231 1    
   220  111  232 1    
   221  111  233 1    
   222  111  234 1    
   223  112  113 2    
   224  112  114 am   BACKBONE|DICT|INTERRES
   225  114  115 1    
   226  114  235 1    
   227  115  116 1    
   228  115  117 1    
   229  115  236 1    
   230  116  237 1    
   231  116  238 1    
   232  116  239 1    
   233  117  118 2    
   234  117  119 am   BACKBONE|DICT|INTERRES
   235  119  120 1    
   236  119  240 1    
   237  120  121 1    
   238  120  124 1    
   239  120  241 1    
   240  121  122 am   BACKBONE|DICT|INTERRES
   241  121  123 2    
   242  122  242 1    
   243  122  243 1    
   244  124  125 1    
   245  124  244 1    
   246  124  245 1    
   247  125  126 1    
   248  126  246 1    
   249  126  247 1    
@<TRIPOS>SUBSTRUCTURE
     1 UNK         1 GROUP             0       ****    0 ROOT    
