@<TRIPOS>MOLECULE
3R540
247   249    1
SMALL
USER_CHARGES


@<TRIPOS>ATOM
      1 CA          5.8158  -11.0497  -49.2100 C.3       0 UNK        -0.1800 
      2 C           5.1872  -12.4361  -49.2237 C.2       0 UNK         0.5000 
      3 O           5.7566  -13.3590  -49.8061 O.2       0 UNK        -0.5000 
      4 N           4.0159  -12.5792  -48.5906 N.am      1 UNK        -0.5000 
      5 CA          3.2619  -13.8319  -48.4657 C.3       1 UNK         0.1400 
      6 C6          1.8651  -13.5899  -47.8440 C.3       23 UNK        -0.0398 
      7 S7          0.6548  -12.9533  -49.0490 S.3       23 UNK        -0.2404 
      8 C8         -0.6144  -14.2644  -49.0173 C.3       23 UNK        -0.0205 
      9 C9         -0.2850  -15.4279  -49.9451 C.ar      23 UNK        -0.0193 
     10 C10        -0.9989  -15.5952  -51.1353 C.ar      23 UNK        -0.1150 
     11 C11        -0.7173  -16.6642  -51.9912 C.ar      23 UNK        -0.0193 
     12 C12         0.3005  -17.5629  -51.6577 C.ar      23 UNK        -0.1150 
     13 C13         1.0143  -17.4150  -50.4663 C.ar      23 UNK        -0.0193 
     14 C14         0.7104  -16.3518  -49.6122 C.ar      23 UNK        -0.1150 
     15 C15         2.1302  -18.3878  -50.1117 C.3       23 UNK        -0.0205 
     16 S16         1.5089  -19.9934  -49.5201 S.3       23 UNK        -0.2404 
     17 C17         0.6887  -19.5358  -47.9531 C.3       23 UNK        -0.0398 
     18 CA         -0.7247  -20.1479  -47.8208 C.3       11 UNK         0.1400 
     19 N          -1.1996  -20.1126  -46.4365 N.am      11 UNK        -0.5000 
     20 C          -2.2555  -20.7999  -45.9810 C.2       10 UNK         0.5000 
     21 O          -2.9356  -21.5500  -46.6789 O.2       10 UNK        -0.5000 
     22 CA         -2.6473  -20.5784  -44.5096 C.3       10 UNK         0.1400 
     23 CB         -1.7229  -21.3675  -43.5706 C.3       10 UNK        -0.1800 
     24 N          -2.6477  -19.1640  -44.1351 N.am      10 UNK        -0.5000 
     25 C          -3.4552  -18.2409  -44.6776 C.2       9 UNK         0.5000 
     26 O          -4.3120  -18.4945  -45.5237 O.2       9 UNK        -0.5000 
     27 CA         -3.2435  -16.7827  -44.2362 C.3       9 UNK         0.1400 
     28 CB         -3.9043  -16.5237  -42.8742 C.3       9 UNK        -0.1800 
     29 N          -1.8311  -16.4073  -44.1782 N.am      9 UNK        -0.5000 
     30 C          -0.9988  -16.4036  -45.2292 C.2       8 UNK         0.5000 
     31 O          -1.3347  -16.6969  -46.3756 O.2       8 UNK        -0.5000 
     32 CA          0.4724  -16.0661  -44.9397 C.3       8 UNK         0.1400 
     33 CB          0.6520  -14.5611  -44.6875 C.3       8 UNK        -0.1800 
     34 N           1.0002  -16.8226  -43.8064 N.am      8 UNK        -0.5000 
     35 C           1.0904  -18.1592  -43.7553 C.2       7 UNK         0.5000 
     36 O           0.7824  -18.9049  -44.6849 O.2       7 UNK        -0.5000 
     37 CA          1.5531  -18.7647  -42.4198 C.3       7 UNK         0.1400 
     38 CB          3.0841  -18.7384  -42.2988 C.3       7 UNK        -0.1800 
     39 N           0.9582  -18.0774  -41.2741 N.am      7 UNK        -0.5000 
     40 C          -0.3446  -18.1172  -40.9601 C.2       6 UNK         0.5000 
     41 O          -1.1819  -18.7689  -41.5838 O.2       6 UNK        -0.5000 
     42 CA         -0.7888  -17.2408  -39.7758 C.3       6 UNK         0.1400 
     43 CB         -0.4943  -17.9396  -38.4400 C.3       6 UNK        -0.1800 
     44 N          -0.1490  -15.9242  -39.7895 N.am      6 UNK        -0.5000 
     45 C          -0.3712  -14.9888  -40.7235 C.2       5 UNK         0.5000 
     46 O          -1.1636  -15.1284  -41.6543 O.2       5 UNK        -0.5000 
     47 CA          0.4602  -13.6972  -40.6237 C.3       5 UNK         0.1400 
     48 CB         -0.2300  -12.6832  -39.6993 C.3       5 UNK        -0.1800 
     49 N           1.8329  -13.9206  -40.1617 N.am      5 UNK        -0.5000 
     50 C           2.7545  -14.6350  -40.8202 C.2       4 UNK         0.5000 
     51 O           2.5366  -15.2375  -41.8746 O.2       4 UNK        -0.5000 
     52 CA          4.1371  -14.7271  -40.1655 C.3       4 UNK         0.1400 
     53 CB          4.2176  -15.9579  -39.2476 C.3       4 UNK        -0.1800 
     54 N           5.1562  -14.8337  -41.2051 N.am      4 UNK        -0.5000 
     55 C           6.3336  -14.1958  -41.2027 C.2       3 UNK         0.5000 
     56 O           6.6993  -13.4507  -40.2921 O.2       3 UNK        -0.5000 
     57 CA          7.2803  -14.4292  -42.3998 C.3       3 UNK         0.1400 
     58 CB          8.4860  -15.2803  -41.9694 C.3       3 UNK        -0.1800 
     59 N           6.6410  -15.0768  -43.5480 N.am      3 UNK        -0.5000 
     60 C           5.8270  -14.4658  -44.4165 C.2       2 UNK         0.5000 
     61 O           5.5271  -13.2699  -44.3561 O.2       2 UNK        -0.5000 
     62 CA          5.2342  -15.3543  -45.5201 C.3       2 UNK         0.1400 
     63 CB          4.2913  -16.4109  -44.9087 C.3       2 UNK        -0.1800 
     64 N           4.5168  -14.5075  -46.4684 N.am      2 UNK        -0.5000 
     65 C           4.0279  -14.8950  -47.6516 C.2       1 UNK         0.5000 
     66 O           4.1493  -16.0334  -48.1038 O.2       1 UNK        -0.5000 
     67 C          -1.7442  -19.5299  -48.8033 C.2       11 UNK         0.5000 
     68 O          -1.9562  -20.0923  -49.8735 O.2       11 UNK        -0.5000 
     69 N          -2.4082  -18.4329  -48.4128 N.am      12 UNK        -0.5000 
     70 CA         -3.4863  -17.8218  -49.1935 C.3       12 UNK         0.1400 
     71 CB         -3.8619  -16.4669  -48.5768 C.3       12 UNK        -0.1800 
     72 C          -4.7316  -18.7236  -49.3101 C.2       12 UNK         0.5000 
     73 O          -5.3826  -18.7281  -50.3560 O.2       12 UNK        -0.5000 
     74 N          -5.0468  -19.4607  -48.2369 N.am      13 UNK        -0.5000 
     75 CA         -6.1700  -20.3935  -48.1749 C.3       13 UNK         0.1400 
     76 CB         -6.5090  -20.6809  -46.7042 C.3       13 UNK        -0.1800 
     77 C          -5.9158  -21.7086  -48.9340 C.2       13 UNK         0.5000 
     78 O          -6.8694  -22.2854  -49.4564 O.2       13 UNK        -0.5000 
     79 N          -4.6608  -22.1703  -48.9711 N.am      14 UNK        -0.5000 
     80 CA         -4.2588  -23.4319  -49.5810 C.3       14 UNK         0.1400 
     81 CB         -4.6371  -24.6019  -48.6487 C.3       14 UNK        -0.1800 
     82 C          -2.7523  -23.3983  -49.8749 C.2       14 UNK         0.5000 
     83 O          -1.9510  -23.7948  -49.0246 O.2       14 UNK        -0.5000 
     84 N          -2.3782  -22.9240  -51.0687 N.am      15 UNK        -0.5000 
     85 CA         -0.9938  -22.8316  -51.5379 C.3       15 UNK         0.1400 
     86 CB         -0.9030  -21.7978  -52.6728 C.3       15 UNK        -0.1800 
     87 C          -0.4503  -24.2131  -51.9524 C.2       15 UNK         0.5000 
     88 O          -0.3214  -24.5007  -53.1431 O.2       15 UNK        -0.5000 
     89 N          -0.1813  -25.0535  -50.9438 N.am      16 UNK        -0.5000 
     90 CA          0.3194  -26.4338  -51.0122 C.3       16 UNK         0.1400 
     91 CB          1.6725  -26.5079  -51.7503 C.3       16 UNK        -0.1800 
     92 C          -0.7010  -27.4612  -51.5509 C.2       16 UNK         0.5000 
     93 O          -0.3458  -28.6264  -51.7366 O.2       16 UNK        -0.5000 
     94 N          -1.9531  -27.0386  -51.7498 N.am      17 UNK        -0.5000 
     95 CA         -3.0918  -27.8614  -52.1339 C.3       17 UNK         0.1400 
     96 CB         -3.0948  -28.0943  -53.6545 C.3       17 UNK        -0.1800 
     97 C          -4.3583  -27.1225  -51.6932 C.2       17 UNK         0.5000 
     98 O          -4.3932  -25.8927  -51.7684 O.2       17 UNK        -0.5000 
     99 N          -5.3836  -27.8703  -51.2676 N.am      18 UNK        -0.5000 
    100 CA        -6.6566  -27.3313  -50.7723 C.3       18 UNK         0.1400 
    101 CB        -7.4912  -28.4779  -50.1820 C.3       18 UNK        -0.1800 
    102 C         -7.4678  -26.5646  -51.8356 C.2       18 UNK         0.5000 
    103 O         -8.2302  -25.6633  -51.4873 O.2       18 UNK        -0.5000 
    104 N         -7.2781  -26.9279  -53.1108 N.am      19 UNK        -0.5000 
    105 CA        -7.8811  -26.2608  -54.2639 C.3       19 UNK         0.1400 
    106 CB        -7.8565  -27.2258  -55.4594 C.3       19 UNK        -0.1800 
    107 C         -7.1806  -24.9378  -54.6311 C.2       19 UNK         0.5000 
    108 O         -7.7856  -24.1054  -55.3083 O.2       19 UNK        -0.5000 
    109 N         -5.9276  -24.7530  -54.1918 N.am      20 UNK        -0.5000 
    110 CA        -5.0920  -23.5931  -54.4993 C.3       20 UNK         0.1400 
    111 CB        -3.6193  -24.0351  -54.5458 C.3       20 UNK        -0.1800 
    112 C         -5.3483  -22.4417  -53.5082 C.2       20 UNK         0.5000 
    113 O         -4.4246  -21.9712  -52.8424 O.2       20 UNK        -0.5000 
    114 N         -6.6108  -22.0082  -53.4283 N.am      21 UNK        -0.5000 
    115 CA        -7.0719  -20.8798  -52.6232 C.3       21 UNK         0.1400 
    116 CB        -8.5476  -21.1085  -52.2519 C.3       21 UNK        -0.1800 
    117 C         -6.8452  -19.5615  -53.3855 C.2       21 UNK         0.5000 
    118 O         -7.7982  -18.9488  -53.8716 O.2       21 UNK        -0.5000 
    119 N         -5.5714  -19.1845  -53.5272 N.am      22 UNK        -0.5000 
    120 CA        -5.1123  -17.9822  -54.2375 C.3       22 UNK         0.1400 
    121 C         -5.4066  -16.6291  -53.5236 C.2       22 UNK         0.5000 
    122 N         -5.7329  -16.6079  -52.2375 N.am      22 UNK        -0.7600 
    123 O         -5.3506  -15.5787  -54.1575 O.2       22 UNK        -0.5000 
    124 C124       -3.6239  -18.1119  -54.6475 C.3       23 UNK        -0.0398 
    125 S125       -2.5097  -18.3641  -53.2231 S.3       23 UNK        -0.2404 
    126 C126       -1.5119  -16.8455  -53.2748 C.3       23 UNK        -0.0205 
    127 H127        6.7959  -11.0871  -48.7344 H         1 UNK         0.0600 
    128 H128        5.2019  -10.3307  -48.6670 H         1 UNK         0.0600 
    129 H129        5.9438  -10.6856  -50.2294 H         1 UNK         0.0600 
    130 H130        3.5953  -11.7710  -48.1548 H         1 UNK         0.3000 
    131 H131        3.1297  -14.2423  -49.4696 H         1 UNK         0.0600 
    132 H132        1.4667  -14.5040  -47.4081 H         1 UNK         0.0800 
    133 H133        1.9299  -12.8844  -47.0141 H         1 UNK         0.0800 
    134 H134       -0.7611  -14.6282  -48.0001 H         1 UNK         0.0800 
    135 H135       -1.5660  -13.8165  -49.3073 H         1 UNK         0.0800 
    136 H136       -1.7814  -14.8954  -51.3929 H         1 UNK         0.1150 
    137 H137        0.5234  -18.3897  -52.3177 H         1 UNK         0.1150 
    138 H138        1.2582  -16.2504  -48.6892 H         1 UNK         0.1150 
    139 H139        2.7509  -18.5556  -50.9928 H         1 UNK         0.0800 
    140 H140        2.7898  -17.9613  -49.3552 H         1 UNK         0.0800 
    141 H141        0.6533  -18.4545  -47.8222 H         1 UNK         0.0800 
    142 H142        1.3262  -19.9078  -47.1501 H         1 UNK         0.0800 
    143 H143       -0.6430  -21.2056  -48.0834 H         1 UNK         0.0600 
    144 H144       -0.6697  -19.5351  -45.7892 H         1 UNK         0.3000 
    145 H145       -3.6635  -20.9560  -44.3777 H         1 UNK         0.0600 
    146 H146       -2.0527  -21.2870  -42.5347 H         1 UNK         0.0600 
    147 H147       -1.7166  -22.4272  -43.8286 H         1 UNK         0.0600 
    148 H148       -0.6943  -21.0102  -43.6224 H         1 UNK         0.0600 
    149 H149       -1.9952  -18.8842  -43.4093 H         1 UNK         0.3000 
    150 H150       -3.7259  -16.1403  -44.9756 H         1 UNK         0.0600 
    151 H151       -4.9616  -16.7908  -42.8950 H         1 UNK         0.0600 
    152 H152       -3.8401  -15.4706  -42.6001 H         1 UNK         0.0600 
    153 H153       -3.4327  -17.1042  -42.0807 H         1 UNK         0.0600 
    154 H154       -1.4781  -16.1156  -43.2706 H         1 UNK         0.3000 
    155 H155        1.0545  -16.3393  -45.8222 H         1 UNK         0.0600 
    156 H156        0.1878  -14.2517  -43.7532 H         1 UNK         0.0600 
    157 H157        0.1919  -13.9697  -45.4793 H         1 UNK         0.0600 
    158 H158        1.7066  -14.2898  -44.6402 H         1 UNK         0.0600 
    159 H159        1.3257  -16.2830  -43.0101 H         1 UNK         0.3000 
    160 H160        1.2291  -19.8073  -42.3978 H         1 UNK         0.0600 
    161 H161        3.4710  -17.7205  -42.2618 H         1 UNK         0.0600 
    162 H162        3.5512  -19.2373  -43.1489 H         1 UNK         0.0600 
    163 H163        3.4158  -19.2537  -41.3973 H         1 UNK         0.0600 
    164 H164        1.5666  -17.4782  -40.7374 H         1 UNK         0.3000 
    165 H165       -1.8684  -17.0960  -39.8550 H         1 UNK         0.0600 
    166 H166       -0.8759  -17.3594  -37.5997 H         1 UNK         0.0600 
    167 H167       -0.9710  -18.9199  -38.3999 H         1 UNK         0.0600 
    168 H168        0.5755  -18.0880  -38.2875 H         1 UNK         0.0600 
    169 H169        0.5163  -15.7272  -39.0567 H         1 UNK         0.3000 
    170 H170        0.5140  -13.2603  -41.6224 H         1 UNK         0.0600 
    171 H171       -1.2490  -12.4820  -40.0326 H         1 UNK         0.0600 
    172 H172       -0.2861  -13.0459  -38.6721 H         1 UNK         0.0600 
    173 H173        0.3011  -11.7312  -39.6913 H         1 UNK         0.0600 
    174 H174        2.0908  -13.4703  -39.2953 H         1 UNK         0.3000 
    175 H175        4.2939  -13.8242  -39.5715 H         1 UNK         0.0600 
    176 H176        4.0631  -16.8848  -39.8014 H         1 UNK         0.0600 
    177 H177        5.1905  -16.0199  -38.7598 H         1 UNK         0.0600 
    178 H178        3.4630  -15.9131  -38.4614 H         1 UNK         0.0600 
    179 H179        4.8864  -15.3721  -42.0162 H         1 UNK         0.3000 
    180 H180        7.6509  -13.4513  -42.7149 H         1 UNK         0.0600 
    181 H181        8.1802  -16.2754  -41.6438 H         1 UNK         0.0600 
    182 H182        9.0197  -14.8137  -41.1403 H         1 UNK         0.0600 
    183 H183        9.1987  -15.3972  -42.7860 H         1 UNK         0.0600 
    184 H184        6.8361  -16.0605  -43.6680 H         1 UNK         0.3000 
    185 H185        6.0545  -15.8486  -46.0443 H         1 UNK         0.0600 
    186 H186        3.8017  -17.0203  -45.6678 H         1 UNK         0.0600 
    187 H187        4.8362  -17.0969  -44.2603 H         1 UNK         0.0600 
    188 H188        3.5154  -15.9390  -44.3083 H         1 UNK         0.0600 
    189 H189        4.4335  -13.5430  -46.1699 H         1 UNK         0.3000 
    190 H190       -2.1517  -17.9741  -47.5428 H         1 UNK         0.3000 
    191 H191       -3.1098  -17.6435  -50.2029 H         1 UNK         0.0600 
    192 H192       -4.2390  -16.5781  -47.5598 H         1 UNK         0.0600 
    193 H193       -4.6355  -15.9717  -49.1645 H         1 UNK         0.0600 
    194 H194       -3.0028  -15.7993  -48.5414 H         1 UNK         0.0600 
    195 H195       -4.5010  -19.3475  -47.3893 H         1 UNK         0.3000 
    196 H196       -7.0387  -19.9139  -48.6312 H         1 UNK         0.0600 
    197 H197       -7.3564  -21.3629  -46.6237 H         1 UNK         0.0600 
    198 H198       -6.7764  -19.7659  -46.1755 H         1 UNK         0.0600 
    199 H199       -5.6686  -21.1368  -46.1799 H         1 UNK         0.0600 
    200 H200       -3.9317  -21.6699  -48.4716 H         1 UNK         0.3000 
    201 H201       -4.7854  -23.5570  -50.5293 H         1 UNK         0.0600 
    202 H202       -5.7182  -24.7013  -48.5554 H         1 UNK         0.0600 
    203 H203       -4.2268  -24.4639  -47.6475 H         1 UNK         0.0600 
    204 H204       -4.2551  -25.5486  -49.0308 H         1 UNK         0.0600 
    205 H205       -3.0926  -22.5804  -51.7079 H         1 UNK         0.3000 
    206 H206       -0.3713  -22.4638  -50.7193 H         1 UNK         0.0600 
    207 H207       -1.1650  -20.8045  -52.3125 H         1 UNK         0.0600 
    208 H208        0.1110  -21.7371  -53.0693 H         1 UNK         0.0600 
    209 H209       -1.5695  -22.0381  -53.4996 H         1 UNK         0.0600 
    210 H210       -0.4259  -24.7278  -50.0132 H         1 UNK         0.3000 
    211 H211        0.5031  -26.7240  -49.9769 H         1 UNK         0.0600 
    212 H212        1.5648  -26.3200  -52.8187 H         1 UNK         0.0600 
    213 H213        2.1235  -27.4947  -51.6403 H         1 UNK         0.0600 
    214 H214        2.3814  -25.7831  -51.3502 H         1 UNK         0.0600 
    215 H215       -2.1824  -26.0700  -51.5688 H         1 UNK         0.3000 
    216 H216       -3.0393  -28.8194  -51.6125 H         1 UNK         0.0600 
    217 H217       -3.9582  -28.6867  -53.9592 H         1 UNK         0.0600 
    218 H218       -2.2030  -28.6335  -53.9741 H         1 UNK         0.0600 
    219 H219       -3.1294  -27.1530  -54.2040 H         1 UNK         0.0600 
    220 H220       -5.2839  -28.8752  -51.2450 H         1 UNK         0.3000 
    221 H221       -6.4317  -26.6275  -49.9691 H         1 UNK         0.0600 
    222 H222       -7.7276  -29.2321  -50.9336 H         1 UNK         0.0600 
    223 H223       -6.9638  -28.9701  -49.3647 H         1 UNK         0.0600 
    224 H224       -8.4355  -28.1074  -49.7804 H         1 UNK         0.0600 
    225 H225       -6.6444  -27.6893  -53.3037 H         1 UNK         0.3000 
    226 H226       -8.9234  -26.0300  -54.0331 H         1 UNK         0.0600 
    227 H227       -8.4016  -28.1434  -55.2371 H         1 UNK         0.0600 
    228 H228       -8.3253  -26.7753  -56.3353 H         1 UNK         0.0600 
    229 H229       -6.8372  -27.4983  -55.7364 H         1 UNK         0.0600 
    230 H230       -5.5295  -25.4231  -53.5460 H         1 UNK         0.3000 
    231 H231       -5.3464  -23.2217  -55.4942 H         1 UNK         0.0600 
    232 H232       -2.9830  -23.2204  -54.8904 H         1 UNK         0.0600 
    233 H233       -3.4774  -24.8648  -55.2380 H         1 UNK         0.0600 
    234 H234       -3.2539  -24.3491  -53.5683 H         1 UNK         0.0600 
    235 H235       -7.2984  -22.4496  -54.0271 H         1 UNK         0.3000 
    236 H236       -6.4944  -20.8314  -51.6994 H         1 UNK         0.0600 
    237 H237       -8.6676  -22.0261  -51.6753 H         1 UNK         0.0600 
    238 H238       -8.9254  -20.2890  -51.6394 H         1 UNK         0.0600 
    239 H239       -9.1826  -21.1834  -53.1355 H         1 UNK         0.0600 
    240 H240       -4.8493  -19.7470  -53.0927 H         1 UNK         0.3000 
    241 H241       -5.6829  -17.9391  -55.1672 H         1 UNK         0.0600 
    242 H242       -5.9364  -15.7277  -51.7939 H         1 UNK         0.3800 
    243 H243       -5.7243  -17.4635  -51.6870 H         1 UNK         0.3800 
    244 H244       -3.3059  -17.2452  -55.2295 H         1 UNK         0.0800 
    245 H245       -3.5054  -18.9677  -55.3132 H         1 UNK         0.0800 
    246 H246       -2.1679  -15.9891  -53.4400 H         1 UNK         0.0800 
    247 H247       -0.8295  -16.8874  -54.1247 H         1 UNK         0.0800 
@<TRIPOS>BOND
     1    1    2 1    
     2    1  127 1    
     3    1  128 1    
     4    1  129 1    
     5    2    3 2    
     6    2    4 am   BACKBONE|DICT|INTERRES
     7    4    5 1    
     8    4  130 1    
     9    5    6 1    
    10    5   65 1    
    11    5  131 1    
    12    6    7 1    
    13    6  132 1    
    14    6  133 1    
    15    7    8 1    
    16    8    9 1    
    17    8  134 1    
    18    8  135 1    
    19    9   10 ar   
    20    9   14 ar   
    21   10   11 ar   
    22   10  136 1    
    23   11   12 ar   
    24   11  126 1    
    25   12   13 ar   
    26   12  137 1    
    27   13   14 ar   
    28   13   15 1    
    29   14  138 1    
    30   15   16 1    
    31   15  139 1    
    32   15  140 1    
    33   16   17 1    
    34   17   18 1    
    35   17  141 1    
    36   17  142 1    
    37   18   19 1    
    38   18   67 1    
    39   18  143 1    
    40   19   20 am   BACKBONE|DICT|INTERRES
    41   19  144 1    
    42   20   21 2    
    43   20   22 1    
    44   22   23 1    
    45   22   24 1    
    46   22  145 1    
    47   23  146 1    
    48   23  147 1    
    49   23  148 1    
    50   24   25 am   BACKBONE|DICT|INTERRES
    51   24  149 1    
    52   25   26 2    
    53   25   27 1    
    54   27   28 1    
    55   27   29 1    
    56   27  150 1    
    57   28  151 1    
    58   28  152 1    
    59   28  153 1    
    60   29   30 am   BACKBONE|DICT|INTERRES
    61   29  154 1    
    62   30   31 2    
    63   30   32 1    
    64   32   33 1    
    65   32   34 1    
    66   32  155 1    
    67   33  156 1    
    68   33  157 1    
    69   33  158 1    
    70   34   35 am   BACKBONE|DICT|INTERRES
    71   34  159 1    
    72   35   36 2    
    73   35   37 1    
    74   37   38 1    
    75   37   39 1    
    76   37  160 1    
    77   38  161 1    
    78   38  162 1    
    79   38  163 1    
    80   39   40 am   BACKBONE|DICT|INTERRES
    81   39  164 1    
    82   40   41 2    
    83   40   42 1    
    84   42   43 1    
    85   42   44 1    
    86   42  165 1    
    87   43  166 1    
    88   43  167 1    
    89   43  168 1    
    90   44   45 am   BACKBONE|DICT|INTERRES
    91   44  169 1    
    92   45   46 2    
    93   45   47 1    
    94   47   48 1    
    95   47   49 1    
    96   47  170 1    
    97   48  171 1    
    98   48  172 1    
    99   48  173 1    
   100   49   50 am   BACKBONE|DICT|INTERRES
   101   49  174 1    
   102   50   51 2    
   103   50   52 1    
   104   52   53 1    
   105   52   54 1    
   106   52  175 1    
   107   53  176 1    
   108   53  177 1    
   109   53  178 1    
   110   54   55 am   BACKBONE|DICT|INTERRES
   111   54  179 1    
   112   55   56 2    
   113   55   57 1    
   114   57   58 1    
   115   57   59 1    
   116   57  180 1    
   117   58  181 1    
   118   58  182 1    
   119   58  183 1    
   120   59   60 am   BACKBONE|DICT|INTERRES
   121   59  184 1    
   122   60   61 2    
   123   60   62 1    
   124   62   63 1    
   125   62   64 1    
   126   62  185 1    
   127   63  186 1    
   128   63  187 1    
   129   63  188 1    
   130   64   65 am   BACKBONE|DICT|INTERRES
   131   64  189 1    
   132   65   66 2    
   133   67   68 2    
   134   67   69 am   BACKBONE|DICT|INTERRES
   135   69   70 1    
   136   69  190 1    
   137   70   71 1    
   138   70   72 1    
   139   70  191 1    
   140   71  192 1    
   141   71  193 1    
   142   71  194 1    
   143   72   73 2    
   144   72   74 am   BACKBONE|DICT|INTERRES
   145   74   75 1    
   146   74  195 1    
   147   75   76 1    
   148   75   77 1    
   149   75  196 1    
   150   76  197 1    
   151   76  198 1    
   152   76  199 1    
   153   77   78 2    
   154   77   79 am   BACKBONE|DICT|INTERRES
   155   79   80 1    
   156   79  200 1    
   157   80   81 1    
   158   80   82 1    
   159   80  201 1    
   160   81  202 1    
   161   81  203 1    
   162   81  204 1    
   163   82   83 2    
   164   82   84 am   BACKBONE|DICT|INTERRES
   165   84   85 1    
   166   84  205 1    
   167   85   86 1    
   168   85   87 1    
   169   85  206 1    
   170   86  207 1    
   171   86  208 1    
   172   86  209 1    
   173   87   88 2    
   174   87   89 am   BACKBONE|DICT|INTERRES
   175   89   90 1    
   176   89  210 1    
   177   90   91 1    
   178   90   92 1    
   179   90  211 1    
   180   91  212 1    
   181   91  213 1    
   182   91  214 1    
   183   92   93 2    
   184   92   94 am   BACKBONE|DICT|INTERRES
   185   94   95 1    
   186   94  215 1    
   187   95   96 1    
   188   95   97 1    
   189   95  216 1    
   190   96  217 1    
   191   96  218 1    
   192   96  219 1    
   193   97   98 2    
   194   97   99 am   BACKBONE|DICT|INTERRES
   195   99  100 1    
   196   99  220 1    
   197  100  101 1    
   198  100  102 1    
   199  100  221 1    
   200  101  222 1    
   201  101  223 1    
   202  101  224 1    
   203  102  103 2    
   204  102  104 am   BACKBONE|DICT|INTERRES
   205  104  105 1    
   206  104  225 1    
   207  105  106 1    
   208  105  107 1    
   209  105  226 1    
   210  106  227 1    
   211  106  228 1    
   212  106  229 1    
   213  107  108 2    
   214  107  109 am   BACKBONE|DICT|INTERRES
   215  109  110 1    
   216  109  230 1    
   217  110  111 1    
   218  110  112 1    
   219  110  231 1    
   220  111  232 1    
   221  111  233 1    
   222  111  234 1    
   223  112  113 2    
   224  112  114 am   BACKBONE|DICT|INTERRES
   225  114  115 1    
   226  114  235 1    
   227  115  116 1    
   228  115  117 1    
   229  115  236 1    
   230  116  237 1    
   231  116  238 1    
   232  116  239 1    
   233  117  118 2    
   234  117  119 am   BACKBONE|DICT|INTERRES
   235  119  120 1    
   236  119  240 1    
   237  120  121 1    
   238  120  124 1    
   239  120  241 1    
   240  121  122 am   BACKBONE|DICT|INTERRES
   241  121  123 2    
   242  122  242 1    
   243  122  243 1    
   244  124  125 1    
   245  124  244 1    
   246  124  245 1    
   247  125  126 1    
   248  126  246 1    
   249  126  247 1    
@<TRIPOS>SUBSTRUCTURE
     1 UNK         1 GROUP             0       ****    0 ROOT    
