@<TRIPOS>MOLECULE
3R540
247   249    1
SMALL
USER_CHARGES


@<TRIPOS>ATOM
      1 CA          5.9405  -17.1422  -46.1244 C.3       0 UNK        -0.1800 
      2 C           5.7023  -17.0282  -47.6294 C.2       0 UNK         0.5000 
      3 O           6.2991  -17.7851  -48.3924 O.2       0 UNK        -0.5000 
      4 N           4.8379  -16.1217  -48.1053 N.am      1 UNK        -0.5000 
      5 CA          4.1191  -15.0954  -47.3419 C.3       1 UNK         0.1400 
      6 C6          2.9405  -14.4962  -48.1499 C.3       23 UNK        -0.0398 
      7 S7          1.7105  -15.7548  -48.6318 S.3       23 UNK        -0.2404 
      8 C8          0.4547  -14.7144  -49.4284 C.3       23 UNK        -0.0205 
      9 C9         -0.7280  -15.5389  -49.9147 C.ar      23 UNK        -0.0193 
     10 C10        -0.7035  -16.1301  -51.1818 C.ar      23 UNK        -0.1150 
     11 C11        -1.8080  -16.8461  -51.6553 C.ar      23 UNK        -0.0193 
     12 C12        -2.9464  -16.9593  -50.8519 C.ar      23 UNK        -0.1150 
     13 C13        -2.9752  -16.3941  -49.5735 C.ar      23 UNK        -0.0193 
     14 C14        -1.8612  -15.6870  -49.1097 C.ar      23 UNK        -0.1150 
     15 C15        -4.2229  -16.5152  -48.7081 C.3       23 UNK        -0.0205 
     16 S16        -4.5077  -18.2122  -48.1065 S.3       23 UNK        -0.2404 
     17 C17        -3.0461  -18.5037  -47.0540 C.3       23 UNK        -0.0398 
     18 CA         -2.1267  -19.6268  -47.5952 C.3       11 UNK         0.1400 
     19 N          -0.7703  -19.5378  -47.0486 N.am      11 UNK        -0.5000 
     20 C           0.2677  -20.2905  -47.4390 C.2       10 UNK         0.5000 
     21 O           0.2085  -21.1099  -48.3526 O.2       10 UNK        -0.5000 
     22 CA          1.5757  -20.1644  -46.6395 C.3       10 UNK         0.1400 
     23 CB          2.4001  -18.9591  -47.1055 C.3       10 UNK        -0.1800 
     24 N           1.3490  -20.0789  -45.1984 N.am      10 UNK        -0.5000 
     25 C           0.8132  -21.0556  -44.4544 C.2       9 UNK         0.5000 
     26 O           0.4928  -22.1570  -44.9020 O.2       9 UNK        -0.5000 
     27 CA          0.5522  -20.7317  -42.9719 C.3       9 UNK         0.1400 
     28 CB          1.8476  -20.8281  -42.1524 C.3       9 UNK        -0.1800 
     29 N          -0.0541  -19.4130  -42.7803 N.am      9 UNK        -0.5000 
     30 C          -1.2644  -19.0621  -43.2393 C.2       8 UNK         0.5000 
     31 O          -2.0155  -19.8260  -43.8469 O.2       8 UNK        -0.5000 
     32 CA         -1.6876  -17.5968  -43.0292 C.3       8 UNK         0.1400 
     33 CB         -2.1607  -17.3632  -41.5869 C.3       8 UNK        -0.1800 
     34 N          -0.6236  -16.6487  -43.3658 N.am      8 UNK        -0.5000 
     35 C          -0.0938  -16.5195  -44.5905 C.2       7 UNK         0.5000 
     36 O          -0.4784  -17.1552  -45.5679 O.2       7 UNK        -0.5000 
     37 CA          1.1026  -15.5708  -44.7501 C.3       7 UNK         0.1400 
     38 CB          0.6490  -14.1085  -44.8606 C.3       7 UNK        -0.1800 
     39 N           2.0764  -15.7101  -43.6715 N.am      7 UNK        -0.5000 
     40 C           2.7749  -16.8209  -43.4023 C.2       6 UNK         0.5000 
     41 O           2.7258  -17.8432  -44.0824 O.2       6 UNK        -0.5000 
     42 CA          3.6398  -16.7965  -42.1328 C.3       6 UNK         0.1400 
     43 CB          4.9738  -16.0780  -42.3895 C.3       6 UNK        -0.1800 
     44 N           2.9415  -16.1602  -41.0162 N.am      6 UNK        -0.5000 
     45 C           1.8768  -16.6832  -40.3918 C.2       5 UNK         0.5000 
     46 O           1.3869  -17.7774  -40.6737 O.2       5 UNK        -0.5000 
     47 CA          1.2338  -15.8197  -39.2906 C.3       5 UNK         0.1400 
     48 CB          1.9917  -15.9801  -37.9643 C.3       5 UNK        -0.1800 
     49 N           1.1752  -14.4006  -39.6484 N.am      5 UNK        -0.5000 
     50 C           0.3911  -13.9017  -40.6140 C.2       4 UNK         0.5000 
     51 O          -0.3763  -14.5852  -41.2910 O.2       4 UNK        -0.5000 
     52 CA          0.5222  -12.3939  -40.9080 C.3       4 UNK         0.1400 
     53 CB         -0.3234  -11.5761  -39.9203 C.3       4 UNK        -0.1800 
     54 N           1.9013  -11.8890  -40.9038 N.am      4 UNK        -0.5000 
     55 C           2.8967  -12.3779  -41.6550 C.2       3 UNK         0.5000 
     56 O           2.7823  -13.3817  -42.3600 O.2       3 UNK        -0.5000 
     57 CA          4.2544  -11.6511  -41.5848 C.3       3 UNK         0.1400 
     58 CB          4.9789  -12.0024  -40.2758 C.3       3 UNK        -0.1800 
     59 N           5.1198  -12.0227  -42.7076 N.am      3 UNK        -0.5000 
     60 C           4.8736  -11.7448  -43.9951 C.2       2 UNK         0.5000 
     61 O           3.9724  -10.9950  -44.3744 O.2       2 UNK        -0.5000 
     62 CA          5.7381  -12.4608  -45.0431 C.3       2 UNK         0.1400 
     63 CB          7.0375  -13.0842  -44.4861 C.3       2 UNK        -0.1800 
     64 N           4.9119  -13.4951  -45.6600 N.am      2 UNK        -0.5000 
     65 C           5.0883  -13.9817  -46.8926 C.2       1 UNK         0.5000 
     66 O           5.9680  -13.5909  -47.6636 O.2       1 UNK        -0.5000 
     67 C          -2.7350  -21.0262  -47.3610 C.2       11 UNK         0.5000 
     68 O          -3.2279  -21.6425  -48.3052 O.2       11 UNK        -0.5000 
     69 N          -2.6385  -21.5403  -46.1267 N.am      12 UNK        -0.5000 
     70 CA         -3.1049  -22.8799  -45.7595 C.3       12 UNK         0.1400 
     71 CB         -2.9376  -23.0848  -44.2465 C.3       12 UNK        -0.1800 
     72 C          -2.4115  -24.0098  -46.5477 C.2       12 UNK         0.5000 
     73 O          -3.0641  -24.9973  -46.8867 O.2       12 UNK        -0.5000 
     74 N          -1.1174  -23.8332  -46.8410 N.am      13 UNK        -0.5000 
     75 CA         -0.3134  -24.7607  -47.6290 C.3       13 UNK         0.1400 
     76 CB          1.1745  -24.5356  -47.3123 C.3       13 UNK        -0.1800 
     77 C          -0.5798  -24.6500  -49.1426 C.2       13 UNK         0.5000 
     78 O          -0.9185  -25.6533  -49.7716 O.2       13 UNK        -0.5000 
     79 N          -0.3717  -23.4542  -49.7092 N.am      14 UNK        -0.5000 
     80 CA         -0.3005  -23.2334  -51.1541 C.3       14 UNK         0.1400 
     81 CB          0.7298  -22.1317  -51.4474 C.3       14 UNK        -0.1800 
     82 C          -1.6490  -22.8725  -51.7908 C.2       14 UNK         0.5000 
     83 O          -1.8768  -23.2398  -52.9442 O.2       14 UNK        -0.5000 
     84 N          -2.5140  -22.1517  -51.0656 N.am      15 UNK        -0.5000 
     85 CA         -3.8377  -21.7740  -51.5587 C.3       15 UNK         0.1400 
     86 CB         -4.2644  -20.4086  -51.0083 C.3       15 UNK        -0.1800 
     87 C          -4.8714  -22.8548  -51.2316 C.2       15 UNK         0.5000 
     88 O          -5.7176  -23.1450  -52.0791 O.2       15 UNK        -0.5000 
     89 N          -4.7708  -23.4297  -50.0243 N.am      16 UNK        -0.5000 
     90 CA         -5.5854  -24.5280  -49.4961 C.3       16 UNK         0.1400 
     91 CB         -5.2629  -25.8357  -50.2492 C.3       16 UNK        -0.1800 
     92 C          -7.0880  -24.1839  -49.5002 C.2       16 UNK         0.5000 
     93 O          -7.8925  -24.9192  -50.0719 O.2       16 UNK        -0.5000 
     94 N          -7.4235  -23.0207  -48.9204 N.am      17 UNK        -0.5000 
     95 CA         -8.7594  -22.4043  -48.9064 C.3       17 UNK         0.1400 
     96 CB         -9.7478  -23.2454  -48.0713 C.3       17 UNK        -0.1800 
     97 C          -9.2829  -22.0856  -50.3262 C.2       17 UNK         0.5000 
     98 O         -10.4787  -22.2094  -50.5946 O.2       17 UNK        -0.5000 
     99 N          -8.3503  -21.6923  -51.2060 N.am      18 UNK        -0.5000 
    100 CA        -8.5147  -21.3771  -52.6284 C.3       18 UNK         0.1400 
    101 CB        -9.4891  -20.1993  -52.8370 C.3       18 UNK        -0.1800 
    102 C         -8.8452  -22.5950  -53.5190 C.2       18 UNK         0.5000 
    103 O         -9.2705  -22.4053  -54.6595 O.2       18 UNK        -0.5000 
    104 N         -8.6140  -23.8194  -53.0211 N.am      19 UNK        -0.5000 
    105 CA        -8.7324  -25.0520  -53.8037 C.3       19 UNK         0.1400 
    106 CB        -8.8358  -26.2600  -52.8612 C.3       19 UNK        -0.1800 
    107 C         -7.5541  -25.2291  -54.7794 C.2       19 UNK         0.5000 
    108 O         -7.7619  -25.6840  -55.9049 O.2       19 UNK        -0.5000 
    109 N         -6.3482  -24.8538  -54.3335 N.am      20 UNK        -0.5000 
    110 CA        -5.1220  -24.8480  -55.1331 C.3       20 UNK         0.1400 
    111 CB        -3.9783  -25.4308  -54.2905 C.3       20 UNK        -0.1800 
    112 C         -4.7792  -23.4290  -55.6230 C.2       20 UNK         0.5000 
    113 O         -4.1818  -23.2834  -56.6907 O.2       20 UNK        -0.5000 
    114 N         -5.1747  -22.4120  -54.8405 N.am      21 UNK        -0.5000 
    115 CA        -5.1094  -20.9721  -55.1277 C.3       21 UNK         0.1400 
    116 CB        -6.1597  -20.6090  -56.1966 C.3       21 UNK        -0.1800 
    117 C         -3.7009  -20.4360  -55.4768 C.2       21 UNK         0.5000 
    118 O         -3.5906  -19.4450  -56.2003 O.2       21 UNK        -0.5000 
    119 N         -2.6539  -21.0980  -54.9642 N.am      22 UNK        -0.5000 
    120 CA        -1.2332  -20.8373  -55.2512 C.3       22 UNK         0.1400 
    121 C         -0.8073  -21.1834  -56.7125 C.2       22 UNK         0.5000 
    122 N         -1.5786  -21.9622  -57.4644 N.am      22 UNK        -0.7600 
    123 O          0.2551  -20.7690  -57.1687 O.2       22 UNK        -0.5000 
    124 C124       -0.7476  -19.4312  -54.7926 C.3       23 UNK        -0.0398 
    125 S125       -1.0028  -19.1219  -53.0086 S.3       23 UNK        -0.2404 
    126 C126       -1.7741  -17.4740  -53.0417 C.3       23 UNK        -0.0205 
    127 H127        6.4645  -16.2661  -45.7432 H         1 UNK         0.0600 
    128 H128        6.5521  -18.0166  -45.9015 H         1 UNK         0.0600 
    129 H129        5.0010  -17.2572  -45.5858 H         1 UNK         0.0600 
    130 H130        4.7011  -16.0738  -49.1041 H         1 UNK         0.3000 
    131 H131        3.7080  -15.5677  -46.4498 H         1 UNK         0.0600 
    132 H132        2.4281  -13.7310  -47.5638 H         1 UNK         0.0800 
    133 H133        3.3038  -14.0024  -49.0533 H         1 UNK         0.0800 
    134 H134        0.9046  -14.1813  -50.2674 H         1 UNK         0.0800 
    135 H135        0.1159  -13.9528  -48.7242 H         1 UNK         0.0800 
    136 H136        0.1750  -16.0276  -51.8034 H         1 UNK         0.1150 
    137 H137       -3.8137  -17.4890  -51.2187 H         1 UNK         0.1150 
    138 H138       -1.8793  -15.2379  -48.1265 H         1 UNK         0.1150 
    139 H139       -4.1708  -15.8379  -47.8541 H         1 UNK         0.0800 
    140 H140       -5.0898  -16.2011  -49.2909 H         1 UNK         0.0800 
    141 H141       -3.3733  -18.7120  -46.0341 H         1 UNK         0.0800 
    142 H142       -2.4916  -17.5690  -46.9970 H         1 UNK         0.0800 
    143 H143       -2.0282  -19.4891  -48.6746 H         1 UNK         0.0600 
    144 H144       -0.6210  -18.8340  -46.3291 H         1 UNK         0.3000 
    145 H145        2.1631  -21.0648  -46.8308 H         1 UNK         0.0600 
    146 H146        3.3900  -18.9630  -46.6502 H         1 UNK         0.0600 
    147 H147        2.5371  -18.9643  -48.1876 H         1 UNK         0.0600 
    148 H148        1.9144  -18.0224  -46.8361 H         1 UNK         0.0600 
    149 H149        1.6364  -19.2144  -44.7460 H         1 UNK         0.3000 
    150 H150       -0.1471  -21.4778  -42.5889 H         1 UNK         0.0600 
    151 H151        2.3082  -21.8104  -42.2638 H         1 UNK         0.0600 
    152 H152        1.6532  -20.6776  -41.0904 H         1 UNK         0.0600 
    153 H153        2.5800  -20.0836  -42.4656 H         1 UNK         0.0600 
    154 H154        0.4916  -18.7312  -42.2634 H         1 UNK         0.3000 
    155 H155       -2.5296  -17.3989  -43.6958 H         1 UNK         0.0600 
    156 H156       -1.3511  -17.4964  -40.8691 H         1 UNK         0.0600 
    157 H157       -2.9564  -18.0594  -41.3189 H         1 UNK         0.0600 
    158 H158       -2.5556  -16.3550  -41.4613 H         1 UNK         0.0600 
    159 H159       -0.2914  -16.0498  -42.6161 H         1 UNK         0.3000 
    160 H160        1.5987  -15.8416  -45.6806 H         1 UNK         0.0600 
    161 H161        0.1439  -13.7749  -43.9540 H         1 UNK         0.0600 
    162 H162       -0.0443  -13.9784  -45.6926 H         1 UNK         0.0600 
    163 H163        1.4954  -13.4436  -45.0340 H         1 UNK         0.0600 
    164 H164        2.2102  -14.8975  -43.0708 H         1 UNK         0.3000 
    165 H165        3.8574  -17.8299  -41.8546 H         1 UNK         0.0600 
    166 H166        5.5980  -16.0745  -41.4959 H         1 UNK         0.0600 
    167 H167        5.5394  -16.5774  -43.1765 H         1 UNK         0.0600 
    168 H168        4.8266  -15.0437  -42.6988 H         1 UNK         0.0600 
    169 H169        3.2348  -15.2265  -40.7707 H         1 UNK         0.3000 
    170 H170        0.2122  -16.1769  -39.1434 H         1 UNK         0.0600 
    171 H171        2.0370  -17.0284  -37.6657 H         1 UNK         0.0600 
    172 H172        3.0168  -15.6147  -38.0372 H         1 UNK         0.0600 
    173 H173        1.4973  -15.4354  -37.1598 H         1 UNK         0.0600 
    174 H174        1.7832  -13.7716  -39.1450 H         1 UNK         0.3000 
    175 H175        0.1231  -12.2269  -41.9104 H         1 UNK         0.0600 
    176 H176        0.0552  -11.6584  -38.9008 H         1 UNK         0.0600 
    177 H177       -0.3350  -10.5201  -40.1904 H         1 UNK         0.0600 
    178 H178       -1.3590  -11.9193  -39.9148 H         1 UNK         0.0600 
    179 H179        2.0763  -11.0735  -40.3345 H         1 UNK         0.3000 
    180 H180        4.0766  -10.5745  -41.6222 H         1 UNK         0.0600 
    181 H181        5.1690  -13.0737  -40.1955 H         1 UNK         0.0600 
    182 H182        4.3903  -11.7074  -39.4063 H         1 UNK         0.0600 
    183 H183        5.9366  -11.4863  -40.2052 H         1 UNK         0.0600 
    184 H184        5.8716  -12.6609  -42.4953 H         1 UNK         0.3000 
    185 H185        6.0053  -11.7117  -45.7916 H         1 UNK         0.0600 
    186 H186        7.6380  -12.3410  -43.9600 H         1 UNK         0.0600 
    187 H187        6.8377  -13.9066  -43.7986 H         1 UNK         0.0600 
    188 H188        7.6562  -13.4783  -45.2925 H         1 UNK         0.0600 
    189 H189        4.1358  -13.8128  -45.0950 H         1 UNK         0.3000 
    190 H190       -2.2364  -20.9761  -45.3825 H         1 UNK         0.3000 
    191 H191       -4.1709  -22.9285  -45.9907 H         1 UNK         0.0600 
    192 H192       -1.8924  -23.0197  -43.9442 H         1 UNK         0.0600 
    193 H193       -3.3078  -24.0643  -43.9414 H         1 UNK         0.0600 
    194 H194       -3.4950  -22.3360  -43.6835 H         1 UNK         0.0600 
    195 H195       -0.6466  -23.0122  -46.4775 H         1 UNK         0.3000 
    196 H196       -0.5628  -25.7791  -47.3231 H         1 UNK         0.0600 
    197 H197        1.8047  -25.2147  -47.8880 H         1 UNK         0.0600 
    198 H198        1.3818  -24.7145  -46.2571 H         1 UNK         0.0600 
    199 H199        1.4902  -23.5176  -47.5430 H         1 UNK         0.0600 
    200 H200       -0.1316  -22.6548  -49.1228 H         1 UNK         0.3000 
    201 H201        0.0536  -24.1467  -51.6373 H         1 UNK         0.0600 
    202 H202        1.7072  -22.3841  -51.0362 H         1 UNK         0.0600 
    203 H203        0.4260  -21.1728  -51.0257 H         1 UNK         0.0600 
    204 H204        0.8542  -21.9890  -52.5215 H         1 UNK         0.0600 
    205 H205       -2.2989  -21.9171  -50.1035 H         1 UNK         0.3000 
    206 H206       -3.7916  -21.6695  -52.6384 H         1 UNK         0.0600 
    207 H207       -3.4185  -19.7242  -50.9750 H         1 UNK         0.0600 
    208 H208       -5.0301  -19.9582  -51.6404 H         1 UNK         0.0600 
    209 H209       -4.6815  -20.4764  -50.0049 H         1 UNK         0.0600 
    210 H210       -4.0774  -23.0462  -49.3884 H         1 UNK         0.3000 
    211 H211       -5.2986  -24.6633  -48.4528 H         1 UNK         0.0600 
    212 H212       -5.5431  -25.7812  -51.3016 H         1 UNK         0.0600 
    213 H213       -5.7966  -26.6799  -49.8115 H         1 UNK         0.0600 
    214 H214       -4.1977  -26.0629  -50.1986 H         1 UNK         0.0600 
    215 H215       -6.6860  -22.4766  -48.4944 H         1 UNK         0.3000 
    216 H216       -8.6463  -21.4418  -48.4056 H         1 UNK         0.0600 
    217 H217      -10.6936  -22.7187  -47.9392 H         1 UNK         0.0600 
    218 H218       -9.3500  -23.4491  -47.0772 H         1 UNK         0.0600 
    219 H219       -9.9715  -24.2012  -48.5458 H         1 UNK         0.0600 
    220 H220       -7.3961  -21.6773  -50.8776 H         1 UNK         0.3000 
    221 H221       -7.5333  -21.0382  -52.9615 H         1 UNK         0.0600 
    222 H222      -10.5188  -20.4792  -52.6144 H         1 UNK         0.0600 
    223 H223       -9.2257  -19.3520  -52.2040 H         1 UNK         0.0600 
    224 H224       -9.4643  -19.8496  -53.8697 H         1 UNK         0.0600 
    225 H225       -8.2665  -23.9109  -52.0742 H         1 UNK         0.3000 
    226 H226       -9.6530  -25.0042  -54.3893 H         1 UNK         0.0600 
    227 H227       -9.6570  -26.1413  -52.1540 H         1 UNK         0.0600 
    228 H228       -9.0184  -27.1765  -53.4234 H         1 UNK         0.0600 
    229 H229       -7.9188  -26.4058  -52.2895 H         1 UNK         0.0600 
    230 H230       -6.2774  -24.4619  -53.3997 H         1 UNK         0.3000 
    231 H231       -5.2404  -25.4773  -56.0175 H         1 UNK         0.0600 
    232 H232       -4.1536  -26.4836  -54.0696 H         1 UNK         0.0600 
    233 H233       -3.8711  -24.9089  -53.3400 H         1 UNK         0.0600 
    234 H234       -3.0245  -25.3614  -54.8153 H         1 UNK         0.0600 
    235 H235       -5.5972  -22.6606  -53.9528 H         1 UNK         0.3000 
    236 H236       -5.3957  -20.4653  -54.2056 H         1 UNK         0.0600 
    237 H237       -5.9113  -21.0422  -57.1661 H         1 UNK         0.0600 
    238 H238       -7.1500  -20.9666  -55.9146 H         1 UNK         0.0600 
    239 H239       -6.2342  -19.5290  -56.3281 H         1 UNK         0.0600 
    240 H240       -2.8191  -21.9171  -54.3929 H         1 UNK         0.3000 
    241 H241       -0.6866  -21.5618  -54.6480 H         1 UNK         0.0600 
    242 H242       -1.2870  -22.1870  -58.4023 H         1 UNK         0.3800 
    243 H243       -2.4568  -22.3304  -57.1130 H         1 UNK         0.3800 
    244 H244       -1.2310  -18.6512  -55.3813 H         1 UNK         0.0800 
    245 H245        0.3220  -19.3219  -54.9780 H         1 UNK         0.0800 
    246 H246       -2.7826  -17.5574  -53.4501 H         1 UNK         0.0800 
    247 H247       -1.2181  -16.8245  -53.7195 H         1 UNK         0.0800 
@<TRIPOS>BOND
     1    1    2 1    
     2    1  127 1    
     3    1  128 1    
     4    1  129 1    
     5    2    3 2    
     6    2    4 am   BACKBONE|DICT|INTERRES
     7    4    5 1    
     8    4  130 1    
     9    5    6 1    
    10    5   65 1    
    11    5  131 1    
    12    6    7 1    
    13    6  132 1    
    14    6  133 1    
    15    7    8 1    
    16    8    9 1    
    17    8  134 1    
    18    8  135 1    
    19    9   10 ar   
    20    9   14 ar   
    21   10   11 ar   
    22   10  136 1    
    23   11   12 ar   
    24   11  126 1    
    25   12   13 ar   
    26   12  137 1    
    27   13   14 ar   
    28   13   15 1    
    29   14  138 1    
    30   15   16 1    
    31   15  139 1    
    32   15  140 1    
    33   16   17 1    
    34   17   18 1    
    35   17  141 1    
    36   17  142 1    
    37   18   19 1    
    38   18   67 1    
    39   18  143 1    
    40   19   20 am   BACKBONE|DICT|INTERRES
    41   19  144 1    
    42   20   21 2    
    43   20   22 1    
    44   22   23 1    
    45   22   24 1    
    46   22  145 1    
    47   23  146 1    
    48   23  147 1    
    49   23  148 1    
    50   24   25 am   BACKBONE|DICT|INTERRES
    51   24  149 1    
    52   25   26 2    
    53   25   27 1    
    54   27   28 1    
    55   27   29 1    
    56   27  150 1    
    57   28  151 1    
    58   28  152 1    
    59   28  153 1    
    60   29   30 am   BACKBONE|DICT|INTERRES
    61   29  154 1    
    62   30   31 2    
    63   30   32 1    
    64   32   33 1    
    65   32   34 1    
    66   32  155 1    
    67   33  156 1    
    68   33  157 1    
    69   33  158 1    
    70   34   35 am   BACKBONE|DICT|INTERRES
    71   34  159 1    
    72   35   36 2    
    73   35   37 1    
    74   37   38 1    
    75   37   39 1    
    76   37  160 1    
    77   38  161 1    
    78   38  162 1    
    79   38  163 1    
    80   39   40 am   BACKBONE|DICT|INTERRES
    81   39  164 1    
    82   40   41 2    
    83   40   42 1    
    84   42   43 1    
    85   42   44 1    
    86   42  165 1    
    87   43  166 1    
    88   43  167 1    
    89   43  168 1    
    90   44   45 am   BACKBONE|DICT|INTERRES
    91   44  169 1    
    92   45   46 2    
    93   45   47 1    
    94   47   48 1    
    95   47   49 1    
    96   47  170 1    
    97   48  171 1    
    98   48  172 1    
    99   48  173 1    
   100   49   50 am   BACKBONE|DICT|INTERRES
   101   49  174 1    
   102   50   51 2    
   103   50   52 1    
   104   52   53 1    
   105   52   54 1    
   106   52  175 1    
   107   53  176 1    
   108   53  177 1    
   109   53  178 1    
   110   54   55 am   BACKBONE|DICT|INTERRES
   111   54  179 1    
   112   55   56 2    
   113   55   57 1    
   114   57   58 1    
   115   57   59 1    
   116   57  180 1    
   117   58  181 1    
   118   58  182 1    
   119   58  183 1    
   120   59   60 am   BACKBONE|DICT|INTERRES
   121   59  184 1    
   122   60   61 2    
   123   60   62 1    
   124   62   63 1    
   125   62   64 1    
   126   62  185 1    
   127   63  186 1    
   128   63  187 1    
   129   63  188 1    
   130   64   65 am   BACKBONE|DICT|INTERRES
   131   64  189 1    
   132   65   66 2    
   133   67   68 2    
   134   67   69 am   BACKBONE|DICT|INTERRES
   135   69   70 1    
   136   69  190 1    
   137   70   71 1    
   138   70   72 1    
   139   70  191 1    
   140   71  192 1    
   141   71  193 1    
   142   71  194 1    
   143   72   73 2    
   144   72   74 am   BACKBONE|DICT|INTERRES
   145   74   75 1    
   146   74  195 1    
   147   75   76 1    
   148   75   77 1    
   149   75  196 1    
   150   76  197 1    
   151   76  198 1    
   152   76  199 1    
   153   77   78 2    
   154   77   79 am   BACKBONE|DICT|INTERRES
   155   79   80 1    
   156   79  200 1    
   157   80   81 1    
   158   80   82 1    
   159   80  201 1    
   160   81  202 1    
   161   81  203 1    
   162   81  204 1    
   163   82   83 2    
   164   82   84 am   BACKBONE|DICT|INTERRES
   165   84   85 1    
   166   84  205 1    
   167   85   86 1    
   168   85   87 1    
   169   85  206 1    
   170   86  207 1    
   171   86  208 1    
   172   86  209 1    
   173   87   88 2    
   174   87   89 am   BACKBONE|DICT|INTERRES
   175   89   90 1    
   176   89  210 1    
   177   90   91 1    
   178   90   92 1    
   179   90  211 1    
   180   91  212 1    
   181   91  213 1    
   182   91  214 1    
   183   92   93 2    
   184   92   94 am   BACKBONE|DICT|INTERRES
   185   94   95 1    
   186   94  215 1    
   187   95   96 1    
   188   95   97 1    
   189   95  216 1    
   190   96  217 1    
   191   96  218 1    
   192   96  219 1    
   193   97   98 2    
   194   97   99 am   BACKBONE|DICT|INTERRES
   195   99  100 1    
   196   99  220 1    
   197  100  101 1    
   198  100  102 1    
   199  100  221 1    
   200  101  222 1    
   201  101  223 1    
   202  101  224 1    
   203  102  103 2    
   204  102  104 am   BACKBONE|DICT|INTERRES
   205  104  105 1    
   206  104  225 1    
   207  105  106 1    
   208  105  107 1    
   209  105  226 1    
   210  106  227 1    
   211  106  228 1    
   212  106  229 1    
   213  107  108 2    
   214  107  109 am   BACKBONE|DICT|INTERRES
   215  109  110 1    
   216  109  230 1    
   217  110  111 1    
   218  110  112 1    
   219  110  231 1    
   220  111  232 1    
   221  111  233 1    
   222  111  234 1    
   223  112  113 2    
   224  112  114 am   BACKBONE|DICT|INTERRES
   225  114  115 1    
   226  114  235 1    
   227  115  116 1    
   228  115  117 1    
   229  115  236 1    
   230  116  237 1    
   231  116  238 1    
   232  116  239 1    
   233  117  118 2    
   234  117  119 am   BACKBONE|DICT|INTERRES
   235  119  120 1    
   236  119  240 1    
   237  120  121 1    
   238  120  124 1    
   239  120  241 1    
   240  121  122 am   BACKBONE|DICT|INTERRES
   241  121  123 2    
   242  122  242 1    
   243  122  243 1    
   244  124  125 1    
   245  124  244 1    
   246  124  245 1    
   247  125  126 1    
   248  126  246 1    
   249  126  247 1    
@<TRIPOS>SUBSTRUCTURE
     1 UNK         1 GROUP             0       ****    0 ROOT    
