@<TRIPOS>MOLECULE
3R540
247   249    1
SMALL
USER_CHARGES


@<TRIPOS>ATOM
      1 CA          0.3199  -10.8542  -46.3356 C.3       0 UNK        -0.1800 
      2 C           0.2133  -12.2527  -46.9268 C.2       0 UNK         0.5000 
      3 O           1.1963  -12.7738  -47.4526 O.2       0 UNK        -0.5000 
      4 N          -0.9726  -12.8613  -46.8408 N.am      1 UNK        -0.5000 
      5 CA         -1.2635  -14.2153  -47.3001 C.3       1 UNK         0.1400 
      6 C6         -1.4908  -14.2811  -48.8324 C.3       23 UNK        -0.0398 
      7 S7         -0.9454  -15.8728  -49.5295 S.3       23 UNK        -0.2404 
      8 C8          0.6262  -15.3731  -50.2967 C.3       23 UNK        -0.0205 
      9 C9          1.2974  -16.5407  -51.0004 C.ar      23 UNK        -0.0193 
     10 C10         0.7609  -17.0373  -52.1911 C.ar      23 UNK        -0.1150 
     11 C11         1.3632  -18.1124  -52.8497 C.ar      23 UNK        -0.0193 
     12 C12         2.5236  -18.6802  -52.3157 C.ar      23 UNK        -0.1150 
     13 C13         3.0779  -18.1839  -51.1311 C.ar      23 UNK        -0.0193 
     14 C14         2.4557  -17.1184  -50.4732 C.ar      23 UNK        -0.1150 
     15 C15         4.3636  -18.7826  -50.5801 C.3       23 UNK        -0.0205 
     16 S16         4.1206  -20.4565  -49.9105 S.3       23 UNK        -0.2404 
     17 C17         3.2684  -20.1152  -48.3340 C.3       23 UNK        -0.0398 
     18 CA          2.3441  -21.2847  -47.9130 C.3       11 UNK         0.1400 
     19 N           2.2098  -21.3848  -46.4570 N.am      11 UNK        -0.5000 
     20 C           1.7282  -22.4589  -45.8144 C.2       10 UNK         0.5000 
     21 O           1.3879  -23.4997  -46.3769 O.2       10 UNK        -0.5000 
     22 CA          1.5721  -22.3448  -44.2873 C.3       10 UNK         0.1400 
     23 CB          2.8998  -22.6543  -43.5797 C.3       10 UNK        -0.1800 
     24 N           1.0789  -21.0342  -43.8623 N.am      10 UNK        -0.5000 
     25 C          -0.1282  -20.5404  -44.1740 C.2       9 UNK         0.5000 
     26 O          -0.9689  -21.1564  -44.8280 O.2       9 UNK        -0.5000 
     27 CA         -0.4277  -19.1013  -43.7206 C.3       9 UNK         0.1400 
     28 CB         -0.7793  -19.0638  -42.2256 C.3       9 UNK        -0.1800 
     29 N           0.6880  -18.1947  -43.9846 N.am      9 UNK        -0.5000 
     30 C           1.1712  -17.8949  -45.1976 C.2       8 UNK         0.5000 
     31 O           0.6803  -18.3004  -46.2501 O.2       8 UNK        -0.5000 
     32 CA          2.4528  -17.0448  -45.2364 C.3       8 UNK         0.1400 
     33 CB          2.1346  -15.5478  -45.1118 C.3       8 UNK        -0.1800 
     34 N           3.3925  -17.4306  -44.1842 N.am      8 UNK        -0.5000 
     35 C           4.0703  -18.5860  -44.1600 C.2       7 UNK         0.5000 
     36 O           3.9906  -19.4426  -45.0401 O.2       7 UNK        -0.5000 
     37 CA          4.9542  -18.8393  -42.9251 C.3       7 UNK         0.1400 
     38 CB          6.3065  -18.1256  -43.0699 C.3       7 UNK        -0.1800 
     39 N           4.3110  -18.4158  -41.6798 N.am      7 UNK        -0.5000 
     40 C           3.2312  -19.0099  -41.1533 C.2       6 UNK         0.5000 
     41 O           2.6871  -19.9965  -41.6477 O.2       6 UNK        -0.5000 
     42 CA          2.6291  -18.3675  -39.8889 C.3       6 UNK         0.1400 
     43 CB          3.3430  -18.8838  -38.6307 C.3       6 UNK        -0.1800 
     44 N           2.6466  -16.9001  -39.8910 N.am      6 UNK        -0.5000 
     45 C           2.0722  -16.1286  -40.8234 C.2       5 UNK         0.5000 
     46 O           1.5433  -16.5724  -41.8436 O.2       5 UNK        -0.5000 
     47 CA          2.1435  -14.6061  -40.6024 C.3       5 UNK         0.1400 
     48 CB          3.4939  -14.0651  -41.0979 C.3       5 UNK        -0.1800 
     49 N           1.0719  -13.8928  -41.3015 N.am      5 UNK        -0.5000 
     50 C          -0.2379  -14.0184  -41.0480 C.2       4 UNK         0.5000 
     51 O          -0.6897  -14.6935  -40.1194 O.2       4 UNK        -0.5000 
     52 CA         -1.2077  -13.2535  -41.9682 C.3       4 UNK         0.1400 
     53 CB         -0.6196  -12.8862  -43.3468 C.3       4 UNK        -0.1800 
     54 N          -2.4161  -14.0488  -42.1558 N.am      4 UNK        -0.5000 
     55 C          -3.6557  -13.5735  -42.3019 C.2       3 UNK         0.5000 
     56 O          -3.9312  -12.3718  -42.2942 O.2       3 UNK        -0.5000 
     57 CA         -4.7611  -14.6283  -42.5259 C.3       3 UNK         0.1400 
     58 CB         -6.1772  -14.0268  -42.4779 C.3       3 UNK        -0.1800 
     59 N          -4.5850  -15.3061  -43.8105 N.am      3 UNK        -0.5000 
     60 C          -3.6913  -16.2692  -44.0650 C.2       2 UNK         0.5000 
     61 O          -2.9519  -16.7499  -43.2068 O.2       2 UNK        -0.5000 
     62 CA         -3.5714  -16.7606  -45.5206 C.3       2 UNK         0.1400 
     63 CB         -4.9082  -16.7549  -46.2937 C.3       2 UNK        -0.1800 
     64 N          -2.5301  -16.0380  -46.2599 N.am      2 UNK        -0.5000 
     65 C          -2.4802  -14.7215  -46.5103 C.2       1 UNK         0.5000 
     66 O          -3.3436  -13.9120  -46.1606 O.2       1 UNK        -0.5000 
     67 C           0.9728  -21.2228  -48.6210 C.2       11 UNK         0.5000 
     68 O           0.8118  -21.8319  -49.6781 O.2       11 UNK        -0.5000 
     69 N           0.0063  -20.5153  -48.0176 N.am      12 UNK        -0.5000 
     70 CA         -1.3674  -20.4114  -48.5083 C.3       12 UNK         0.1400 
     71 CB         -2.0737  -19.2466  -47.8036 C.3       12 UNK        -0.1800 
     72 C          -2.1816  -21.7039  -48.3344 C.2       12 UNK         0.5000 
     73 O          -3.0190  -22.0031  -49.1875 O.2       12 UNK        -0.5000 
     74 N          -1.9087  -22.4377  -47.2477 N.am      13 UNK        -0.5000 
     75 CA         -2.5379  -23.6903  -46.8259 C.3       13 UNK         0.1400 
     76 CB         -2.3395  -24.7913  -47.8909 C.3       13 UNK        -0.1800 
     77 C          -4.0173  -23.5230  -46.4166 C.2       13 UNK         0.5000 
     78 O          -4.5390  -22.4048  -46.3590 O.2       13 UNK        -0.5000 
     79 N          -4.6628  -24.6542  -46.0996 N.am      14 UNK        -0.5000 
     80 CA         -6.0653  -24.7465  -45.6929 C.3       14 UNK         0.1400 
     81 CB         -6.4057  -26.2115  -45.3812 C.3       14 UNK        -0.1800 
     82 C          -7.0118  -24.1869  -46.7689 C.2       14 UNK         0.5000 
     83 O          -6.8672  -24.5295  -47.9445 O.2       14 UNK        -0.5000 
     84 N          -7.9287  -23.3049  -46.3465 N.am      15 UNK        -0.5000 
     85 CA         -8.9095  -22.5838  -47.1707 C.3       15 UNK         0.1400 
     86 CB         -9.9598  -23.5656  -47.7319 C.3       15 UNK        -0.1800 
     87 C          -8.2853  -21.7010  -48.2777 C.2       15 UNK         0.5000 
     88 O          -8.9780  -21.3544  -49.2357 O.2       15 UNK        -0.5000 
     89 N          -6.9916  -21.3660  -48.1349 N.am      16 UNK        -0.5000 
     90 CA         -6.1448  -20.6611  -49.1027 C.3       16 UNK         0.1400 
     91 CB         -6.6270  -19.2075  -49.2966 C.3       16 UNK        -0.1800 
     92 C          -5.9768  -21.4275  -50.4366 C.2       16 UNK         0.5000 
     93 O          -5.7617  -20.8050  -51.4777 O.2       16 UNK        -0.5000 
     94 N          -6.0786  -22.7653  -50.3948 N.am      17 UNK        -0.5000 
     95 CA         -6.0587  -23.6375  -51.5705 C.3       17 UNK         0.1400 
     96 CB         -6.4110  -25.0706  -51.1472 C.3       17 UNK        -0.1800 
     97 C          -4.7305  -23.6173  -52.3479 C.2       17 UNK         0.5000 
     98 O          -4.7520  -23.6489  -53.5790 O.2       17 UNK        -0.5000 
     99 N          -3.6009  -23.5428  -51.6315 N.am      18 UNK        -0.5000 
    100 CA        -2.2742  -23.4513  -52.2406 C.3       18 UNK         0.1400 
    101 CB        -1.2086  -24.0086  -51.2885 C.3       18 UNK        -0.1800 
    102 C         -1.9504  -22.0167  -52.6906 C.2       18 UNK         0.5000 
    103 O         -1.2410  -21.8561  -53.6827 O.2       18 UNK        -0.5000 
    104 N         -2.5219  -21.0085  -52.0120 N.am      19 UNK        -0.5000 
    105 CA        -2.4790  -19.6023  -52.4268 C.3       19 UNK         0.1400 
    106 CB        -3.0068  -18.6794  -51.3159 C.3       19 UNK        -0.1800 
    107 C         -3.2256  -19.3541  -53.7497 C.2       19 UNK         0.5000 
    108 O         -2.7447  -18.5907  -54.5867 O.2       19 UNK        -0.5000 
    109 N         -4.3740  -20.0209  -53.9239 N.am      20 UNK        -0.5000 
    110 CA        -5.1673  -19.9929  -55.1521 C.3       20 UNK         0.1400 
    111 CB        -6.5267  -20.6588  -54.8899 C.3       20 UNK        -0.1800 
    112 C         -4.4534  -20.6589  -56.3454 C.2       20 UNK         0.5000 
    113 O         -4.6077  -20.1956  -57.4761 O.2       20 UNK        -0.5000 
    114 N         -3.6918  -21.7275  -56.0746 N.am      21 UNK        -0.5000 
    115 CA        -2.9241  -22.4722  -57.0698 C.3       21 UNK         0.1400 
    116 CB        -2.6728  -23.8993  -56.5530 C.3       21 UNK        -0.1800 
    117 C         -1.6061  -21.7624  -57.4318 C.2       21 UNK         0.5000 
    118 O         -1.4151  -21.3799  -58.5865 O.2       21 UNK        -0.5000 
    119 N         -0.7209  -21.6151  -56.4375 N.am      22 UNK        -0.5000 
    120 CA         0.6339  -21.0437  -56.5338 C.3       22 UNK         0.1400 
    121 C          1.6237  -21.7924  -57.4812 C.2       22 UNK         0.5000 
    122 N          1.3866  -23.0562  -57.8112 N.am      22 UNK        -0.7600 
    123 O          2.6357  -21.2392  -57.9030 O.2       22 UNK        -0.5000 
    124 C124        0.6147  -19.4978  -56.7309 C.3       23 UNK        -0.0398 
    125 S125        1.7483  -18.6389  -55.5817 S.3       23 UNK        -0.2404 
    126 C126        0.7105  -18.7005  -54.0908 C.3       23 UNK        -0.0205 
    127 H127        1.0771  -10.8360  -45.5518 H         1 UNK         0.0600 
    128 H128       -0.6249  -10.5240  -45.9031 H         1 UNK         0.0600 
    129 H129        0.6089  -10.1412  -47.1077 H         1 UNK         0.0600 
    130 H130       -1.7586  -12.4118  -46.3866 H         1 UNK         0.3000 
    131 H131       -0.4126  -14.8417  -47.0294 H         1 UNK         0.0600 
    132 H132       -0.9438  -13.4829  -49.3358 H         1 UNK         0.0800 
    133 H133       -2.5374  -14.1158  -49.0953 H         1 UNK         0.0800 
    134 H134        1.2817  -14.9535  -49.5313 H         1 UNK         0.0800 
    135 H135        0.4432  -14.5775  -51.0205 H         1 UNK         0.0800 
    136 H136       -0.1428  -16.5972  -52.5893 H         1 UNK         0.1150 
    137 H137        2.9916  -19.5151  -52.8184 H         1 UNK         0.1150 
    138 H138        2.8773  -16.7326  -49.5556 H         1 UNK         0.1150 
    139 H139        5.1008  -18.8317  -51.3827 H         1 UNK         0.0800 
    140 H140        4.7965  -18.1426  -49.8096 H         1 UNK         0.0800 
    141 H141        2.7215  -19.1718  -48.3800 H         1 UNK         0.0800 
    142 H142        4.0540  -19.9692  -47.5926 H         1 UNK         0.0800 
    143 H143        2.8198  -22.2155  -48.2308 H         1 UNK         0.0600 
    144 H144        2.5263  -20.5898  -45.9122 H         1 UNK         0.3000 
    145 H145        0.8402  -23.0921  -43.9739 H         1 UNK         0.0600 
    146 H146        2.7742  -22.6702  -42.4970 H         1 UNK         0.0600 
    147 H147        3.2831  -23.6313  -43.8764 H         1 UNK         0.0600 
    148 H148        3.6651  -21.9147  -43.8165 H         1 UNK         0.0600 
    149 H149        1.6963  -20.4880  -43.2687 H         1 UNK         0.3000 
    150 H150       -1.2886  -18.7413  -44.2858 H         1 UNK         0.0600 
    151 H151       -1.6759  -19.6506  -42.0235 H         1 UNK         0.0600 
    152 H152       -0.9738  -18.0451  -41.8899 H         1 UNK         0.0600 
    153 H153        0.0236  -19.4672  -41.6094 H         1 UNK         0.0600 
    154 H154        1.1169  -17.7543  -43.1732 H         1 UNK         0.3000 
    155 H155        2.9357  -17.2104  -46.2020 H         1 UNK         0.0600 
    156 H156        1.5886  -15.3209  -44.1962 H         1 UNK         0.0600 
    157 H157        1.5277  -15.2120  -45.9506 H         1 UNK         0.0600 
    158 H158        3.0446  -14.9479  -45.1167 H         1 UNK         0.0600 
    159 H159        3.4563  -16.8151  -43.3871 H         1 UNK         0.3000 
    160 H160        5.1410  -19.9137  -42.8648 H         1 UNK         0.0600 
    161 H161        6.1902  -17.0418  -43.1086 H         1 UNK         0.0600 
    162 H162        6.8141  -18.4345  -43.9847 H         1 UNK         0.0600 
    163 H163        6.9681  -18.3628  -42.2366 H         1 UNK         0.0600 
    164 H164        4.6951  -17.6080  -41.2126 H         1 UNK         0.3000 
    165 H165        1.5838  -18.6781  -39.8348 H         1 UNK         0.0600 
    166 H166        2.8562  -18.5230  -37.7244 H         1 UNK         0.0600 
    167 H167        3.3285  -19.9740  -38.5930 H         1 UNK         0.0600 
    168 H168        4.3865  -18.5679  -38.6009 H         1 UNK         0.0600 
    169 H169        3.0803  -16.4585  -39.0931 H         1 UNK         0.3000 
    170 H170        2.0477  -14.4037  -39.5337 H         1 UNK         0.0600 
    171 H171        4.3254  -14.5452  -40.5803 H         1 UNK         0.0600 
    172 H172        3.6291  -14.2378  -42.1667 H         1 UNK         0.0600 
    173 H173        3.5793  -12.9932  -40.9182 H         1 UNK         0.0600 
    174 H174        1.3536  -13.3339  -42.0924 H         1 UNK         0.3000 
    175 H175       -1.4612  -12.3310  -41.4423 H         1 UNK         0.0600 
    176 H176       -0.3096  -13.7730  -43.9005 H         1 UNK         0.0600 
    177 H177       -1.3577  -12.3612  -43.9531 H         1 UNK         0.0600 
    178 H178        0.2409  -12.2228  -43.2568 H         1 UNK         0.0600 
    179 H179       -2.2840  -15.0553  -42.1694 H         1 UNK         0.3000 
    180 H180       -4.6844  -15.3625  -41.7210 H         1 UNK         0.0600 
    181 H181       -6.9372  -14.8015  -42.5809 H         1 UNK         0.0600 
    182 H182       -6.3334  -13.2968  -43.2732 H         1 UNK         0.0600 
    183 H183       -6.3555  -13.5225  -41.5274 H         1 UNK         0.0600 
    184 H184       -5.0741  -14.9024  -44.5968 H         1 UNK         0.3000 
    185 H185       -3.2451  -17.7984  -45.4579 H         1 UNK         0.0600 
    186 H186       -5.6753  -17.3081  -45.7504 H         1 UNK         0.0600 
    187 H187       -5.2892  -15.7487  -46.4682 H         1 UNK         0.0600 
    188 H188       -4.7939  -17.2343  -47.2660 H         1 UNK         0.0600 
    189 H189       -1.7601  -16.6092  -46.5796 H         1 UNK         0.3000 
    190 H190        0.2330  -19.9790  -47.1859 H         1 UNK         0.3000 
    191 H191       -1.3143  -20.2004  -49.5754 H         1 UNK         0.0600 
    192 H192       -3.0921  -19.1193  -48.1723 H         1 UNK         0.0600 
    193 H193       -1.5447  -18.3103  -47.9722 H         1 UNK         0.0600 
    194 H194       -2.1290  -19.4137  -46.7281 H         1 UNK         0.0600 
    195 H195       -1.2834  -22.0286  -46.5604 H         1 UNK         0.3000 
    196 H196       -2.0009  -23.9941  -45.9263 H         1 UNK         0.0600 
    197 H197       -2.9695  -24.6299  -48.7659 H         1 UNK         0.0600 
    198 H198       -1.3025  -24.8302  -48.2253 H         1 UNK         0.0600 
    199 H199       -2.5807  -25.7777  -47.4946 H         1 UNK         0.0600 
    200 H200       -4.1715  -25.5308  -46.1896 H         1 UNK         0.3000 
    201 H201       -6.1816  -24.1633  -44.7771 H         1 UNK         0.0600 
    202 H202       -6.2751  -26.8495  -46.2564 H         1 UNK         0.0600 
    203 H203       -7.4419  -26.3104  -45.0552 H         1 UNK         0.0600 
    204 H204       -5.7758  -26.6031  -44.5822 H         1 UNK         0.0600 
    205 H205       -7.9457  -23.0723  -45.3629 H         1 UNK         0.3000 
    206 H206       -9.4258  -21.8978  -46.4979 H         1 UNK         0.0600 
    207 H207      -10.3941  -24.1747  -46.9392 H         1 UNK         0.0600 
    208 H208      -10.7800  -23.0319  -48.2133 H         1 UNK         0.0600 
    209 H209       -9.5285  -24.2384  -48.4740 H         1 UNK         0.0600 
    210 H210       -6.4993  -21.7207  -47.3235 H         1 UNK         0.3000 
    211 H211       -5.1548  -20.6138  -48.6504 H         1 UNK         0.0600 
    212 H212       -5.9138  -18.6269  -49.8806 H         1 UNK         0.0600 
    213 H213       -6.7453  -18.7007  -48.3389 H         1 UNK         0.0600 
    214 H214       -7.5822  -19.1632  -49.8200 H         1 UNK         0.0600 
    215 H215       -6.2603  -23.2149  -49.5040 H         1 UNK         0.3000 
    216 H216       -6.8375  -23.2861  -52.2505 H         1 UNK         0.0600 
    217 H217       -5.6926  -25.4643  -50.4269 H         1 UNK         0.0600 
    218 H218       -6.4200  -25.7430  -52.0060 H         1 UNK         0.0600 
    219 H219       -7.3999  -25.1139  -50.6902 H         1 UNK         0.0600 
    220 H220       -3.6537  -23.4155  -50.6272 H         1 UNK         0.3000 
    221 H221       -2.2567  -24.0797  -53.1335 H         1 UNK         0.0600 
    222 H222       -1.4075  -25.0512  -51.0410 H         1 UNK         0.0600 
    223 H223       -1.1606  -23.4484  -50.3582 H         1 UNK         0.0600 
    224 H224       -0.2185  -23.9637  -51.7437 H         1 UNK         0.0600 
    225 H225       -3.0828  -21.2384  -51.2009 H         1 UNK         0.3000 
    226 H226       -1.4360  -19.3390  -52.5881 H         1 UNK         0.0600 
    227 H227       -3.8477  -19.1181  -50.7839 H         1 UNK         0.0600 
    228 H228       -2.2274  -18.4561  -50.5908 H         1 UNK         0.0600 
    229 H229       -3.3338  -17.7172  -51.7129 H         1 UNK         0.0600 
    230 H230       -4.7506  -20.5530  -53.1447 H         1 UNK         0.3000 
    231 H231       -5.3458  -18.9478  -55.4134 H         1 UNK         0.0600 
    232 H232       -6.4146  -21.7055  -54.6061 H         1 UNK         0.0600 
    233 H233       -7.1569  -20.6245  -55.7793 H         1 UNK         0.0600 
    234 H234       -7.0655  -20.1523  -54.0886 H         1 UNK         0.0600 
    235 H235       -3.6409  -22.0515  -55.1188 H         1 UNK         0.3000 
    236 H236       -3.5194  -22.5539  -57.9819 H         1 UNK         0.0600 
    237 H237       -3.6132  -24.4230  -56.3792 H         1 UNK         0.0600 
    238 H238       -2.1053  -24.4834  -57.2784 H         1 UNK         0.0600 
    239 H239       -2.1152  -23.9043  -55.6163 H         1 UNK         0.0600 
    240 H240       -0.9882  -21.9018  -55.4981 H         1 UNK         0.3000 
    241 H241        1.0483  -21.2514  -55.5475 H         1 UNK         0.0600 
    242 H242        2.0319  -23.5401  -58.4160 H         1 UNK         0.3800 
    243 H243        0.5706  -23.5335  -57.4642 H         1 UNK         0.3800 
    244 H244       -0.3880  -19.0990  -56.5671 H         1 UNK         0.0800 
    245 H245        0.8640  -19.2207  -57.7564 H         1 UNK         0.0800 
    246 H246       -0.2186  -18.1752  -54.3093 H         1 UNK         0.0800 
    247 H247        0.4457  -19.7362  -53.8789 H         1 UNK         0.0800 
@<TRIPOS>BOND
     1    1    2 1    
     2    1  127 1    
     3    1  128 1    
     4    1  129 1    
     5    2    3 2    
     6    2    4 am   BACKBONE|DICT|INTERRES
     7    4    5 1    
     8    4  130 1    
     9    5    6 1    
    10    5   65 1    
    11    5  131 1    
    12    6    7 1    
    13    6  132 1    
    14    6  133 1    
    15    7    8 1    
    16    8    9 1    
    17    8  134 1    
    18    8  135 1    
    19    9   10 ar   
    20    9   14 ar   
    21   10   11 ar   
    22   10  136 1    
    23   11   12 ar   
    24   11  126 1    
    25   12   13 ar   
    26   12  137 1    
    27   13   14 ar   
    28   13   15 1    
    29   14  138 1    
    30   15   16 1    
    31   15  139 1    
    32   15  140 1    
    33   16   17 1    
    34   17   18 1    
    35   17  141 1    
    36   17  142 1    
    37   18   19 1    
    38   18   67 1    
    39   18  143 1    
    40   19   20 am   BACKBONE|DICT|INTERRES
    41   19  144 1    
    42   20   21 2    
    43   20   22 1    
    44   22   23 1    
    45   22   24 1    
    46   22  145 1    
    47   23  146 1    
    48   23  147 1    
    49   23  148 1    
    50   24   25 am   BACKBONE|DICT|INTERRES
    51   24  149 1    
    52   25   26 2    
    53   25   27 1    
    54   27   28 1    
    55   27   29 1    
    56   27  150 1    
    57   28  151 1    
    58   28  152 1    
    59   28  153 1    
    60   29   30 am   BACKBONE|DICT|INTERRES
    61   29  154 1    
    62   30   31 2    
    63   30   32 1    
    64   32   33 1    
    65   32   34 1    
    66   32  155 1    
    67   33  156 1    
    68   33  157 1    
    69   33  158 1    
    70   34   35 am   BACKBONE|DICT|INTERRES
    71   34  159 1    
    72   35   36 2    
    73   35   37 1    
    74   37   38 1    
    75   37   39 1    
    76   37  160 1    
    77   38  161 1    
    78   38  162 1    
    79   38  163 1    
    80   39   40 am   BACKBONE|DICT|INTERRES
    81   39  164 1    
    82   40   41 2    
    83   40   42 1    
    84   42   43 1    
    85   42   44 1    
    86   42  165 1    
    87   43  166 1    
    88   43  167 1    
    89   43  168 1    
    90   44   45 am   BACKBONE|DICT|INTERRES
    91   44  169 1    
    92   45   46 2    
    93   45   47 1    
    94   47   48 1    
    95   47   49 1    
    96   47  170 1    
    97   48  171 1    
    98   48  172 1    
    99   48  173 1    
   100   49   50 am   BACKBONE|DICT|INTERRES
   101   49  174 1    
   102   50   51 2    
   103   50   52 1    
   104   52   53 1    
   105   52   54 1    
   106   52  175 1    
   107   53  176 1    
   108   53  177 1    
   109   53  178 1    
   110   54   55 am   BACKBONE|DICT|INTERRES
   111   54  179 1    
   112   55   56 2    
   113   55   57 1    
   114   57   58 1    
   115   57   59 1    
   116   57  180 1    
   117   58  181 1    
   118   58  182 1    
   119   58  183 1    
   120   59   60 am   BACKBONE|DICT|INTERRES
   121   59  184 1    
   122   60   61 2    
   123   60   62 1    
   124   62   63 1    
   125   62   64 1    
   126   62  185 1    
   127   63  186 1    
   128   63  187 1    
   129   63  188 1    
   130   64   65 am   BACKBONE|DICT|INTERRES
   131   64  189 1    
   132   65   66 2    
   133   67   68 2    
   134   67   69 am   BACKBONE|DICT|INTERRES
   135   69   70 1    
   136   69  190 1    
   137   70   71 1    
   138   70   72 1    
   139   70  191 1    
   140   71  192 1    
   141   71  193 1    
   142   71  194 1    
   143   72   73 2    
   144   72   74 am   BACKBONE|DICT|INTERRES
   145   74   75 1    
   146   74  195 1    
   147   75   76 1    
   148   75   77 1    
   149   75  196 1    
   150   76  197 1    
   151   76  198 1    
   152   76  199 1    
   153   77   78 2    
   154   77   79 am   BACKBONE|DICT|INTERRES
   155   79   80 1    
   156   79  200 1    
   157   80   81 1    
   158   80   82 1    
   159   80  201 1    
   160   81  202 1    
   161   81  203 1    
   162   81  204 1    
   163   82   83 2    
   164   82   84 am   BACKBONE|DICT|INTERRES
   165   84   85 1    
   166   84  205 1    
   167   85   86 1    
   168   85   87 1    
   169   85  206 1    
   170   86  207 1    
   171   86  208 1    
   172   86  209 1    
   173   87   88 2    
   174   87   89 am   BACKBONE|DICT|INTERRES
   175   89   90 1    
   176   89  210 1    
   177   90   91 1    
   178   90   92 1    
   179   90  211 1    
   180   91  212 1    
   181   91  213 1    
   182   91  214 1    
   183   92   93 2    
   184   92   94 am   BACKBONE|DICT|INTERRES
   185   94   95 1    
   186   94  215 1    
   187   95   96 1    
   188   95   97 1    
   189   95  216 1    
   190   96  217 1    
   191   96  218 1    
   192   96  219 1    
   193   97   98 2    
   194   97   99 am   BACKBONE|DICT|INTERRES
   195   99  100 1    
   196   99  220 1    
   197  100  101 1    
   198  100  102 1    
   199  100  221 1    
   200  101  222 1    
   201  101  223 1    
   202  101  224 1    
   203  102  103 2    
   204  102  104 am   BACKBONE|DICT|INTERRES
   205  104  105 1    
   206  104  225 1    
   207  105  106 1    
   208  105  107 1    
   209  105  226 1    
   210  106  227 1    
   211  106  228 1    
   212  106  229 1    
   213  107  108 2    
   214  107  109 am   BACKBONE|DICT|INTERRES
   215  109  110 1    
   216  109  230 1    
   217  110  111 1    
   218  110  112 1    
   219  110  231 1    
   220  111  232 1    
   221  111  233 1    
   222  111  234 1    
   223  112  113 2    
   224  112  114 am   BACKBONE|DICT|INTERRES
   225  114  115 1    
   226  114  235 1    
   227  115  116 1    
   228  115  117 1    
   229  115  236 1    
   230  116  237 1    
   231  116  238 1    
   232  116  239 1    
   233  117  118 2    
   234  117  119 am   BACKBONE|DICT|INTERRES
   235  119  120 1    
   236  119  240 1    
   237  120  121 1    
   238  120  124 1    
   239  120  241 1    
   240  121  122 am   BACKBONE|DICT|INTERRES
   241  121  123 2    
   242  122  242 1    
   243  122  243 1    
   244  124  125 1    
   245  124  244 1    
   246  124  245 1    
   247  125  126 1    
   248  126  246 1    
   249  126  247 1    
@<TRIPOS>SUBSTRUCTURE
     1 UNK         1 GROUP             0       ****    0 ROOT    
