@<TRIPOS>MOLECULE
3R540
247   249    1
SMALL
USER_CHARGES


@<TRIPOS>ATOM
      1 CA         -2.9308  -14.8881  -47.2274 C.3       0 UNK        -0.1800 
      2 C          -2.0382  -13.7217  -46.8295 C.2       0 UNK         0.5000 
      3 O          -2.4858  -12.8287  -46.1106 O.2       0 UNK        -0.5000 
      4 N          -0.7770  -13.7285  -47.2753 N.am      1 UNK        -0.5000 
      5 CA          0.2552  -12.7885  -46.8330 C.3       1 UNK         0.1400 
      6 C6          1.4218  -12.6629  -47.8420 C.3       23 UNK        -0.0398 
      7 S7          0.9032  -11.8994  -49.4133 S.3       23 UNK        -0.2404 
      8 C8          1.2238  -13.2415  -50.6025 C.3       23 UNK        -0.0205 
      9 C9          0.2686  -14.4135  -50.4294 C.ar      23 UNK        -0.0193 
     10 C10        -1.0940  -14.2469  -50.6867 C.ar      23 UNK        -0.1150 
     11 C11        -1.9802  -15.3204  -50.5693 C.ar      23 UNK        -0.0193 
     12 C12        -1.4924  -16.5707  -50.1723 C.ar      23 UNK        -0.1150 
     13 C13        -0.1266  -16.7578  -49.9314 C.ar      23 UNK        -0.0193 
     14 C14         0.7470  -15.6721  -50.0547 C.ar      23 UNK        -0.1150 
     15 C15         0.4152  -18.1520  -49.6420 C.3       23 UNK        -0.0205 
     16 S16         1.4395  -18.2577  -48.1360 S.3       23 UNK        -0.2404 
     17 C17         0.2117  -18.3283  -46.7908 C.3       23 UNK        -0.0398 
     18 CA         -0.2160  -19.7887  -46.4787 C.3       11 UNK         0.1400 
     19 N          -0.4435  -20.0289  -45.0509 N.am      11 UNK        -0.5000 
     20 C          -0.6878  -21.2331  -44.5108 C.2       10 UNK         0.5000 
     21 O          -0.6806  -22.2846  -45.1480 O.2       10 UNK        -0.5000 
     22 CA         -1.0630  -21.2678  -43.0204 C.3       10 UNK         0.1400 
     23 CB          0.1901  -21.2747  -42.1332 C.3       10 UNK        -0.1800 
     24 N          -1.9356  -20.1528  -42.6544 N.am      10 UNK        -0.5000 
     25 C          -3.2030  -20.0243  -43.0737 C.2       9 UNK         0.5000 
     26 O          -3.7797  -20.8561  -43.7725 O.2       9 UNK        -0.5000 
     27 CA         -3.9362  -18.7301  -42.6829 C.3       9 UNK         0.1400 
     28 CB         -4.5823  -18.8719  -41.2970 C.3       9 UNK        -0.1800 
     29 N          -3.0588  -17.5602  -42.6909 N.am      9 UNK        -0.5000 
     30 C          -2.4826  -17.0482  -43.7874 C.2       8 UNK         0.5000 
     31 O          -2.6301  -17.5036  -44.9226 O.2       8 UNK        -0.5000 
     32 CA         -1.5408  -15.8535  -43.5522 C.3       8 UNK         0.1400 
     33 CB         -2.3591  -14.5797  -43.2866 C.3       8 UNK        -0.1800 
     34 N          -0.6090  -16.0593  -42.4383 N.am      8 UNK        -0.5000 
     35 C           0.2521  -17.0793  -42.3282 C.2       7 UNK         0.5000 
     36 O           0.3481  -17.9877  -43.1583 O.2       7 UNK        -0.5000 
     37 CA          1.0851  -17.1337  -41.0379 C.3       7 UNK         0.1400 
     38 CB          0.1734  -17.4780  -39.8399 C.3       7 UNK        -0.1800 
     39 N           2.1134  -18.1538  -41.2107 N.am      7 UNK        -0.5000 
     40 C           3.0924  -18.4881  -40.3612 C.2       6 UNK         0.5000 
     41 O           3.2990  -17.9164  -39.2903 O.2       6 UNK        -0.5000 
     42 CA          3.9916  -19.6736  -40.7693 C.3       6 UNK         0.1400 
     43 CB          3.5203  -20.9660  -40.0841 C.3       6 UNK        -0.1800 
     44 N           4.0109  -19.8821  -42.2191 N.am      6 UNK        -0.5000 
     45 C           4.7780  -19.1801  -43.0624 C.2       5 UNK         0.5000 
     46 O           5.6598  -18.4038  -42.6857 O.2       5 UNK        -0.5000 
     47 CA          4.5320  -19.3756  -44.5774 C.3       5 UNK         0.1400 
     48 CB          3.1502  -19.9816  -44.9149 C.3       5 UNK        -0.1800 
     49 N           4.7408  -18.1334  -45.3322 N.am      5 UNK        -0.5000 
     50 C           4.1221  -16.9603  -45.1295 C.2       4 UNK         0.5000 
     51 O           3.2224  -16.7854  -44.3049 O.2       4 UNK        -0.5000 
     52 CA          4.5969  -15.7909  -46.0074 C.3       4 UNK         0.1400 
     53 CB          3.8403  -15.7632  -47.3433 C.3       4 UNK        -0.1800 
     54 N           4.3738  -14.5241  -45.3161 N.am      4 UNK        -0.5000 
     55 C           5.3085  -13.8613  -44.6216 C.2       3 UNK         0.5000 
     56 O           6.4796  -14.2334  -44.5330 O.2       3 UNK        -0.5000 
     57 CA          4.8923  -12.5492  -43.9246 C.3       3 UNK         0.1400 
     58 CB          5.4867  -11.3389  -44.6630 C.3       3 UNK        -0.1800 
     59 N           3.4434  -12.3719  -43.8377 N.am      3 UNK        -0.5000 
     60 C           2.6524  -12.9554  -42.9283 C.2       2 UNK         0.5000 
     61 O           3.0660  -13.6658  -42.0121 O.2       2 UNK        -0.5000 
     62 CA          1.1378  -12.7100  -43.0746 C.3       2 UNK         0.1400 
     63 CB          0.6766  -11.5834  -42.1384 C.3       2 UNK        -0.1800 
     64 N           0.7084  -12.4027  -44.4445 N.am      2 UNK        -0.5000 
     65 C           0.7837  -13.2623  -45.4690 C.2       1 UNK         0.5000 
     66 O           1.2672  -14.3897  -45.3751 O.2       1 UNK        -0.5000 
     67 C          -1.4432  -20.2003  -47.3126 C.2       11 UNK         0.5000 
     68 O          -1.3049  -20.9671  -48.2665 O.2       11 UNK        -0.5000 
     69 N          -2.6257  -19.7183  -46.9041 N.am      12 UNK        -0.5000 
     70 CA         -3.9071  -20.0366  -47.5313 C.3       12 UNK         0.1400 
     71 CB         -5.0194  -19.2048  -46.8773 C.3       12 UNK        -0.1800 
     72 C          -4.2394  -21.5396  -47.4927 C.2       12 UNK         0.5000 
     73 O          -4.7040  -22.0753  -48.4967 O.2       12 UNK        -0.5000 
     74 N          -3.9596  -22.1972  -46.3580 N.am      13 UNK        -0.5000 
     75 CA         -4.1201  -23.6396  -46.1731 C.3       13 UNK         0.1400 
     76 CB         -3.9727  -23.9909  -44.6854 C.3       13 UNK        -0.1800 
     77 C          -3.1437  -24.4713  -47.0250 C.2       13 UNK         0.5000 
     78 O          -3.5525  -25.4860  -47.5874 O.2       13 UNK        -0.5000 
     79 N          -1.8811  -24.0325  -47.1225 N.am      14 UNK        -0.5000 
     80 CA         -0.8442  -24.6790  -47.9307 C.3       14 UNK         0.1400 
     81 CB          0.5274  -24.0768  -47.5886 C.3       14 UNK        -0.1800 
     82 C          -1.1192  -24.5782  -49.4420 C.2       14 UNK         0.5000 
     83 O          -0.8948  -25.5458  -50.1695 O.2       14 UNK        -0.5000 
     84 N          -1.6151  -23.4150  -49.8800 N.am      15 UNK        -0.5000 
     85 CA         -1.9706  -23.1288  -51.2688 C.3       15 UNK         0.1400 
     86 CB         -1.8533  -21.6113  -51.4946 C.3       15 UNK        -0.1800 
     87 C          -3.3683  -23.6422  -51.6718 C.2       15 UNK         0.5000 
     88 O          -3.7307  -23.5112  -52.8428 O.2       15 UNK        -0.5000 
     89 N          -4.1590  -24.1611  -50.7206 N.am      16 UNK        -0.5000 
     90 CA         -5.5369  -24.6151  -50.9290 C.3       16 UNK         0.1400 
     91 CB         -6.1441  -25.0865  -49.6001 C.3       16 UNK        -0.1800 
     92 C          -5.6294  -25.7309  -51.9833 C.2       16 UNK         0.5000 
     93 O          -4.8690  -26.6993  -51.9138 O.2       16 UNK        -0.5000 
     94 N          -6.5400  -25.5513  -52.9504 N.am      17 UNK        -0.5000 
     95 CA         -6.8120  -26.3865  -54.1301 C.3       17 UNK         0.1400 
     96 CB         -7.2626  -27.8039  -53.7286 C.3       17 UNK        -0.1800 
     97 C          -5.6630  -26.4372  -55.1591 C.2       17 UNK         0.5000 
     98 O          -5.9211  -26.2977  -56.3546 O.2       17 UNK        -0.5000 
     99 N          -4.4238  -26.6124  -54.6857 N.am      18 UNK        -0.5000 
    100 CA        -3.1983  -26.6921  -55.4808 C.3       18 UNK         0.1400 
    101 CB        -2.0382  -27.1086  -54.5635 C.3       18 UNK        -0.1800 
    102 C         -2.8570  -25.3830  -56.2151 C.2       18 UNK         0.5000 
    103 O         -2.3625  -25.4322  -57.3422 O.2       18 UNK        -0.5000 
    104 N         -3.1332  -24.2444  -55.5697 N.am      19 UNK        -0.5000 
    105 CA        -2.8935  -22.9006  -56.0888 C.3       19 UNK         0.1400 
    106 CB        -1.5168  -22.4048  -55.6083 C.3       19 UNK        -0.1800 
    107 C         -4.0430  -21.9557  -55.6957 C.2       19 UNK         0.5000 
    108 O         -3.8148  -20.7632  -55.4926 O.2       19 UNK        -0.5000 
    109 N         -5.2618  -22.5011  -55.5618 N.am      20 UNK        -0.5000 
    110 CA        -6.5181  -21.7915  -55.2761 C.3       20 UNK         0.1400 
    111 CB        -6.9661  -21.0047  -56.5251 C.3       20 UNK        -0.1800 
    112 C         -6.4910  -20.9067  -54.0056 C.2       20 UNK         0.5000 
    113 O         -7.2070  -19.9065  -53.9414 O.2       20 UNK        -0.5000 
    114 N         -5.6579  -21.2882  -53.0261 N.am      21 UNK        -0.5000 
    115 CA        -5.4192  -20.6170  -51.7434 C.3       21 UNK         0.1400 
    116 CB        -6.7123  -20.5304  -50.9048 C.3       21 UNK        -0.1800 
    117 C         -4.6863  -19.2599  -51.8404 C.2       21 UNK         0.5000 
    118 O         -4.6328  -18.5548  -50.8323 O.2       21 UNK        -0.5000 
    119 N         -4.1159  -18.9048  -53.0040 N.am      22 UNK        -0.5000 
    120 CA        -3.4206  -17.6166  -53.1996 C.3       22 UNK         0.1400 
    121 C         -2.3783  -17.5708  -54.3565 C.2       22 UNK         0.5000 
    122 N         -2.2452  -18.5794  -55.2044 N.am      22 UNK        -0.7600 
    123 O         -1.6348  -16.6026  -54.4813 O.2       22 UNK        -0.5000 
    124 C124       -4.4174  -16.4205  -53.2335 C.3       23 UNK        -0.0398 
    125 S125       -3.7375  -14.8250  -52.6596 S.3       23 UNK        -0.2404 
    126 C126       -3.4573  -15.1115  -50.8798 C.3       23 UNK        -0.0205 
    127 H127       -3.4867  -15.2503  -46.3632 H         1 UNK         0.0600 
    128 H128       -3.6505  -14.5725  -47.9807 H         1 UNK         0.0600 
    129 H129       -2.3520  -15.7230  -47.6208 H         1 UNK         0.0600 
    130 H130       -0.4597  -14.4768  -47.8753 H         1 UNK         0.3000 
    131 H131       -0.1917  -11.7990  -46.7125 H         1 UNK         0.0600 
    132 H132        2.2178  -12.0392  -47.4310 H         1 UNK         0.0800 
    133 H133        1.8722  -13.6369  -48.0355 H         1 UNK         0.0800 
    134 H134        2.2624  -13.5640  -50.5131 H         1 UNK         0.0800 
    135 H135        1.1141  -12.8466  -51.6134 H         1 UNK         0.0800 
    136 H136       -1.4649  -13.2785  -50.9926 H         1 UNK         0.1150 
    137 H137       -2.1729  -17.4063  -50.0828 H         1 UNK         0.1150 
    138 H138        1.8046  -15.8175  -49.8842 H         1 UNK         0.1150 
    139 H139       -0.3916  -18.8822  -49.5997 H         1 UNK         0.0800 
    140 H140        1.0344  -18.4498  -50.4889 H         1 UNK         0.0800 
    141 H141       -0.6340  -17.6746  -47.0132 H         1 UNK         0.0800 
    142 H142        0.6959  -17.8857  -45.9184 H         1 UNK         0.0800 
    143 H143        0.6002  -20.4582  -46.7595 H         1 UNK         0.0600 
    144 H144       -0.4173  -19.2180  -44.4392 H         1 UNK         0.3000 
    145 H145       -1.6084  -22.1955  -42.8346 H         1 UNK         0.0600 
    146 H146       -0.0731  -21.2938  -41.0755 H         1 UNK         0.0600 
    147 H147        0.7993  -22.1570  -42.3331 H         1 UNK         0.0600 
    148 H148        0.8164  -20.4025  -42.3084 H         1 UNK         0.0600 
    149 H149       -1.5183  -19.3984  -42.1312 H         1 UNK         0.3000 
    150 H150       -4.7289  -18.5629  -43.4153 H         1 UNK         0.0600 
    151 H151       -5.2573  -19.7284  -41.2675 H         1 UNK         0.0600 
    152 H152       -5.1690  -17.9889  -41.0431 H         1 UNK         0.0600 
    153 H153       -3.8350  -19.0156  -40.5155 H         1 UNK         0.0600 
    154 H154       -2.8743  -17.1235  -41.8001 H         1 UNK         0.3000 
    155 H155       -0.9557  -15.7136  -44.4631 H         1 UNK         0.0600 
    156 H156       -2.8395  -14.6027  -42.3078 H         1 UNK         0.0600 
    157 H157       -1.7344  -13.6886  -43.3319 H         1 UNK         0.0600 
    158 H158       -3.1490  -14.4550  -44.0275 H         1 UNK         0.0600 
    159 H159       -0.6471  -15.3777  -41.6951 H         1 UNK         0.3000 
    160 H160        1.5663  -16.1655  -40.8869 H         1 UNK         0.0600 
    161 H161       -0.2807  -18.4633  -39.9534 H         1 UNK         0.0600 
    162 H162       -0.6351  -16.7544  -39.7321 H         1 UNK         0.0600 
    163 H163        0.7229  -17.4723  -38.8992 H         1 UNK         0.0600 
    164 H164        2.0526  -18.6189  -42.1075 H         1 UNK         0.3000 
    165 H165        5.0040  -19.4591  -40.4203 H         1 UNK         0.0600 
    166 H166        4.1726  -21.8038  -40.3308 H         1 UNK         0.0600 
    167 H167        3.5299  -20.8567  -38.9989 H         1 UNK         0.0600 
    168 H168        2.5047  -21.2330  -40.3760 H         1 UNK         0.0600 
    169 H169        3.3362  -20.5302  -42.5968 H         1 UNK         0.3000 
    170 H170        5.2947  -20.0755  -44.9212 H         1 UNK         0.0600 
    171 H171        3.0386  -20.9867  -44.5074 H         1 UNK         0.0600 
    172 H172        2.3349  -19.3702  -44.5277 H         1 UNK         0.0600 
    173 H173        3.0153  -20.0627  -45.9933 H         1 UNK         0.0600 
    174 H174        5.4814  -18.1687  -46.0180 H         1 UNK         0.3000 
    175 H175        5.6597  -15.9201  -46.2222 H         1 UNK         0.0600 
    176 H176        2.7620  -15.7119  -47.1914 H         1 UNK         0.0600 
    177 H177        4.1371  -14.9081  -47.9505 H         1 UNK         0.0600 
    178 H178        4.0467  -16.6617  -47.9255 H         1 UNK         0.0600 
    179 H179        3.4044  -14.2411  -45.2374 H         1 UNK         0.3000 
    180 H180        5.3073  -12.5688  -42.9147 H         1 UNK         0.0600 
    181 H181        5.1104  -11.2656  -45.6842 H         1 UNK         0.0600 
    182 H182        6.5739  -11.4089  -44.7184 H         1 UNK         0.0600 
    183 H183        5.2494  -10.4072  -44.1490 H         1 UNK         0.0600 
    184 H184        3.0146  -11.7915  -44.5428 H         1 UNK         0.3000 
    185 H185        0.6399  -13.6299  -42.7679 H         1 UNK         0.0600 
    186 H186        0.9572  -11.7935  -41.1054 H         1 UNK         0.0600 
    187 H187        1.1221  -10.6260  -42.4113 H         1 UNK         0.0600 
    188 H188       -0.4074  -11.4698  -42.1619 H         1 UNK         0.0600 
    189 H189        0.2910  -11.4944  -44.5913 H         1 UNK         0.3000 
    190 H190       -2.6491  -19.0763  -46.1167 H         1 UNK         0.3000 
    191 H191       -3.8365  -19.7442  -48.5803 H         1 UNK         0.0600 
    192 H192       -5.1238  -19.4351  -45.8168 H         1 UNK         0.0600 
    193 H193       -5.9813  -19.3976  -47.3539 H         1 UNK         0.0600 
    194 H194       -4.8178  -18.1373  -46.9702 H         1 UNK         0.0600 
    195 H195       -3.6359  -21.6706  -45.5522 H         1 UNK         0.3000 
    196 H196       -5.1339  -23.9036  -46.4813 H         1 UNK         0.0600 
    197 H197       -4.1031  -25.0613  -44.5212 H         1 UNK         0.0600 
    198 H198       -4.7216  -23.4765  -44.0830 H         1 UNK         0.0600 
    199 H199       -2.9892  -23.7169  -44.3031 H         1 UNK         0.0600 
    200 H200       -1.5954  -23.2193  -46.5842 H         1 UNK         0.3000 
    201 H201       -0.8231  -25.7385  -47.6674 H         1 UNK         0.0600 
    202 H202        0.7735  -24.2310  -46.5379 H         1 UNK         0.0600 
    203 H203        0.5570  -23.0043  -47.7844 H         1 UNK         0.0600 
    204 H204        1.3179  -24.5416  -48.1790 H         1 UNK         0.0600 
    205 H205       -1.7182  -22.6503  -49.2181 H         1 UNK         0.3000 
    206 H206       -1.2546  -23.6205  -51.9305 H         1 UNK         0.0600 
    207 H207       -2.1837  -21.3222  -52.4928 H         1 UNK         0.0600 
    208 H208       -2.4489  -21.0511  -50.7740 H         1 UNK         0.0600 
    209 H209       -0.8199  -21.2810  -51.3886 H         1 UNK         0.0600 
    210 H210       -3.8008  -24.2268  -49.7783 H         1 UNK         0.3000 
    211 H211       -6.1097  -23.7525  -51.2739 H         1 UNK         0.0600 
    212 H212       -5.6169  -25.9551  -49.2046 H         1 UNK         0.0600 
    213 H213       -7.1892  -25.3705  -49.7287 H         1 UNK         0.0600 
    214 H214       -6.1139  -24.3009  -48.8461 H         1 UNK         0.0600 
    215 H215       -7.1024  -24.7137  -52.9020 H         1 UNK         0.3000 
    216 H216       -7.6557  -25.9116  -54.6336 H         1 UNK         0.0600 
    217 H217       -7.5690  -28.3759  -54.6053 H         1 UNK         0.0600 
    218 H218       -8.1147  -27.7688  -53.0498 H         1 UNK         0.0600 
    219 H219       -6.4665  -28.3648  -53.2387 H         1 UNK         0.0600 
    220 H220       -4.3276  -26.7151  -53.6780 H         1 UNK         0.3000 
    221 H221       -3.3380  -27.4696  -56.2346 H         1 UNK         0.0600 
    222 H222       -1.8783  -26.3837  -53.7638 H         1 UNK         0.0600 
    223 H223       -2.2288  -28.0780  -54.1026 H         1 UNK         0.0600 
    224 H224       -1.1061  -27.1926  -55.1238 H         1 UNK         0.0600 
    225 H225       -3.5028  -24.2810  -54.6234 H         1 UNK         0.3000 
    226 H226       -2.8884  -22.9215  -57.1803 H         1 UNK         0.0600 
    227 H227       -0.7214  -23.0715  -55.9413 H         1 UNK         0.0600 
    228 H228       -1.2913  -21.4136  -56.0026 H         1 UNK         0.0600 
    229 H229       -1.4704  -22.3488  -54.5211 H         1 UNK         0.0600 
    230 H230       -5.3461  -23.4917  -55.7405 H         1 UNK         0.3000 
    231 H231       -7.2661  -22.5623  -55.0861 H         1 UNK         0.0600 
    232 H232       -7.9630  -20.5834  -56.3907 H         1 UNK         0.0600 
    233 H233       -7.0058  -21.6488  -57.4035 H         1 UNK         0.0600 
    234 H234       -6.2878  -20.1795  -56.7450 H         1 UNK         0.0600 
    235 H235       -5.0724  -22.1004  -53.1973 H         1 UNK         0.3000 
    236 H236       -4.7459  -21.2651  -51.1881 H         1 UNK         0.0600 
    237 H237       -7.2064  -21.4993  -50.8375 H         1 UNK         0.0600 
    238 H238       -6.4938  -20.2130  -49.8846 H         1 UNK         0.0600 
    239 H239       -7.4226  -19.8157  -51.3203 H         1 UNK         0.0600 
    240 H240       -4.1731  -19.5244  -53.8031 H         1 UNK         0.3000 
    241 H241       -2.7952  -17.5025  -52.3178 H         1 UNK         0.0600 
    242 H242       -1.5452  -18.5016  -55.9239 H         1 UNK         0.3800 
    243 H243       -2.8542  -19.3969  -55.2048 H         1 UNK         0.3800 
    244 H244       -4.8109  -16.2882  -54.2425 H         1 UNK         0.0800 
    245 H245       -5.2919  -16.6218  -52.6143 H         1 UNK         0.0800 
    246 H246       -3.8118  -14.2362  -50.3348 H         1 UNK         0.0800 
    247 H247       -4.0563  -15.9521  -50.5276 H         1 UNK         0.0800 
@<TRIPOS>BOND
     1    1    2 1    
     2    1  127 1    
     3    1  128 1    
     4    1  129 1    
     5    2    3 2    
     6    2    4 am   BACKBONE|DICT|INTERRES
     7    4    5 1    
     8    4  130 1    
     9    5    6 1    
    10    5   65 1    
    11    5  131 1    
    12    6    7 1    
    13    6  132 1    
    14    6  133 1    
    15    7    8 1    
    16    8    9 1    
    17    8  134 1    
    18    8  135 1    
    19    9   10 ar   
    20    9   14 ar   
    21   10   11 ar   
    22   10  136 1    
    23   11   12 ar   
    24   11  126 1    
    25   12   13 ar   
    26   12  137 1    
    27   13   14 ar   
    28   13   15 1    
    29   14  138 1    
    30   15   16 1    
    31   15  139 1    
    32   15  140 1    
    33   16   17 1    
    34   17   18 1    
    35   17  141 1    
    36   17  142 1    
    37   18   19 1    
    38   18   67 1    
    39   18  143 1    
    40   19   20 am   BACKBONE|DICT|INTERRES
    41   19  144 1    
    42   20   21 2    
    43   20   22 1    
    44   22   23 1    
    45   22   24 1    
    46   22  145 1    
    47   23  146 1    
    48   23  147 1    
    49   23  148 1    
    50   24   25 am   BACKBONE|DICT|INTERRES
    51   24  149 1    
    52   25   26 2    
    53   25   27 1    
    54   27   28 1    
    55   27   29 1    
    56   27  150 1    
    57   28  151 1    
    58   28  152 1    
    59   28  153 1    
    60   29   30 am   BACKBONE|DICT|INTERRES
    61   29  154 1    
    62   30   31 2    
    63   30   32 1    
    64   32   33 1    
    65   32   34 1    
    66   32  155 1    
    67   33  156 1    
    68   33  157 1    
    69   33  158 1    
    70   34   35 am   BACKBONE|DICT|INTERRES
    71   34  159 1    
    72   35   36 2    
    73   35   37 1    
    74   37   38 1    
    75   37   39 1    
    76   37  160 1    
    77   38  161 1    
    78   38  162 1    
    79   38  163 1    
    80   39   40 am   BACKBONE|DICT|INTERRES
    81   39  164 1    
    82   40   41 2    
    83   40   42 1    
    84   42   43 1    
    85   42   44 1    
    86   42  165 1    
    87   43  166 1    
    88   43  167 1    
    89   43  168 1    
    90   44   45 am   BACKBONE|DICT|INTERRES
    91   44  169 1    
    92   45   46 2    
    93   45   47 1    
    94   47   48 1    
    95   47   49 1    
    96   47  170 1    
    97   48  171 1    
    98   48  172 1    
    99   48  173 1    
   100   49   50 am   BACKBONE|DICT|INTERRES
   101   49  174 1    
   102   50   51 2    
   103   50   52 1    
   104   52   53 1    
   105   52   54 1    
   106   52  175 1    
   107   53  176 1    
   108   53  177 1    
   109   53  178 1    
   110   54   55 am   BACKBONE|DICT|INTERRES
   111   54  179 1    
   112   55   56 2    
   113   55   57 1    
   114   57   58 1    
   115   57   59 1    
   116   57  180 1    
   117   58  181 1    
   118   58  182 1    
   119   58  183 1    
   120   59   60 am   BACKBONE|DICT|INTERRES
   121   59  184 1    
   122   60   61 2    
   123   60   62 1    
   124   62   63 1    
   125   62   64 1    
   126   62  185 1    
   127   63  186 1    
   128   63  187 1    
   129   63  188 1    
   130   64   65 am   BACKBONE|DICT|INTERRES
   131   64  189 1    
   132   65   66 2    
   133   67   68 2    
   134   67   69 am   BACKBONE|DICT|INTERRES
   135   69   70 1    
   136   69  190 1    
   137   70   71 1    
   138   70   72 1    
   139   70  191 1    
   140   71  192 1    
   141   71  193 1    
   142   71  194 1    
   143   72   73 2    
   144   72   74 am   BACKBONE|DICT|INTERRES
   145   74   75 1    
   146   74  195 1    
   147   75   76 1    
   148   75   77 1    
   149   75  196 1    
   150   76  197 1    
   151   76  198 1    
   152   76  199 1    
   153   77   78 2    
   154   77   79 am   BACKBONE|DICT|INTERRES
   155   79   80 1    
   156   79  200 1    
   157   80   81 1    
   158   80   82 1    
   159   80  201 1    
   160   81  202 1    
   161   81  203 1    
   162   81  204 1    
   163   82   83 2    
   164   82   84 am   BACKBONE|DICT|INTERRES
   165   84   85 1    
   166   84  205 1    
   167   85   86 1    
   168   85   87 1    
   169   85  206 1    
   170   86  207 1    
   171   86  208 1    
   172   86  209 1    
   173   87   88 2    
   174   87   89 am   BACKBONE|DICT|INTERRES
   175   89   90 1    
   176   89  210 1    
   177   90   91 1    
   178   90   92 1    
   179   90  211 1    
   180   91  212 1    
   181   91  213 1    
   182   91  214 1    
   183   92   93 2    
   184   92   94 am   BACKBONE|DICT|INTERRES
   185   94   95 1    
   186   94  215 1    
   187   95   96 1    
   188   95   97 1    
   189   95  216 1    
   190   96  217 1    
   191   96  218 1    
   192   96  219 1    
   193   97   98 2    
   194   97   99 am   BACKBONE|DICT|INTERRES
   195   99  100 1    
   196   99  220 1    
   197  100  101 1    
   198  100  102 1    
   199  100  221 1    
   200  101  222 1    
   201  101  223 1    
   202  101  224 1    
   203  102  103 2    
   204  102  104 am   BACKBONE|DICT|INTERRES
   205  104  105 1    
   206  104  225 1    
   207  105  106 1    
   208  105  107 1    
   209  105  226 1    
   210  106  227 1    
   211  106  228 1    
   212  106  229 1    
   213  107  108 2    
   214  107  109 am   BACKBONE|DICT|INTERRES
   215  109  110 1    
   216  109  230 1    
   217  110  111 1    
   218  110  112 1    
   219  110  231 1    
   220  111  232 1    
   221  111  233 1    
   222  111  234 1    
   223  112  113 2    
   224  112  114 am   BACKBONE|DICT|INTERRES
   225  114  115 1    
   226  114  235 1    
   227  115  116 1    
   228  115  117 1    
   229  115  236 1    
   230  116  237 1    
   231  116  238 1    
   232  116  239 1    
   233  117  118 2    
   234  117  119 am   BACKBONE|DICT|INTERRES
   235  119  120 1    
   236  119  240 1    
   237  120  121 1    
   238  120  124 1    
   239  120  241 1    
   240  121  122 am   BACKBONE|DICT|INTERRES
   241  121  123 2    
   242  122  242 1    
   243  122  243 1    
   244  124  125 1    
   245  124  244 1    
   246  124  245 1    
   247  125  126 1    
   248  126  246 1    
   249  126  247 1    
@<TRIPOS>SUBSTRUCTURE
     1 UNK         1 GROUP             0       ****    0 ROOT    
