@<TRIPOS>MOLECULE
3R540
247   249    1
SMALL
USER_CHARGES


@<TRIPOS>ATOM
      1 CA          5.1687   -9.2615  -48.2180 C.3       0 UNK        -0.1800 
      2 C           4.2090  -10.2852  -47.6280 C.2       0 UNK         0.5000 
      3 O           3.5745  -10.0119  -46.6094 O.2       0 UNK        -0.5000 
      4 N           4.1061  -11.4613  -48.2619 N.am      1 UNK        -0.5000 
      5 CA          3.2122  -12.5570  -47.8659 C.3       1 UNK         0.1400 
      6 C6          3.5746  -13.8660  -48.6123 C.3       23 UNK        -0.0398 
      7 S7          2.9170  -15.3634  -47.7996 S.3       23 UNK        -0.2404 
      8 C8          4.1020  -16.6409  -48.3497 C.3       23 UNK        -0.0205 
      9 C9          3.5994  -17.4949  -49.5125 C.ar      23 UNK        -0.0193 
     10 C10         2.9271  -16.9281  -50.6019 C.ar      23 UNK        -0.1150 
     11 C11         2.4944  -17.7228  -51.6662 C.ar      23 UNK        -0.0193 
     12 C12         2.7384  -19.0986  -51.6406 C.ar      23 UNK        -0.1150 
     13 C13         3.4266  -19.6813  -50.5724 C.ar      23 UNK        -0.0193 
     14 C14         3.8536  -18.8710  -49.5136 C.ar      23 UNK        -0.1150 
     15 C15         3.7514  -21.1734  -50.6070 C.3       23 UNK        -0.0205 
     16 S16         3.4058  -22.0463  -49.0436 S.3       23 UNK        -0.2404 
     17 C17         1.6032  -21.8254  -48.9063 C.3       23 UNK        -0.0398 
     18 CA          0.9021  -23.0151  -48.2109 C.3       11 UNK         0.1400 
     19 N           1.4207  -23.2793  -46.8645 N.am      11 UNK        -0.5000 
     20 C           1.1774  -24.4057  -46.1791 C.2       10 UNK         0.5000 
     21 O           0.5020  -25.3343  -46.6205 O.2       10 UNK        -0.5000 
     22 CA          1.7384  -24.5061  -44.7481 C.3       10 UNK         0.1400 
     23 CB          3.1374  -25.1388  -44.7655 C.3       10 UNK        -0.1800 
     24 N           1.7999  -23.2261  -44.0435 N.am      10 UNK        -0.5000 
     25 C           0.7605  -22.4165  -43.7994 C.2       9 UNK         0.5000 
     26 O          -0.3965  -22.6705  -44.1393 O.2       9 UNK        -0.5000 
     27 CA          1.0703  -21.0767  -43.1011 C.3       9 UNK         0.1400 
     28 CB          2.4020  -21.0723  -42.3194 C.3       9 UNK        -0.1800 
     29 N           1.0387  -19.9426  -44.0278 N.am      9 UNK        -0.5000 
     30 C           1.6965  -19.8143  -45.1911 C.2       8 UNK         0.5000 
     31 O           2.3920  -20.6966  -45.6960 O.2       8 UNK        -0.5000 
     32 CA          1.5565  -18.4688  -45.9207 C.3       8 UNK         0.1400 
     33 CB          0.2965  -18.4513  -46.7913 C.3       8 UNK        -0.1800 
     34 N           1.5168  -17.3184  -45.0234 N.am      8 UNK        -0.5000 
     35 C           2.5418  -16.8699  -44.2880 C.2       7 UNK         0.5000 
     36 O           3.6526  -17.4004  -44.2561 O.2       7 UNK        -0.5000 
     37 CA          2.2724  -15.6145  -43.4422 C.3       7 UNK         0.1400 
     38 CB          2.3516  -14.3454  -44.3054 C.3       7 UNK        -0.1800 
     39 N           0.9578  -15.6814  -42.8059 N.am      7 UNK        -0.5000 
     40 C           0.7303  -16.2057  -41.5943 C.2       6 UNK         0.5000 
     41 O           1.6169  -16.6437  -40.8604 O.2       6 UNK        -0.5000 
     42 CA         -0.7341  -16.2503  -41.1134 C.3       6 UNK         0.1400 
     43 CB         -1.0685  -14.9937  -40.2951 C.3       6 UNK        -0.1800 
     44 N          -1.7037  -16.3806  -42.2024 N.am      6 UNK        -0.5000 
     45 C          -1.8427  -17.4703  -42.9689 C.2       5 UNK         0.5000 
     46 O          -1.1734  -18.4937  -42.8328 O.2       5 UNK        -0.5000 
     47 CA         -2.8705  -17.3876  -44.1123 C.3       5 UNK         0.1400 
     48 CB         -4.2523  -17.8592  -43.6373 C.3       5 UNK        -0.1800 
     49 N          -2.9902  -16.0633  -44.7315 N.am      5 UNK        -0.5000 
     50 C          -1.9843  -15.3971  -45.3133 C.2       4 UNK         0.5000 
     51 O          -0.8094  -15.7667  -45.2826 O.2       4 UNK        -0.5000 
     52 CA         -2.3374  -14.0827  -46.0212 C.3       4 UNK         0.1400 
     53 CB         -1.8383  -12.8813  -45.2042 C.3       4 UNK        -0.1800 
     54 N          -1.7327  -14.0463  -47.3498 N.am      4 UNK        -0.5000 
     55 C          -2.1852  -14.7294  -48.4129 C.2       3 UNK         0.5000 
     56 O          -3.1801  -15.4559  -48.3715 O.2       3 UNK        -0.5000 
     57 CA         -1.4096  -14.5757  -49.7434 C.3       3 UNK         0.1400 
     58 CB         -2.3320  -14.6698  -50.9753 C.3       3 UNK        -0.1800 
     59 N          -0.5821  -13.3653  -49.8078 N.am      3 UNK        -0.5000 
     60 C          -0.9878  -12.0871  -49.7385 C.2       2 UNK         0.5000 
     61 O          -2.1708  -11.7438  -49.7385 O.2       2 UNK        -0.5000 
     62 CA          0.1187  -11.0112  -49.6252 C.3       2 UNK         0.1400 
     63 CB         -0.3073   -9.8399  -48.7157 C.3       2 UNK        -0.1800 
     64 N           1.4329  -11.5207  -49.2012 N.am      2 UNK        -0.5000 
     65 C           1.7275  -12.1846  -48.0700 C.2       1 UNK         0.5000 
     66 O           0.8913  -12.5073  -47.2258 O.2       1 UNK        -0.5000 
     67 C          -0.6255  -22.8077  -48.1902 C.2       11 UNK         0.5000 
     68 O          -1.3155  -23.3055  -49.0784 O.2       11 UNK        -0.5000 
     69 N          -1.1358  -22.1164  -47.1595 N.am      12 UNK        -0.5000 
     70 CA         -2.5699  -21.9243  -46.9361 C.3       12 UNK         0.1400 
     71 CB         -2.8003  -20.7805  -45.9414 C.3       12 UNK        -0.1800 
     72 C          -3.2631  -23.2173  -46.4804 C.2       12 UNK         0.5000 
     73 O          -4.3843  -23.4827  -46.9124 O.2       12 UNK        -0.5000 
     74 N          -2.5725  -24.0229  -45.6612 N.am      13 UNK        -0.5000 
     75 CA         -3.0198  -25.3542  -45.2488 C.3       13 UNK         0.1400 
     76 CB         -2.0814  -25.9101  -44.1680 C.3       13 UNK        -0.1800 
     77 C          -3.1340  -26.3236  -46.4408 C.2       13 UNK         0.5000 
     78 O          -4.1587  -26.9915  -46.5809 O.2       13 UNK        -0.5000 
     79 N          -2.1133  -26.3364  -47.3116 N.am      14 UNK        -0.5000 
     80 CA         -2.0830  -27.1075  -48.5583 C.3       14 UNK         0.1400 
     81 CB         -0.6872  -27.0033  -49.1907 C.3       14 UNK        -0.1800 
     82 C          -3.1658  -26.6744  -49.5656 C.2       14 UNK         0.5000 
     83 O          -3.7208  -27.5226  -50.2643 O.2       14 UNK        -0.5000 
     84 N          -3.4753  -25.3713  -49.5903 N.am      15 UNK        -0.5000 
     85 CA         -4.5511  -24.7730  -50.3825 C.3       15 UNK         0.1400 
     86 CB         -4.2274  -23.2883  -50.6125 C.3       15 UNK        -0.1800 
     87 C          -5.9528  -24.9447  -49.7560 C.2       15 UNK         0.5000 
     88 O          -6.9204  -24.4426  -50.3264 O.2       15 UNK        -0.5000 
     89 N          -6.0507  -25.6275  -48.6045 N.am      16 UNK        -0.5000 
     90 CA         -7.2719  -25.9228  -47.8475 C.3       16 UNK         0.1400 
     91 CB         -8.1913  -26.8760  -48.6397 C.3       16 UNK        -0.1800 
     92 C          -7.9921  -24.6518  -47.3504 C.2       16 UNK         0.5000 
     93 O          -9.2147  -24.5450  -47.4597 O.2       16 UNK        -0.5000 
     94 N          -7.2013  -23.7108  -46.8159 N.am      17 UNK        -0.5000 
     95 CA         -7.5914  -22.4129  -46.2539 C.3       17 UNK         0.1400 
     96 CB         -8.6083  -22.5675  -45.1031 C.3       17 UNK        -0.1800 
     97 C          -8.0254  -21.3694  -47.3042 C.2       17 UNK         0.5000 
     98 O          -8.5625  -20.3242  -46.9318 O.2       17 UNK        -0.5000 
     99 N          -7.7447  -21.6329  -48.5878 N.am      18 UNK        -0.5000 
    100 CA        -7.8002  -20.6442  -49.6653 C.3       18 UNK         0.1400 
    101 CB        -7.9654  -21.3765  -51.0075 C.3       18 UNK        -0.1800 
    102 C         -6.5384  -19.7538  -49.6537 C.2       18 UNK         0.5000 
    103 O         -5.6638  -19.9232  -48.7986 O.2       18 UNK        -0.5000 
    104 N         -6.4477  -18.8279  -50.6182 N.am      19 UNK        -0.5000 
    105 CA        -5.3704  -17.8429  -50.7888 C.3       19 UNK         0.1400 
    106 CB        -5.8690  -16.7352  -51.7349 C.3       19 UNK        -0.1800 
    107 C         -4.0181  -18.4450  -51.2438 C.2       19 UNK         0.5000 
    108 O         -3.4178  -17.9664  -52.2076 O.2       19 UNK        -0.5000 
    109 N         -3.5741  -19.4968  -50.5428 N.am      20 UNK        -0.5000 
    110 CA        -2.2535  -20.1366  -50.5695 C.3       20 UNK         0.1400 
    111 CB        -1.2440  -19.2258  -49.8509 C.3       20 UNK        -0.1800 
    112 C         -1.7594  -20.6356  -51.9447 C.2       20 UNK         0.5000 
    113 O         -0.5661  -20.8925  -52.1083 O.2       20 UNK        -0.5000 
    114 N         -2.6930  -20.7770  -52.8982 N.am      21 UNK        -0.5000 
    115 CA        -2.4892  -21.1217  -54.3087 C.3       21 UNK         0.1400 
    116 CB        -1.9894  -22.5752  -54.4465 C.3       21 UNK        -0.1800 
    117 C         -1.6082  -20.1033  -55.0701 C.2       21 UNK         0.5000 
    118 O         -0.9638  -20.4697  -56.0553 O.2       21 UNK        -0.5000 
    119 N         -1.5874  -18.8476  -54.6026 N.am      22 UNK        -0.5000 
    120 CA        -0.7923  -17.7530  -55.1774 C.3       22 UNK         0.1400 
    121 C         -1.3352  -17.2707  -56.5512 C.2       22 UNK         0.5000 
    122 N         -0.4640  -16.8210  -57.4447 N.am      22 UNK        -0.7600 
    123 O         -2.5386  -17.2606  -56.8027 O.2       22 UNK        -0.5000 
    124 C124       -0.6519  -16.5581  -54.1990 C.3       23 UNK        -0.0398 
    125 S125       -0.0127  -17.0392  -52.5604 S.3       23 UNK        -0.2404 
    126 C126        1.7770  -17.0949  -52.8510 C.3       23 UNK        -0.0205 
    127 H127        4.6288   -8.3538  -48.4879 H         1 UNK         0.0600 
    128 H128        5.6669   -9.6390  -49.1113 H         1 UNK         0.0600 
    129 H129        5.9339   -8.9997  -47.4872 H         1 UNK         0.0600 
    130 H130        4.6675  -11.6224  -49.0862 H         1 UNK         0.3000 
    131 H131        3.3641  -12.7204  -46.7968 H         1 UNK         0.0600 
    132 H132        3.2446  -13.8364  -49.6515 H         1 UNK         0.0800 
    133 H133        4.6605  -13.9605  -48.6481 H         1 UNK         0.0800 
    134 H134        4.3182  -17.2755  -47.4893 H         1 UNK         0.0800 
    135 H135        5.0543  -16.1908  -48.6302 H         1 UNK         0.0800 
    136 H136        2.7363  -15.8664  -50.6292 H         1 UNK         0.1150 
    137 H137        2.4023  -19.7130  -52.4645 H         1 UNK         0.1150 
    138 H138        4.3959  -19.3155  -48.6908 H         1 UNK         0.1150 
    139 H139        3.2038  -21.6693  -51.4102 H         1 UNK         0.0800 
    140 H140        4.8101  -21.2891  -50.8420 H         1 UNK         0.0800 
    141 H141        1.1904  -21.6815  -49.9070 H         1 UNK         0.0800 
    142 H142        1.4318  -20.8979  -48.3646 H         1 UNK         0.0800 
    143 H143        1.0930  -23.9044  -48.8160 H         1 UNK         0.0600 
    144 H144        1.9665  -22.5392  -46.4329 H         1 UNK         0.3000 
    145 H145        1.0763  -25.1602  -44.1786 H         1 UNK         0.0600 
    146 H146        3.5113  -25.2997  -43.7541 H         1 UNK         0.0600 
    147 H147        3.1207  -26.1096  -45.2628 H         1 UNK         0.0600 
    148 H148        3.8556  -24.5110  -45.2946 H         1 UNK         0.0600 
    149 H149        2.7182  -22.9096  -43.7690 H         1 UNK         0.3000 
    150 H150        0.2649  -20.9145  -42.3834 H         1 UNK         0.0600 
    151 H151        2.4490  -21.9024  -41.6133 H         1 UNK         0.0600 
    152 H152        2.5048  -20.1538  -41.7410 H         1 UNK         0.0600 
    153 H153        3.2690  -21.1403  -42.9775 H         1 UNK         0.0600 
    154 H154        0.4326  -19.1831  -43.7324 H         1 UNK         0.3000 
    155 H155        2.4223  -18.3642  -46.5756 H         1 UNK         0.0600 
    156 H156       -0.6056  -18.3889  -46.1856 H         1 UNK         0.0600 
    157 H157        0.3016  -17.5999  -47.4729 H         1 UNK         0.0600 
    158 H158        0.2212  -19.3542  -47.3909 H         1 UNK         0.0600 
    159 H159        0.6551  -16.7763  -45.0334 H         1 UNK         0.3000 
    160 H160        3.0508  -15.5477  -42.6791 H         1 UNK         0.0600 
    161 H161        1.5979  -14.3427  -45.0941 H         1 UNK         0.0600 
    162 H162        3.3277  -14.2626  -44.7844 H         1 UNK         0.0600 
    163 H163        2.2069  -13.4483  -43.7035 H         1 UNK         0.0600 
    164 H164        0.1685  -15.4037  -43.3748 H         1 UNK         0.3000 
    165 H165       -0.8394  -17.1201  -40.4614 H         1 UNK         0.0600 
    166 H166       -2.0754  -15.0487  -39.8807 H         1 UNK         0.0600 
    167 H167       -0.3796  -14.8784  -39.4572 H         1 UNK         0.0600 
    168 H168       -1.0024  -14.0892  -40.9012 H         1 UNK         0.0600 
    169 H169       -2.2901  -15.5812  -42.3916 H         1 UNK         0.3000 
    170 H170       -2.5344  -18.0716  -44.8902 H         1 UNK         0.0600 
    171 H171       -4.1941  -18.8545  -43.1943 H         1 UNK         0.0600 
    172 H172       -4.6708  -17.1883  -42.8861 H         1 UNK         0.0600 
    173 H173       -4.9563  -17.9175  -44.4678 H         1 UNK         0.0600 
    174 H174       -3.9234  -15.6819  -44.7892 H         1 UNK         0.3000 
    175 H175       -3.4214  -14.0038  -46.1268 H         1 UNK         0.0600 
    176 H176       -0.7591  -12.9197  -45.0486 H         1 UNK         0.0600 
    177 H177       -2.0688  -11.9409  -45.7053 H         1 UNK         0.0600 
    178 H178       -2.3108  -12.8529  -44.2217 H         1 UNK         0.0600 
    179 H179       -0.8729  -13.5135  -47.4337 H         1 UNK         0.3000 
    180 H180       -0.7163  -15.4173  -49.7860 H         1 UNK         0.0600 
    181 H181       -2.7915  -15.6550  -51.0354 H         1 UNK         0.0600 
    182 H182       -1.7761  -14.5174  -51.9000 H         1 UNK         0.0600 
    183 H183       -3.1369  -13.9355  -50.9407 H         1 UNK         0.0600 
    184 H184        0.4140  -13.5263  -49.7945 H         1 UNK         0.3000 
    185 H185        0.2556  -10.6155  -50.6325 H         1 UNK         0.0600 
    186 H186       -0.5292  -10.1769  -47.7025 H         1 UNK         0.0600 
    187 H187        0.4760   -9.0844  -48.6529 H         1 UNK         0.0600 
    188 H188       -1.2008   -9.3464  -49.0996 H         1 UNK         0.0600 
    189 H189        2.1968  -11.3066  -49.8269 H         1 UNK         0.3000 
    190 H190       -0.5177  -21.8175  -46.4187 H         1 UNK         0.3000 
    191 H191       -3.0342  -21.6303  -47.8779 H         1 UNK         0.0600 
    192 H192       -2.2823  -20.9441  -44.9960 H         1 UNK         0.0600 
    193 H193       -3.8620  -20.6602  -45.7212 H         1 UNK         0.0600 
    194 H194       -2.4528  -19.8394  -46.3633 H         1 UNK         0.0600 
    195 H195       -1.6826  -23.6990  -45.2964 H         1 UNK         0.3000 
    196 H196       -4.0137  -25.2468  -44.8092 H         1 UNK         0.0600 
    197 H197       -2.4577  -26.8567  -43.7783 H         1 UNK         0.0600 
    198 H198       -1.9944  -25.2220  -43.3268 H         1 UNK         0.0600 
    199 H199       -1.0806  -26.0939  -44.5563 H         1 UNK         0.0600 
    200 H200       -1.2789  -25.7960  -47.0977 H         1 UNK         0.3000 
    201 H201       -2.2661  -28.1540  -48.3064 H         1 UNK         0.0600 
    202 H202        0.0795  -27.3895  -48.5188 H         1 UNK         0.0600 
    203 H203       -0.4315  -25.9709  -49.4317 H         1 UNK         0.0600 
    204 H204       -0.6310  -27.5809  -50.1141 H         1 UNK         0.0600 
    205 H205       -2.9249  -24.7335  -49.0274 H         1 UNK         0.3000 
    206 H206       -4.5751  -25.2630  -51.3579 H         1 UNK         0.0600 
    207 H207       -3.2329  -23.1695  -51.0415 H         1 UNK         0.0600 
    208 H208       -4.9297  -22.8349  -51.3110 H         1 UNK         0.0600 
    209 H209       -4.2689  -22.7188  -49.6838 H         1 UNK         0.0600 
    210 H210       -5.1961  -25.9754  -48.1866 H         1 UNK         0.3000 
    211 H211       -6.9493  -26.4541  -46.9510 H         1 UNK         0.0600 
    212 H212       -8.6002  -26.4001  -49.5314 H         1 UNK         0.0600 
    213 H213       -9.0337  -27.2024  -48.0289 H         1 UNK         0.0600 
    214 H214       -7.6534  -27.7706  -48.9535 H         1 UNK         0.0600 
    215 H215       -6.1942  -23.8644  -46.8405 H         1 UNK         0.3000 
    216 H216       -6.6767  -22.0105  -45.8162 H         1 UNK         0.0600 
    217 H217       -8.7379  -21.6258  -44.5686 H         1 UNK         0.0600 
    218 H218       -8.2730  -23.3070  -44.3760 H         1 UNK         0.0600 
    219 H219       -9.5909  -22.8706  -45.4648 H         1 UNK         0.0600 
    220 H220       -7.3022  -22.5139  -48.8090 H         1 UNK         0.3000 
    221 H221       -8.6696  -20.0009  -49.5156 H         1 UNK         0.0600 
    222 H222       -7.0671  -21.9285  -51.2800 H         1 UNK         0.0600 
    223 H223       -8.7927  -22.0858  -50.9708 H         1 UNK         0.0600 
    224 H224       -8.1784  -20.6790  -51.8179 H         1 UNK         0.0600 
    225 H225       -7.1921  -18.7750  -51.2983 H         1 UNK         0.3000 
    226 H226       -5.1850  -17.3807  -49.8167 H         1 UNK         0.0600 
    227 H227       -6.7828  -16.2754  -51.3583 H         1 UNK         0.0600 
    228 H228       -5.1296  -15.9398  -51.8356 H         1 UNK         0.0600 
    229 H229       -6.0732  -17.1223  -52.7339 H         1 UNK         0.0600 
    230 H230       -4.1938  -19.8104  -49.7971 H         1 UNK         0.3000 
    231 H231       -2.3525  -21.0400  -49.9729 H         1 UNK         0.0600 
    232 H232       -0.2415  -19.6522  -49.8364 H         1 UNK         0.0600 
    233 H233       -1.5543  -19.0676  -48.8193 H         1 UNK         0.0600 
    234 H234       -1.1796  -18.2461  -50.3191 H         1 UNK         0.0600 
    235 H235       -3.6338  -20.5067  -52.6503 H         1 UNK         0.3000 
    236 H236       -3.4736  -21.0691  -54.7754 H         1 UNK         0.0600 
    237 H237       -1.9877  -22.8918  -55.4900 H         1 UNK         0.0600 
    238 H238       -0.9733  -22.6915  -54.0687 H         1 UNK         0.0600 
    239 H239       -2.6313  -23.2664  -53.9000 H         1 UNK         0.0600 
    240 H240       -2.1450  -18.6129  -53.7883 H         1 UNK         0.3000 
    241 H241        0.2086  -18.1527  -55.3504 H         1 UNK         0.0600 
    242 H242       -0.8037  -16.4916  -58.3353 H         1 UNK         0.3800 
    243 H243        0.5280  -16.8139  -57.2635 H         1 UNK         0.3800 
    244 H244       -0.0001  -15.7885  -54.6161 H         1 UNK         0.0800 
    245 H245       -1.6233  -16.0847  -54.0448 H         1 UNK         0.0800 
    246 H246        2.1492  -16.0849  -53.0290 H         1 UNK         0.0800 
    247 H247        1.9862  -17.6680  -53.7551 H         1 UNK         0.0800 
@<TRIPOS>BOND
     1    1    2 1    
     2    1  127 1    
     3    1  128 1    
     4    1  129 1    
     5    2    3 2    
     6    2    4 am   BACKBONE|DICT|INTERRES
     7    4    5 1    
     8    4  130 1    
     9    5    6 1    
    10    5   65 1    
    11    5  131 1    
    12    6    7 1    
    13    6  132 1    
    14    6  133 1    
    15    7    8 1    
    16    8    9 1    
    17    8  134 1    
    18    8  135 1    
    19    9   10 ar   
    20    9   14 ar   
    21   10   11 ar   
    22   10  136 1    
    23   11   12 ar   
    24   11  126 1    
    25   12   13 ar   
    26   12  137 1    
    27   13   14 ar   
    28   13   15 1    
    29   14  138 1    
    30   15   16 1    
    31   15  139 1    
    32   15  140 1    
    33   16   17 1    
    34   17   18 1    
    35   17  141 1    
    36   17  142 1    
    37   18   19 1    
    38   18   67 1    
    39   18  143 1    
    40   19   20 am   BACKBONE|DICT|INTERRES
    41   19  144 1    
    42   20   21 2    
    43   20   22 1    
    44   22   23 1    
    45   22   24 1    
    46   22  145 1    
    47   23  146 1    
    48   23  147 1    
    49   23  148 1    
    50   24   25 am   BACKBONE|DICT|INTERRES
    51   24  149 1    
    52   25   26 2    
    53   25   27 1    
    54   27   28 1    
    55   27   29 1    
    56   27  150 1    
    57   28  151 1    
    58   28  152 1    
    59   28  153 1    
    60   29   30 am   BACKBONE|DICT|INTERRES
    61   29  154 1    
    62   30   31 2    
    63   30   32 1    
    64   32   33 1    
    65   32   34 1    
    66   32  155 1    
    67   33  156 1    
    68   33  157 1    
    69   33  158 1    
    70   34   35 am   BACKBONE|DICT|INTERRES
    71   34  159 1    
    72   35   36 2    
    73   35   37 1    
    74   37   38 1    
    75   37   39 1    
    76   37  160 1    
    77   38  161 1    
    78   38  162 1    
    79   38  163 1    
    80   39   40 am   BACKBONE|DICT|INTERRES
    81   39  164 1    
    82   40   41 2    
    83   40   42 1    
    84   42   43 1    
    85   42   44 1    
    86   42  165 1    
    87   43  166 1    
    88   43  167 1    
    89   43  168 1    
    90   44   45 am   BACKBONE|DICT|INTERRES
    91   44  169 1    
    92   45   46 2    
    93   45   47 1    
    94   47   48 1    
    95   47   49 1    
    96   47  170 1    
    97   48  171 1    
    98   48  172 1    
    99   48  173 1    
   100   49   50 am   BACKBONE|DICT|INTERRES
   101   49  174 1    
   102   50   51 2    
   103   50   52 1    
   104   52   53 1    
   105   52   54 1    
   106   52  175 1    
   107   53  176 1    
   108   53  177 1    
   109   53  178 1    
   110   54   55 am   BACKBONE|DICT|INTERRES
   111   54  179 1    
   112   55   56 2    
   113   55   57 1    
   114   57   58 1    
   115   57   59 1    
   116   57  180 1    
   117   58  181 1    
   118   58  182 1    
   119   58  183 1    
   120   59   60 am   BACKBONE|DICT|INTERRES
   121   59  184 1    
   122   60   61 2    
   123   60   62 1    
   124   62   63 1    
   125   62   64 1    
   126   62  185 1    
   127   63  186 1    
   128   63  187 1    
   129   63  188 1    
   130   64   65 am   BACKBONE|DICT|INTERRES
   131   64  189 1    
   132   65   66 2    
   133   67   68 2    
   134   67   69 am   BACKBONE|DICT|INTERRES
   135   69   70 1    
   136   69  190 1    
   137   70   71 1    
   138   70   72 1    
   139   70  191 1    
   140   71  192 1    
   141   71  193 1    
   142   71  194 1    
   143   72   73 2    
   144   72   74 am   BACKBONE|DICT|INTERRES
   145   74   75 1    
   146   74  195 1    
   147   75   76 1    
   148   75   77 1    
   149   75  196 1    
   150   76  197 1    
   151   76  198 1    
   152   76  199 1    
   153   77   78 2    
   154   77   79 am   BACKBONE|DICT|INTERRES
   155   79   80 1    
   156   79  200 1    
   157   80   81 1    
   158   80   82 1    
   159   80  201 1    
   160   81  202 1    
   161   81  203 1    
   162   81  204 1    
   163   82   83 2    
   164   82   84 am   BACKBONE|DICT|INTERRES
   165   84   85 1    
   166   84  205 1    
   167   85   86 1    
   168   85   87 1    
   169   85  206 1    
   170   86  207 1    
   171   86  208 1    
   172   86  209 1    
   173   87   88 2    
   174   87   89 am   BACKBONE|DICT|INTERRES
   175   89   90 1    
   176   89  210 1    
   177   90   91 1    
   178   90   92 1    
   179   90  211 1    
   180   91  212 1    
   181   91  213 1    
   182   91  214 1    
   183   92   93 2    
   184   92   94 am   BACKBONE|DICT|INTERRES
   185   94   95 1    
   186   94  215 1    
   187   95   96 1    
   188   95   97 1    
   189   95  216 1    
   190   96  217 1    
   191   96  218 1    
   192   96  219 1    
   193   97   98 2    
   194   97   99 am   BACKBONE|DICT|INTERRES
   195   99  100 1    
   196   99  220 1    
   197  100  101 1    
   198  100  102 1    
   199  100  221 1    
   200  101  222 1    
   201  101  223 1    
   202  101  224 1    
   203  102  103 2    
   204  102  104 am   BACKBONE|DICT|INTERRES
   205  104  105 1    
   206  104  225 1    
   207  105  106 1    
   208  105  107 1    
   209  105  226 1    
   210  106  227 1    
   211  106  228 1    
   212  106  229 1    
   213  107  108 2    
   214  107  109 am   BACKBONE|DICT|INTERRES
   215  109  110 1    
   216  109  230 1    
   217  110  111 1    
   218  110  112 1    
   219  110  231 1    
   220  111  232 1    
   221  111  233 1    
   222  111  234 1    
   223  112  113 2    
   224  112  114 am   BACKBONE|DICT|INTERRES
   225  114  115 1    
   226  114  235 1    
   227  115  116 1    
   228  115  117 1    
   229  115  236 1    
   230  116  237 1    
   231  116  238 1    
   232  116  239 1    
   233  117  118 2    
   234  117  119 am   BACKBONE|DICT|INTERRES
   235  119  120 1    
   236  119  240 1    
   237  120  121 1    
   238  120  124 1    
   239  120  241 1    
   240  121  122 am   BACKBONE|DICT|INTERRES
   241  121  123 2    
   242  122  242 1    
   243  122  243 1    
   244  124  125 1    
   245  124  244 1    
   246  124  245 1    
   247  125  126 1    
   248  126  246 1    
   249  126  247 1    
@<TRIPOS>SUBSTRUCTURE
     1 UNK         1 GROUP             0       ****    0 ROOT    
