@<TRIPOS>MOLECULE
3R540
247   249    1
SMALL
USER_CHARGES


@<TRIPOS>ATOM
      1 CA          4.3209  -11.6826  -47.6264 C.3       0 UNK        -0.1800 
      2 C           3.4976  -12.9476  -47.4339 C.2       0 UNK         0.5000 
      3 O           3.8859  -13.8243  -46.6622 O.2       0 UNK        -0.5000 
      4 N           2.3530  -13.0341  -48.1242 N.am      1 UNK        -0.5000 
      5 CA          1.4408  -14.1894  -48.1494 C.3       1 UNK         0.1400 
      6 C6          0.3229  -14.0262  -49.2146 C.3       23 UNK        -0.0398 
      7 S7          0.9534  -13.5065  -50.8533 S.3       23 UNK        -0.2404 
      8 C8          0.3369  -14.8160  -51.9692 C.3       23 UNK        -0.0205 
      9 C9          0.9432  -16.2067  -51.7763 C.ar      23 UNK        -0.0193 
     10 C10         0.2692  -17.3041  -52.3172 C.ar      23 UNK        -0.1150 
     11 C11         0.7584  -18.6057  -52.1600 C.ar      23 UNK        -0.0193 
     12 C12         1.9420  -18.8055  -51.4442 C.ar      23 UNK        -0.1150 
     13 C13         2.6240  -17.7211  -50.8864 C.ar      23 UNK        -0.0193 
     14 C14         2.1384  -16.4255  -51.0824 C.ar      23 UNK        -0.1150 
     15 C15         3.8473  -17.9417  -50.0074 C.3       23 UNK        -0.0205 
     16 S16         3.4697  -18.7765  -48.4214 S.3       23 UNK        -0.2404 
     17 C17         1.7834  -18.2154  -47.9818 C.3       23 UNK        -0.0398 
     18 CA          0.7795  -19.3933  -48.0473 C.3       11 UNK         0.1400 
     19 N           0.8676  -20.2341  -46.8544 N.am      11 UNK        -0.5000 
     20 C           0.3861  -21.4759  -46.7328 C.2       10 UNK         0.5000 
     21 O          -0.3370  -22.0165  -47.5673 O.2       10 UNK        -0.5000 
     22 CA          0.7947  -22.2475  -45.4692 C.3       10 UNK         0.1400 
     23 CB          2.3234  -22.3880  -45.3654 C.3       10 UNK        -0.1800 
     24 N           0.2930  -21.5671  -44.2816 N.am      10 UNK        -0.5000 
     25 C          -0.6704  -22.0374  -43.4794 C.2       9 UNK         0.5000 
     26 O          -1.1787  -23.1521  -43.6061 O.2       9 UNK        -0.5000 
     27 CA         -1.1656  -21.1237  -42.3378 C.3       9 UNK         0.1400 
     28 CB         -0.6725  -21.6501  -40.9807 C.3       9 UNK        -0.1800 
     29 N          -0.7818  -19.7159  -42.4646 N.am      9 UNK        -0.5000 
     30 C          -1.1472  -18.8929  -43.4570 C.2       8 UNK         0.5000 
     31 O          -1.8713  -19.2262  -44.3940 O.2       8 UNK        -0.5000 
     32 CA         -0.5425  -17.4781  -43.4314 C.3       8 UNK         0.1400 
     33 CB         -1.3607  -16.5656  -42.5058 C.3       8 UNK        -0.1800 
     34 N           0.8631  -17.4574  -43.0191 N.am      8 UNK        -0.5000 
     35 C           1.8628  -18.1182  -43.6228 C.2       7 UNK         0.5000 
     36 O           1.7117  -18.8571  -44.5942 O.2       7 UNK        -0.5000 
     37 CA          3.2578  -17.9756  -42.9980 C.3       7 UNK         0.1400 
     38 CB          3.8748  -16.6057  -43.3258 C.3       7 UNK        -0.1800 
     39 N           3.1984  -18.1754  -41.5508 N.am      7 UNK        -0.5000 
     40 C           3.0549  -19.3742  -40.9657 C.2       6 UNK         0.5000 
     41 O           3.0512  -20.4401  -41.5817 O.2       6 UNK        -0.5000 
     42 CA          2.8642  -19.3871  -39.4368 C.3       6 UNK         0.1400 
     43 CB          4.2218  -19.4922  -38.7261 C.3       6 UNK        -0.1800 
     44 N           2.1512  -18.2109  -38.9360 N.am      6 UNK        -0.5000 
     45 C           0.8626  -17.9365  -39.1841 C.2       5 UNK         0.5000 
     46 O           0.1230  -18.6618  -39.8479 O.2       5 UNK        -0.5000 
     47 CA          0.3343  -16.5904  -38.6510 C.3       5 UNK         0.1400 
     48 CB         -0.1228  -16.7270  -37.1913 C.3       5 UNK        -0.1800 
     49 N           1.3162  -15.5049  -38.7577 N.am      5 UNK        -0.5000 
     50 C           1.8400  -15.0798  -39.9137 C.2       4 UNK         0.5000 
     51 O           1.5425  -15.5601  -41.0126 O.2       4 UNK        -0.5000 
     52 CA          2.9048  -13.9780  -39.8355 C.3       4 UNK         0.1400 
     53 CB          4.2385  -14.5320  -39.3037 C.3       4 UNK        -0.1800 
     54 N           3.0884  -13.4722  -41.1864 N.am      4 UNK        -0.5000 
     55 C           3.5203  -12.2636  -41.5505 C.2       3 UNK         0.5000 
     56 O           3.9215  -11.4089  -40.7598 O.2       3 UNK        -0.5000 
     57 CA          3.4866  -11.9589  -43.0632 C.3       3 UNK         0.1400 
     58 CB          4.8745  -12.1997  -43.6766 C.3       3 UNK        -0.1800 
     59 N           2.4923  -12.7449  -43.8086 N.am      3 UNK        -0.5000 
     60 C           1.1630  -12.6666  -43.6363 C.2       2 UNK         0.5000 
     61 O           0.6251  -11.8871  -42.8491 O.2       2 UNK        -0.5000 
     62 CA          0.3075  -13.6000  -44.5096 C.3       2 UNK         0.1400 
     63 CB         -1.2031  -13.3118  -44.4209 C.3       2 UNK        -0.1800 
     64 N           0.7505  -13.4988  -45.8947 N.am      2 UNK        -0.5000 
     65 C           0.8222  -14.5090  -46.7687 C.2       1 UNK         0.5000 
     66 O           0.4402  -15.6524  -46.5225 O.2       1 UNK        -0.5000 
     67 C          -0.6630  -18.9393  -48.3308 C.2       11 UNK         0.5000 
     68 O          -1.2285  -19.3411  -49.3482 O.2       11 UNK        -0.5000 
     69 N          -1.2542  -18.1436  -47.4285 N.am      12 UNK        -0.5000 
     70 CA         -2.6298  -17.6509  -47.5650 C.3       12 UNK         0.1400 
     71 CB         -2.9357  -16.6125  -46.4767 C.3       12 UNK        -0.1800 
     72 C          -3.6799  -18.7787  -47.5667 C.2       12 UNK         0.5000 
     73 O          -4.6551  -18.6974  -48.3136 O.2       12 UNK        -0.5000 
     74 N          -3.4339  -19.8281  -46.7708 N.am      13 UNK        -0.5000 
     75 CA         -4.2370  -21.0489  -46.7150 C.3       13 UNK         0.1400 
     76 CB         -3.7023  -21.9579  -45.6004 C.3       13 UNK        -0.1800 
     77 C          -4.2874  -21.8065  -48.0554 C.2       13 UNK         0.5000 
     78 O          -5.3590  -22.2755  -48.4367 O.2       13 UNK        -0.5000 
     79 N          -3.1461  -21.8927  -48.7550 N.am      14 UNK        -0.5000 
     80 CA         -3.0547  -22.4475  -50.1056 C.3       14 UNK         0.1400 
     81 CB         -1.5851  -22.7224  -50.4616 C.3       14 UNK        -0.1800 
     82 C          -3.6962  -21.5234  -51.1528 C.2       14 UNK         0.5000 
     83 O          -4.3908  -22.0104  -52.0436 O.2       14 UNK        -0.5000 
     84 N          -3.4506  -20.2115  -51.0259 N.am      15 UNK        -0.5000 
     85 CA         -3.9275  -19.1755  -51.9428 C.3       15 UNK         0.1400 
     86 CB         -3.3414  -17.8166  -51.5328 C.3       15 UNK        -0.1800 
     87 C          -5.4600  -19.0835  -52.0220 C.2       15 UNK         0.5000 
     88 O          -5.9895  -18.8849  -53.1158 O.2       15 UNK        -0.5000 
     89 N          -6.1287  -19.2334  -50.8688 N.am      16 UNK        -0.5000 
     90 CA         -7.5789  -19.1840  -50.6731 C.3       16 UNK         0.1400 
     91 CB         -7.8851  -19.4497  -49.1893 C.3       16 UNK        -0.1800 
     92 C          -8.3471  -20.1558  -51.5918 C.2       16 UNK         0.5000 
     93 O          -8.4901  -21.3340  -51.2634 O.2       16 UNK        -0.5000 
     94 N          -8.7935  -19.6328  -52.7432 N.am      17 UNK        -0.5000 
     95 CA         -9.4865  -20.3257  -53.8351 C.3       17 UNK         0.1400 
     96 CB        -10.8757  -20.8149  -53.3723 C.3       17 UNK        -0.1800 
     97 C          -8.6534  -21.4429  -54.5057 C.2       17 UNK         0.5000 
     98 O          -9.2393  -22.3422  -55.1107 O.2       17 UNK        -0.5000 
     99 N          -7.3150  -21.3579  -54.4025 N.am      18 UNK        -0.5000 
    100 CA        -6.3200  -22.3311  -54.8754 C.3       18 UNK         0.1400 
    101 CB        -6.2360  -22.3173  -56.4152 C.3       18 UNK        -0.1800 
    102 C         -6.5846  -23.7391  -54.2985 C.2       18 UNK         0.5000 
    103 O         -6.9848  -24.6529  -55.0247 O.2       18 UNK        -0.5000 
    104 N         -6.4169  -23.8654  -52.9772 N.am      19 UNK        -0.5000 
    105 CA        -6.7575  -25.0357  -52.1672 C.3       19 UNK         0.1400 
    106 CB        -6.8446  -24.6010  -50.6942 C.3       19 UNK        -0.1800 
    107 C         -5.7787  -26.2094  -52.3770 C.2       19 UNK         0.5000 
    108 O         -4.9906  -26.5264  -51.4843 O.2       19 UNK        -0.5000 
    109 N         -5.8398  -26.8152  -53.5718 N.am      20 UNK        -0.5000 
    110 CA        -5.0080  -27.9231  -54.0649 C.3       20 UNK         0.1400 
    111 CB        -5.2663  -29.2087  -53.2519 C.3       20 UNK        -0.1800 
    112 C         -3.5078  -27.5647  -54.1593 C.2       20 UNK         0.5000 
    113 O         -2.6495  -28.4466  -54.0925 O.2       20 UNK        -0.5000 
    114 N         -3.2269  -26.2689  -54.3176 N.am      21 UNK        -0.5000 
    115 CA        -1.9173  -25.6360  -54.3458 C.3       21 UNK         0.1400 
    116 CB        -1.2851  -25.6734  -52.9400 C.3       21 UNK        -0.1800 
    117 C         -2.1131  -24.1917  -54.8317 C.2       21 UNK         0.5000 
    118 O         -3.2528  -23.7303  -54.9381 O.2       21 UNK        -0.5000 
    119 N         -1.0012  -23.5019  -55.1104 N.am      22 UNK        -0.5000 
    120 CA        -0.9589  -22.1041  -55.5790 C.3       22 UNK         0.1400 
    121 C         -1.4281  -21.8905  -57.0535 C.2       22 UNK         0.5000 
    122 N         -1.5584  -22.9348  -57.8630 N.am      22 UNK        -0.7600 
    123 O         -1.6514  -20.7635  -57.4862 O.2       22 UNK        -0.5000 
    124 C124       -1.6300  -21.1188  -54.5748 C.3       23 UNK        -0.0398 
    125 S125       -0.6840  -19.5729  -54.3654 S.3       23 UNK        -0.2404 
    126 C126       -0.0225  -19.8062  -52.6825 C.3       23 UNK        -0.0205 
    127 H127        4.0857  -11.1934  -48.5727 H         1 UNK         0.0600 
    128 H128        5.3854  -11.9194  -47.6247 H         1 UNK         0.0600 
    129 H129        4.1234  -10.9780  -46.8183 H         1 UNK         0.0600 
    130 H130        2.1009  -12.2814  -48.7498 H         1 UNK         0.3000 
    131 H131        2.0451  -15.0552  -48.4234 H         1 UNK         0.0600 
    132 H132       -0.2325  -14.9603  -49.3198 H         1 UNK         0.0800 
    133 H133       -0.4036  -13.2774  -48.8938 H         1 UNK         0.0800 
    134 H134        0.5290  -14.5038  -52.9964 H         1 UNK         0.0800 
    135 H135       -0.7479  -14.8718  -51.8635 H         1 UNK         0.0800 
    136 H136       -0.6533  -17.1429  -52.8565 H         1 UNK         0.1150 
    137 H137        2.3127  -19.8077  -51.2806 H         1 UNK         0.1150 
    138 H138        2.6827  -15.5944  -50.6599 H         1 UNK         0.1150 
    139 H139        4.5810  -18.5356  -50.5538 H         1 UNK         0.0800 
    140 H140        4.3336  -16.9905  -49.7857 H         1 UNK         0.0800 
    141 H141        1.4737  -17.3890  -48.6182 H         1 UNK         0.0800 
    142 H142        1.8202  -17.7950  -46.9774 H         1 UNK         0.0800 
    143 H143        1.0556  -20.0206  -48.8980 H         1 UNK         0.0600 
    144 H144        1.3801  -19.8304  -46.0734 H         1 UNK         0.3000 
    145 H145        0.3743  -23.2519  -45.5512 H         1 UNK         0.0600 
    146 H146        2.5994  -23.0198  -44.5210 H         1 UNK         0.0600 
    147 H147        2.7359  -22.8473  -46.2645 H         1 UNK         0.0600 
    148 H148        2.8166  -21.4244  -45.2308 H         1 UNK         0.0600 
    149 H149        0.6404  -20.6288  -44.1231 H         1 UNK         0.3000 
    150 H150       -2.2563  -21.1682  -42.3457 H         1 UNK         0.0600 
    151 H151       -0.9408  -22.6981  -40.8417 H         1 UNK         0.0600 
    152 H152       -1.1174  -21.0925  -40.1565 H         1 UNK         0.0600 
    153 H153        0.4119  -21.5726  -40.8922 H         1 UNK         0.0600 
    154 H154       -0.2228  -19.3361  -41.7067 H         1 UNK         0.3000 
    155 H155       -0.5889  -17.0737  -44.4435 H         1 UNK         0.0600 
    156 H156       -1.4064  -16.9608  -41.4910 H         1 UNK         0.0600 
    157 H157       -2.3854  -16.4650  -42.8655 H         1 UNK         0.0600 
    158 H158       -0.9345  -15.5652  -42.4487 H         1 UNK         0.0600 
    159 H159        1.0870  -16.8674  -42.2212 H         1 UNK         0.3000 
    160 H160        3.9021  -18.7440  -43.4308 H         1 UNK         0.0600 
    161 H161        4.8649  -16.5015  -42.8820 H         1 UNK         0.0600 
    162 H162        3.2599  -15.7811  -42.9699 H         1 UNK         0.0600 
    163 H163        3.9868  -16.4810  -44.4039 H         1 UNK         0.0600 
    164 H164        3.1379  -17.3470  -40.9782 H         1 UNK         0.3000 
    165 H165        2.2758  -20.2722  -39.1850 H         1 UNK         0.0600 
    166 H166        4.0964  -19.5806  -37.6468 H         1 UNK         0.0600 
    167 H167        4.7706  -20.3733  -39.0613 H         1 UNK         0.0600 
    168 H168        4.8481  -18.6209  -38.9220 H         1 UNK         0.0600 
    169 H169        2.6839  -17.5563  -38.3827 H         1 UNK         0.3000 
    170 H170       -0.5329  -16.3148  -39.2544 H         1 UNK         0.0600 
    171 H171       -0.8672  -17.5177  -37.0883 H         1 UNK         0.0600 
    172 H172        0.7085  -16.9700  -36.5285 H         1 UNK         0.0600 
    173 H173       -0.5797  -15.8042  -36.8333 H         1 UNK         0.0600 
    174 H174        1.6071  -15.0707  -37.8935 H         1 UNK         0.3000 
    175 H175        2.5388  -13.1791  -39.1876 H         1 UNK         0.0600 
    176 H176        4.1296  -14.9205  -38.2906 H         1 UNK         0.0600 
    177 H177        5.0021  -13.7548  -39.2698 H         1 UNK         0.0600 
    178 H178        4.6158  -15.3417  -39.9298 H         1 UNK         0.0600 
    179 H179        2.7143  -14.0883  -41.8959 H         1 UNK         0.3000 
    180 H180        3.2368  -10.9024  -43.1789 H         1 UNK         0.0600 
    181 H181        5.1529  -13.2537  -43.6389 H         1 UNK         0.0600 
    182 H182        5.6424  -11.6373  -43.1439 H         1 UNK         0.0600 
    183 H183        4.9085  -11.8819  -44.7174 H         1 UNK         0.0600 
    184 H184        2.8562  -13.3857  -44.5024 H         1 UNK         0.3000 
    185 H185        0.4908  -14.6113  -44.1417 H         1 UNK         0.0600 
    186 H186       -1.5568  -13.3690  -43.3910 H         1 UNK         0.0600 
    187 H187       -1.4432  -12.3169  -44.7973 H         1 UNK         0.0600 
    188 H188       -1.7767  -14.0355  -44.9980 H         1 UNK         0.0600 
    189 H189        1.1039  -12.5958  -46.1799 H         1 UNK         0.3000 
    190 H190       -0.7319  -17.8312  -46.6221 H         1 UNK         0.3000 
    191 H191       -2.6955  -17.1434  -48.5289 H         1 UNK         0.0600 
    192 H192       -2.8741  -17.0376  -45.4761 H         1 UNK         0.0600 
    193 H193       -3.9422  -16.2100  -46.5972 H         1 UNK         0.0600 
    194 H194       -2.2449  -15.7728  -46.5328 H         1 UNK         0.0600 
    195 H195       -2.6504  -19.7649  -46.1276 H         1 UNK         0.3000 
    196 H196       -5.2579  -20.7586  -46.4590 H         1 UNK         0.0600 
    197 H197       -4.3076  -22.8602  -45.5062 H         1 UNK         0.0600 
    198 H198       -3.7182  -21.4521  -44.6349 H         1 UNK         0.0600 
    199 H199       -2.6768  -22.2700  -45.8000 H         1 UNK         0.0600 
    200 H200       -2.2907  -21.5152  -48.3628 H         1 UNK         0.3000 
    201 H201       -3.5892  -23.3992  -50.1291 H         1 UNK         0.0600 
    202 H202       -1.1723  -23.5137  -49.8360 H         1 UNK         0.0600 
    203 H203       -0.9633  -21.8370  -50.3297 H         1 UNK         0.0600 
    204 H204       -1.4824  -23.0384  -51.4996 H         1 UNK         0.0600 
    205 H205       -2.8291  -19.9066  -50.2816 H         1 UNK         0.3000 
    206 H206       -3.5528  -19.4244  -52.9370 H         1 UNK         0.0600 
    207 H207       -2.2687  -17.8803  -51.3648 H         1 UNK         0.0600 
    208 H208       -3.5098  -17.0707  -52.3102 H         1 UNK         0.0600 
    209 H209       -3.7962  -17.4413  -50.6164 H         1 UNK         0.0600 
    210 H210       -5.5777  -19.3553  -50.0251 H         1 UNK         0.3000 
    211 H211       -7.9062  -18.1679  -50.9009 H         1 UNK         0.0600 
    212 H212       -7.4974  -20.4168  -48.8659 H         1 UNK         0.0600 
    213 H213       -8.9598  -19.4460  -49.0036 H         1 UNK         0.0600 
    214 H214       -7.4427  -18.6838  -48.5521 H         1 UNK         0.0600 
    215 H215       -8.5561  -18.6691  -52.9367 H         1 UNK         0.3000 
    216 H216       -9.6478  -19.5745  -54.6094 H         1 UNK         0.0600 
    217 H217      -11.4642  -21.1810  -54.2144 H         1 UNK         0.0600 
    218 H218      -11.4444  -20.0084  -52.9094 H         1 UNK         0.0600 
    219 H219      -10.7983  -21.6287  -52.6506 H         1 UNK         0.0600 
    220 H220       -6.9388  -20.5667  -53.8905 H         1 UNK         0.3000 
    221 H221       -5.3524  -22.0019  -54.4955 H         1 UNK         0.0600 
    222 H222       -5.4518  -22.9906  -56.7636 H         1 UNK         0.0600 
    223 H223       -5.9961  -21.3210  -56.7864 H         1 UNK         0.0600 
    224 H224       -7.1703  -22.6334  -56.8799 H         1 UNK         0.0600 
    225 H225       -5.9895  -23.0888  -52.4812 H         1 UNK         0.3000 
    226 H226       -7.7491  -25.3814  -52.4662 H         1 UNK         0.0600 
    227 H227       -7.1134  -25.4399  -50.0513 H         1 UNK         0.0600 
    228 H228       -5.8953  -24.2023  -50.3369 H         1 UNK         0.0600 
    229 H229       -7.6018  -23.8299  -50.5536 H         1 UNK         0.0600 
    230 H230       -6.4643  -26.3968  -54.2560 H         1 UNK         0.3000 
    231 H231       -5.3346  -28.1114  -55.0884 H         1 UNK         0.0600 
    232 H232       -6.3307  -29.4392  -53.2058 H         1 UNK         0.0600 
    233 H233       -4.8961  -29.1237  -52.2300 H         1 UNK         0.0600 
    234 H234       -4.7701  -30.0662  -53.7076 H         1 UNK         0.0600 
    235 H235       -3.9886  -25.6065  -54.4073 H         1 UNK         0.3000 
    236 H236       -1.2783  -26.1593  -55.0595 H         1 UNK         0.0600 
    237 H237       -1.0537  -26.6945  -52.6371 H         1 UNK         0.0600 
    238 H238       -0.3518  -25.1108  -52.9020 H         1 UNK         0.0600 
    239 H239       -1.9584  -25.2537  -52.1918 H         1 UNK         0.0600 
    240 H240       -0.1043  -23.9567  -55.0138 H         1 UNK         0.3000 
    241 H241        0.1074  -21.8774  -55.6050 H         1 UNK         0.0600 
    242 H242       -1.8520  -22.7883  -58.8160 H         1 UNK         0.3800 
    243 H243       -1.3698  -23.8678  -57.5349 H         1 UNK         0.3800 
    244 H244       -1.7352  -21.5847  -53.5949 H         1 UNK         0.0800 
    245 H245       -2.6498  -20.8766  -54.8789 H         1 UNK         0.0800 
    246 H246       -0.8473  -19.9932  -51.9962 H         1 UNK         0.0800 
    247 H247        0.6008  -20.7017  -52.6745 H         1 UNK         0.0800 
@<TRIPOS>BOND
     1    1    2 1    
     2    1  127 1    
     3    1  128 1    
     4    1  129 1    
     5    2    3 2    
     6    2    4 am   BACKBONE|DICT|INTERRES
     7    4    5 1    
     8    4  130 1    
     9    5    6 1    
    10    5   65 1    
    11    5  131 1    
    12    6    7 1    
    13    6  132 1    
    14    6  133 1    
    15    7    8 1    
    16    8    9 1    
    17    8  134 1    
    18    8  135 1    
    19    9   10 ar   
    20    9   14 ar   
    21   10   11 ar   
    22   10  136 1    
    23   11   12 ar   
    24   11  126 1    
    25   12   13 ar   
    26   12  137 1    
    27   13   14 ar   
    28   13   15 1    
    29   14  138 1    
    30   15   16 1    
    31   15  139 1    
    32   15  140 1    
    33   16   17 1    
    34   17   18 1    
    35   17  141 1    
    36   17  142 1    
    37   18   19 1    
    38   18   67 1    
    39   18  143 1    
    40   19   20 am   BACKBONE|DICT|INTERRES
    41   19  144 1    
    42   20   21 2    
    43   20   22 1    
    44   22   23 1    
    45   22   24 1    
    46   22  145 1    
    47   23  146 1    
    48   23  147 1    
    49   23  148 1    
    50   24   25 am   BACKBONE|DICT|INTERRES
    51   24  149 1    
    52   25   26 2    
    53   25   27 1    
    54   27   28 1    
    55   27   29 1    
    56   27  150 1    
    57   28  151 1    
    58   28  152 1    
    59   28  153 1    
    60   29   30 am   BACKBONE|DICT|INTERRES
    61   29  154 1    
    62   30   31 2    
    63   30   32 1    
    64   32   33 1    
    65   32   34 1    
    66   32  155 1    
    67   33  156 1    
    68   33  157 1    
    69   33  158 1    
    70   34   35 am   BACKBONE|DICT|INTERRES
    71   34  159 1    
    72   35   36 2    
    73   35   37 1    
    74   37   38 1    
    75   37   39 1    
    76   37  160 1    
    77   38  161 1    
    78   38  162 1    
    79   38  163 1    
    80   39   40 am   BACKBONE|DICT|INTERRES
    81   39  164 1    
    82   40   41 2    
    83   40   42 1    
    84   42   43 1    
    85   42   44 1    
    86   42  165 1    
    87   43  166 1    
    88   43  167 1    
    89   43  168 1    
    90   44   45 am   BACKBONE|DICT|INTERRES
    91   44  169 1    
    92   45   46 2    
    93   45   47 1    
    94   47   48 1    
    95   47   49 1    
    96   47  170 1    
    97   48  171 1    
    98   48  172 1    
    99   48  173 1    
   100   49   50 am   BACKBONE|DICT|INTERRES
   101   49  174 1    
   102   50   51 2    
   103   50   52 1    
   104   52   53 1    
   105   52   54 1    
   106   52  175 1    
   107   53  176 1    
   108   53  177 1    
   109   53  178 1    
   110   54   55 am   BACKBONE|DICT|INTERRES
   111   54  179 1    
   112   55   56 2    
   113   55   57 1    
   114   57   58 1    
   115   57   59 1    
   116   57  180 1    
   117   58  181 1    
   118   58  182 1    
   119   58  183 1    
   120   59   60 am   BACKBONE|DICT|INTERRES
   121   59  184 1    
   122   60   61 2    
   123   60   62 1    
   124   62   63 1    
   125   62   64 1    
   126   62  185 1    
   127   63  186 1    
   128   63  187 1    
   129   63  188 1    
   130   64   65 am   BACKBONE|DICT|INTERRES
   131   64  189 1    
   132   65   66 2    
   133   67   68 2    
   134   67   69 am   BACKBONE|DICT|INTERRES
   135   69   70 1    
   136   69  190 1    
   137   70   71 1    
   138   70   72 1    
   139   70  191 1    
   140   71  192 1    
   141   71  193 1    
   142   71  194 1    
   143   72   73 2    
   144   72   74 am   BACKBONE|DICT|INTERRES
   145   74   75 1    
   146   74  195 1    
   147   75   76 1    
   148   75   77 1    
   149   75  196 1    
   150   76  197 1    
   151   76  198 1    
   152   76  199 1    
   153   77   78 2    
   154   77   79 am   BACKBONE|DICT|INTERRES
   155   79   80 1    
   156   79  200 1    
   157   80   81 1    
   158   80   82 1    
   159   80  201 1    
   160   81  202 1    
   161   81  203 1    
   162   81  204 1    
   163   82   83 2    
   164   82   84 am   BACKBONE|DICT|INTERRES
   165   84   85 1    
   166   84  205 1    
   167   85   86 1    
   168   85   87 1    
   169   85  206 1    
   170   86  207 1    
   171   86  208 1    
   172   86  209 1    
   173   87   88 2    
   174   87   89 am   BACKBONE|DICT|INTERRES
   175   89   90 1    
   176   89  210 1    
   177   90   91 1    
   178   90   92 1    
   179   90  211 1    
   180   91  212 1    
   181   91  213 1    
   182   91  214 1    
   183   92   93 2    
   184   92   94 am   BACKBONE|DICT|INTERRES
   185   94   95 1    
   186   94  215 1    
   187   95   96 1    
   188   95   97 1    
   189   95  216 1    
   190   96  217 1    
   191   96  218 1    
   192   96  219 1    
   193   97   98 2    
   194   97   99 am   BACKBONE|DICT|INTERRES
   195   99  100 1    
   196   99  220 1    
   197  100  101 1    
   198  100  102 1    
   199  100  221 1    
   200  101  222 1    
   201  101  223 1    
   202  101  224 1    
   203  102  103 2    
   204  102  104 am   BACKBONE|DICT|INTERRES
   205  104  105 1    
   206  104  225 1    
   207  105  106 1    
   208  105  107 1    
   209  105  226 1    
   210  106  227 1    
   211  106  228 1    
   212  106  229 1    
   213  107  108 2    
   214  107  109 am   BACKBONE|DICT|INTERRES
   215  109  110 1    
   216  109  230 1    
   217  110  111 1    
   218  110  112 1    
   219  110  231 1    
   220  111  232 1    
   221  111  233 1    
   222  111  234 1    
   223  112  113 2    
   224  112  114 am   BACKBONE|DICT|INTERRES
   225  114  115 1    
   226  114  235 1    
   227  115  116 1    
   228  115  117 1    
   229  115  236 1    
   230  116  237 1    
   231  116  238 1    
   232  116  239 1    
   233  117  118 2    
   234  117  119 am   BACKBONE|DICT|INTERRES
   235  119  120 1    
   236  119  240 1    
   237  120  121 1    
   238  120  124 1    
   239  120  241 1    
   240  121  122 am   BACKBONE|DICT|INTERRES
   241  121  123 2    
   242  122  242 1    
   243  122  243 1    
   244  124  125 1    
   245  124  244 1    
   246  124  245 1    
   247  125  126 1    
   248  126  246 1    
   249  126  247 1    
@<TRIPOS>SUBSTRUCTURE
     1 UNK         1 GROUP             0       ****    0 ROOT    
