@<TRIPOS>MOLECULE
3R540
247   249    1
SMALL
USER_CHARGES


@<TRIPOS>ATOM
      1 CA          1.6587  -11.9819  -48.9219 C.3       0 UNK        -0.1800 
      2 C           1.3635  -13.0682  -47.8974 C.2       0 UNK         0.5000 
      3 O           1.7580  -12.9417  -46.7380 O.2       0 UNK        -0.5000 
      4 N           0.6778  -14.1363  -48.3219 N.am      1 UNK        -0.5000 
      5 CA          0.2223  -15.2317  -47.4629 C.3       1 UNK         0.1400 
      6 C6         -0.0073  -16.5496  -48.2462 C.3       23 UNK        -0.0398 
      7 S7         -0.9640  -16.4291  -49.8011 S.3       23 UNK        -0.2404 
      8 C8          0.3413  -16.3497  -51.0801 C.3       23 UNK        -0.0205 
      9 C9          1.0769  -17.6708  -51.2800 C.ar      23 UNK        -0.0193 
     10 C10         0.6462  -18.5931  -52.2408 C.ar      23 UNK        -0.1150 
     11 C11         1.3496  -19.7869  -52.4475 C.ar      23 UNK        -0.0193 
     12 C12         2.4652  -20.0716  -51.6538 C.ar      23 UNK        -0.1150 
     13 C13         2.8924  -19.1679  -50.6795 C.ar      23 UNK        -0.0193 
     14 C14         2.2218  -17.9534  -50.5308 C.ar      23 UNK        -0.1150 
     15 C15         4.0759  -19.4972  -49.7829 C.3       23 UNK        -0.0205 
     16 S16         3.6792  -20.7871  -48.5557 S.3       23 UNK        -0.2404 
     17 C17         2.3048  -20.0567  -47.5952 C.3       23 UNK        -0.0398 
     18 CA          1.1985  -21.1062  -47.2899 C.3       11 UNK         0.1400 
     19 N           1.1047  -21.4189  -45.8605 N.am      11 UNK        -0.5000 
     20 C           0.4270  -22.4613  -45.3591 C.2       10 UNK         0.5000 
     21 O          -0.1429  -23.3009  -46.0558 O.2       10 UNK        -0.5000 
     22 CA          0.3167  -22.5476  -43.8253 C.3       10 UNK         0.1400 
     23 CB          1.5642  -23.2065  -43.2189 C.3       10 UNK        -0.1800 
     24 N           0.0955  -21.2387  -43.2070 N.am      10 UNK        -0.5000 
     25 C          -0.9935  -20.4833  -43.4072 C.2       9 UNK         0.5000 
     26 O          -1.9548  -20.8468  -44.0829 O.2       9 UNK        -0.5000 
     27 CA         -0.9833  -19.0638  -42.8115 C.3       9 UNK         0.1400 
     28 CB         -1.3985  -19.0734  -41.3340 C.3       9 UNK        -0.1800 
     29 N           0.3195  -18.4134  -42.9611 N.am      9 UNK        -0.5000 
     30 C           0.8450  -18.0332  -44.1335 C.2       8 UNK         0.5000 
     31 O           0.2353  -18.0797  -45.2023 O.2       8 UNK        -0.5000 
     32 CA          2.2993  -17.5376  -44.1220 C.3       8 UNK         0.1400 
     33 CB          2.3600  -16.0225  -43.8878 C.3       8 UNK        -0.1800 
     34 N           3.1002  -18.2245  -43.1100 N.am      8 UNK        -0.5000 
     35 C           3.5222  -19.4923  -43.2152 C.2       7 UNK         0.5000 
     36 O           3.3061  -20.1993  -44.1990 O.2       7 UNK        -0.5000 
     37 CA          4.2668  -20.0808  -42.0010 C.3       7 UNK         0.1400 
     38 CB          5.7589  -19.7219  -42.0569 C.3       7 UNK        -0.1800 
     39 N           3.7082  -19.6317  -40.7238 N.am      7 UNK        -0.5000 
     40 C           2.4805  -19.9434  -40.2847 C.2       6 UNK         0.5000 
     41 O           1.7199  -20.7013  -40.8847 O.2       6 UNK        -0.5000 
     42 CA          1.9966  -19.2530  -38.9928 C.3       6 UNK         0.1400 
     43 CB          2.3169  -20.1237  -37.7691 C.3       6 UNK        -0.1800 
     44 N           2.5439  -17.9070  -38.7850 N.am      6 UNK        -0.5000 
     45 C           2.4253  -16.8802  -39.6387 C.2       5 UNK         0.5000 
     46 O           1.8468  -16.9704  -40.7234 O.2       5 UNK        -0.5000 
     47 CA          3.1262  -15.5693  -39.2247 C.3       5 UNK         0.1400 
     48 CB          4.6463  -15.7816  -39.1051 C.3       5 UNK        -0.1800 
     49 N           2.9022  -14.4641  -40.1590 N.am      5 UNK        -0.5000 
     50 C           1.7548  -13.7981  -40.3397 C.2       4 UNK         0.5000 
     51 O           0.7159  -14.0462  -39.7239 O.2       4 UNK        -0.5000 
     52 CA          1.7769  -12.6317  -41.3477 C.3       4 UNK         0.1400 
     53 CB          2.9894  -12.6345  -42.3086 C.3       4 UNK        -0.1800 
     54 N           0.5180  -12.6025  -42.0894 N.am      4 UNK        -0.5000 
     55 C           0.0350  -11.5523  -42.7627 C.2       3 UNK         0.5000 
     56 O           0.6376  -10.4807  -42.8555 O.2       3 UNK        -0.5000 
     57 CA         -1.3501  -11.7107  -43.4325 C.3       3 UNK         0.1400 
     58 CB         -1.6371  -10.6007  -44.4608 C.3       3 UNK        -0.1800 
     59 N          -1.5520  -13.0025  -44.0920 N.am      3 UNK        -0.5000 
     60 C          -1.8599  -14.1589  -43.4974 C.2       2 UNK         0.5000 
     61 O          -1.9022  -14.2998  -42.2757 O.2       2 UNK        -0.5000 
     62 CA         -2.1685  -15.3625  -44.4080 C.3       2 UNK         0.1400 
     63 CB         -3.6230  -15.2989  -44.9149 C.3       2 UNK        -0.1800 
     64 N          -1.2036  -15.5667  -45.4998 N.am      2 UNK        -0.5000 
     65 C          -0.9754  -14.8086  -46.5821 C.2       1 UNK         0.5000 
     66 O          -1.6297  -13.8005  -46.8618 O.2       1 UNK        -0.5000 
     67 C          -0.1757  -20.7221  -47.8859 C.2       11 UNK         0.5000 
     68 O          -0.5019  -21.1751  -48.9815 O.2       11 UNK        -0.5000 
     69 N          -0.9903  -19.9596  -47.1381 N.am      12 UNK        -0.5000 
     70 CA         -2.3743  -19.6440  -47.5085 C.3       12 UNK         0.1400 
     71 CB         -2.9633  -18.5824  -46.5713 C.3       12 UNK        -0.1800 
     72 C          -3.2867  -20.8803  -47.5346 C.2       12 UNK         0.5000 
     73 O          -4.1273  -20.9849  -48.4267 O.2       12 UNK        -0.5000 
     74 N          -3.0979  -21.8006  -46.5794 N.am      13 UNK        -0.5000 
     75 CA         -3.7990  -23.0832  -46.5214 C.3       13 UNK         0.1400 
     76 CB         -3.5204  -23.7752  -45.1788 C.3       13 UNK        -0.1800 
     77 C          -3.4396  -23.9954  -47.7084 C.2       13 UNK         0.5000 
     78 O          -4.3387  -24.5872  -48.3052 O.2       13 UNK        -0.5000 
     79 N          -2.1487  -24.0420  -48.0711 N.am      14 UNK        -0.5000 
     80 CA         -1.6390  -24.7354  -49.2586 C.3       14 UNK         0.1400 
     81 CB         -0.1029  -24.7301  -49.2391 C.3       14 UNK        -0.1800 
     82 C          -2.1698  -24.1349  -50.5755 C.2       14 UNK         0.5000 
     83 O          -2.4693  -24.8795  -51.5096 O.2       14 UNK        -0.5000 
     84 N          -2.3182  -22.8041  -50.6090 N.am      15 UNK        -0.5000 
     85 CA         -2.9084  -22.0548  -51.7169 C.3       15 UNK         0.1400 
     86 CB         -2.4694  -20.5864  -51.6163 C.3       15 UNK        -0.1800 
     87 C          -4.4452  -22.1476  -51.7816 C.2       15 UNK         0.5000 
     88 O          -5.0263  -21.6903  -52.7689 O.2       15 UNK        -0.5000 
     89 N          -5.0735  -22.6867  -50.7266 N.am      16 UNK        -0.5000 
     90 CA         -6.5156  -22.7594  -50.4763 C.3       16 UNK         0.1400 
     91 CB         -7.1915  -23.7366  -51.4584 C.3       16 UNK        -0.1800 
     92 C          -7.1647  -21.3611  -50.4716 C.2       16 UNK         0.5000 
     93 O          -8.1625  -21.1382  -51.1559 O.2       16 UNK        -0.5000 
     94 N          -6.5321  -20.4198  -49.7547 N.am      17 UNK        -0.5000 
     95 CA         -6.8552  -18.9873  -49.7033 C.3       17 UNK         0.1400 
     96 CB         -8.2103  -18.7527  -49.0043 C.3       17 UNK        -0.1800 
     97 C          -6.7611  -18.3110  -51.0902 C.2       17 UNK         0.5000 
     98 O          -7.5485  -17.4179  -51.4053 O.2       17 UNK        -0.5000 
     99 N          -5.7982  -18.7860  -51.8936 N.am      18 UNK        -0.5000 
    100 CA        -5.5032  -18.4242  -53.2827 C.3       18 UNK         0.1400 
    101 CB        -5.1867  -16.9211  -53.4250 C.3       18 UNK        -0.1800 
    102 C         -6.5457  -18.9186  -54.3086 C.2       18 UNK         0.5000 
    103 O         -6.4685  -18.5190  -55.4711 O.2       18 UNK        -0.5000 
    104 N         -7.4721  -19.8015  -53.9018 N.am      19 UNK        -0.5000 
    105 CA        -8.4379  -20.4345  -54.8040 C.3       19 UNK         0.1400 
    106 CB        -9.6198  -20.9976  -54.0013 C.3       19 UNK        -0.1800 
    107 C         -7.7928  -21.5399  -55.6595 C.2       19 UNK         0.5000 
    108 O         -8.1475  -21.6805  -56.8306 O.2       19 UNK        -0.5000 
    109 N         -6.8520  -22.2905  -55.0688 N.am      20 UNK        -0.5000 
    110 CA        -6.0548  -23.3061  -55.7603 C.3       20 UNK         0.1400 
    111 CB        -5.7804  -24.4803  -54.8073 C.3       20 UNK        -0.1800 
    112 C         -4.7311  -22.7206  -56.2785 C.2       20 UNK         0.5000 
    113 O         -4.1802  -23.2385  -57.2511 O.2       20 UNK        -0.5000 
    114 N         -4.2320  -21.6720  -55.6030 N.am      21 UNK        -0.5000 
    115 CA        -3.0100  -20.9146  -55.9056 C.3       21 UNK         0.1400 
    116 CB        -3.1952  -20.0932  -57.1970 C.3       21 UNK        -0.1800 
    117 C         -1.7361  -21.7879  -55.9251 C.2       21 UNK         0.5000 
    118 O         -0.7888  -21.4888  -56.6530 O.2       21 UNK        -0.5000 
    119 N         -1.7548  -22.8562  -55.1176 N.am      22 UNK        -0.5000 
    120 CA        -0.7268  -23.9026  -54.9998 C.3       22 UNK         0.1400 
    121 C         -0.6288  -24.8415  -56.2430 C.2       22 UNK         0.5000 
    122 N         -1.5858  -24.8353  -57.1653 N.am      22 UNK        -0.7600 
    123 O          0.3154  -25.6177  -56.3630 O.2       22 UNK        -0.5000 
    124 C124        0.6612  -23.3689  -54.5429 C.3       23 UNK        -0.0398 
    125 S125        0.6110  -22.4318  -52.9730 S.3       23 UNK        -0.2404 
    126 C126        0.9489  -20.7408  -53.5654 C.3       23 UNK        -0.0205 
    127 H127        1.2114  -11.0391  -48.6070 H         1 UNK         0.0600 
    128 H128        1.2633  -12.2344  -49.9061 H         1 UNK         0.0600 
    129 H129        2.7349  -11.8360  -49.0148 H         1 UNK         0.0600 
    130 H130        0.3284  -14.1604  -49.2686 H         1 UNK         0.3000 
    131 H131        1.0375  -15.4413  -46.7694 H         1 UNK         0.0600 
    132 H132        0.9618  -16.9859  -48.4546 H         1 UNK         0.0800 
    133 H133       -0.4877  -17.2932  -47.6170 H         1 UNK         0.0800 
    134 H134       -0.1190  -16.0462  -52.0216 H         1 UNK         0.0800 
    135 H135        1.0535  -15.5622  -50.8307 H         1 UNK         0.0800 
    136 H136       -0.2219  -18.3679  -52.8441 H         1 UNK         0.1150 
    137 H137        3.0015  -20.9997  -51.7938 H         1 UNK         0.1150 
    138 H138        2.5906  -17.2326  -49.8161 H         1 UNK         0.1150 
    139 H139        4.9081  -19.8401  -50.3993 H         1 UNK         0.0800 
    140 H140        4.4297  -18.6065  -49.2612 H         1 UNK         0.0800 
    141 H141        1.9051  -19.1925  -48.1231 H         1 UNK         0.0800 
    142 H142        2.7279  -19.6477  -46.6788 H         1 UNK         0.0800 
    143 H143        1.4663  -22.0452  -47.7796 H         1 UNK         0.0600 
    144 H144        1.6101  -20.8152  -45.2220 H         1 UNK         0.3000 
    145 H145       -0.5446  -23.1761  -43.5899 H         1 UNK         0.0600 
    146 H146        1.4633  -23.3215  -42.1395 H         1 UNK         0.0600 
    147 H147        1.7227  -24.2004  -43.6391 H         1 UNK         0.0600 
    148 H148        2.4644  -22.6228  -43.4095 H         1 UNK         0.0600 
    149 H149        0.8127  -20.9066  -42.5687 H         1 UNK         0.3000 
    150 H150       -1.7202  -18.4762  -43.3601 H         1 UNK         0.0600 
    151 H151       -2.4129  -19.4574  -41.2204 H         1 UNK         0.0600 
    152 H152       -1.3807  -18.0683  -40.9118 H         1 UNK         0.0600 
    153 H153       -0.7446  -19.7031  -40.7324 H         1 UNK         0.0600 
    154 H154        0.8680  -18.2726  -42.1208 H         1 UNK         0.3000 
    155 H155        2.7311  -17.7430  -45.1035 H         1 UNK         0.0600 
    156 H156        1.8927  -15.7341  -42.9472 H         1 UNK         0.0600 
    157 H157        3.3924  -15.6733  -43.8741 H         1 UNK         0.0600 
    158 H158        1.8460  -15.4755  -44.6761 H         1 UNK         0.0600 
    159 H159        3.2311  -17.7347  -42.2350 H         1 UNK         0.3000 
    160 H160        4.1742  -21.1679  -42.0491 H         1 UNK         0.0600 
    161 H161        5.9185  -18.6452  -41.9864 H         1 UNK         0.0600 
    162 H162        6.2063  -20.0599  -42.9926 H         1 UNK         0.0600 
    163 H163        6.3093  -20.1971  -41.2447 H         1 UNK         0.0600 
    164 H164        4.2740  -19.0069  -40.1692 H         1 UNK         0.3000 
    165 H165        0.9121  -19.1537  -39.0639 H         1 UNK         0.0600 
    166 H166        1.8913  -19.6991  -36.8597 H         1 UNK         0.0600 
    167 H167        1.9009  -21.1258  -37.8829 H         1 UNK         0.0600 
    168 H168        3.3923  -20.2294  -37.6205 H         1 UNK         0.0600 
    169 H169        3.0412  -17.7608  -37.9183 H         1 UNK         0.3000 
    170 H170        2.7336  -15.2757  -38.2492 H         1 UNK         0.0600 
    171 H171        5.0822  -16.1082  -40.0503 H         1 UNK         0.0600 
    172 H172        5.1496  -14.8618  -38.8061 H         1 UNK         0.0600 
    173 H173        4.8906  -16.5330  -38.3536 H         1 UNK         0.0600 
    174 H174        3.6928  -14.2027  -40.7286 H         1 UNK         0.3000 
    175 H175        1.8303  -11.7232  -40.7445 H         1 UNK         0.0600 
    176 H176        2.9800  -11.7650  -42.9653 H         1 UNK         0.0600 
    177 H177        2.9998  -13.5175  -42.9437 H         1 UNK         0.0600 
    178 H178        3.9343  -12.5966  -41.7658 H         1 UNK         0.0600 
    179 H179       -0.0779  -13.4174  -41.9774 H         1 UNK         0.3000 
    180 H180       -2.0903  -11.6170  -42.6353 H         1 UNK         0.0600 
    181 H181       -0.9192  -10.6222  -45.2819 H         1 UNK         0.0600 
    182 H182       -1.5868   -9.6124  -44.0020 H         1 UNK         0.0600 
    183 H183       -2.6353  -10.7057  -44.8863 H         1 UNK         0.0600 
    184 H184       -1.5229  -13.0021  -45.1076 H         1 UNK         0.3000 
    185 H185       -2.0866  -16.2481  -43.7786 H         1 UNK         0.0600 
    186 H186       -3.8891  -16.1828  -45.4904 H         1 UNK         0.0600 
    187 H187       -4.3201  -15.2416  -44.0780 H         1 UNK         0.0600 
    188 H188       -3.8034  -14.4257  -45.5419 H         1 UNK         0.0600 
    189 H189       -0.6255  -16.3942  -45.3832 H         1 UNK         0.3000 
    190 H190       -0.6531  -19.5902  -46.2565 H         1 UNK         0.3000 
    191 H191       -2.3617  -19.2266  -48.5174 H         1 UNK         0.0600 
    192 H192       -2.4599  -17.6286  -46.6929 H         1 UNK         0.0600 
    193 H193       -4.0179  -18.4099  -46.7908 H         1 UNK         0.0600 
    194 H194       -2.8918  -18.8717  -45.5241 H         1 UNK         0.0600 
    195 H195       -2.4437  -21.5984  -45.8296 H         1 UNK         0.3000 
    196 H196       -4.8701  -22.8766  -46.5749 H         1 UNK         0.0600 
    197 H197       -4.0897  -24.7016  -45.0943 H         1 UNK         0.0600 
    198 H198       -3.8064  -23.1391  -44.3409 H         1 UNK         0.0600 
    199 H199       -2.4674  -24.0280  -45.0615 H         1 UNK         0.0600 
    200 H200       -1.4641  -23.5642  -47.4920 H         1 UNK         0.3000 
    201 H201       -1.9762  -25.7726  -49.2074 H         1 UNK         0.0600 
    202 H202        0.2828  -25.1910  -48.3296 H         1 UNK         0.0600 
    203 H203        0.2984  -23.7184  -49.2979 H         1 UNK         0.0600 
    204 H204        0.2989  -25.2890  -50.0851 H         1 UNK         0.0600 
    205 H205       -1.9532  -22.2560  -49.8359 H         1 UNK         0.3000 
    206 H206       -2.5162  -22.4642  -52.6450 H         1 UNK         0.0600 
    207 H207       -1.3879  -20.5075  -51.5144 H         1 UNK         0.0600 
    208 H208       -2.7479  -20.0288  -52.5096 H         1 UNK         0.0600 
    209 H209       -2.9179  -20.0864  -50.7581 H         1 UNK         0.0600 
    210 H210       -4.4935  -23.0109  -49.9634 H         1 UNK         0.3000 
    211 H211       -6.6349  -23.1618  -49.4694 H         1 UNK         0.0600 
    212 H212       -7.1856  -23.3551  -52.4780 H         1 UNK         0.0600 
    213 H213       -8.2327  -23.9060  -51.1825 H         1 UNK         0.0600 
    214 H214       -6.6921  -24.7054  -51.4585 H         1 UNK         0.0600 
    215 H215       -5.6887  -20.6940  -49.2501 H         1 UNK         0.3000 
    216 H216       -6.0827  -18.5242  -49.0876 H         1 UNK         0.0600 
    217 H217       -8.3856  -17.6890  -48.8396 H         1 UNK         0.0600 
    218 H218       -8.2399  -19.2401  -48.0299 H         1 UNK         0.0600 
    219 H219       -9.0439  -19.1327  -49.5955 H         1 UNK         0.0600 
    220 H220       -5.2562  -19.5596  -51.5371 H         1 UNK         0.3000 
    221 H221       -4.5887  -18.9616  -53.5321 H         1 UNK         0.0600 
    222 H222       -6.0740  -16.3031  -53.2881 H         1 UNK         0.0600 
    223 H223       -4.4391  -16.6046  -52.6975 H         1 UNK         0.0600 
    224 H224       -4.7873  -16.6981  -54.4150 H         1 UNK         0.0600 
    225 H225       -7.4944  -20.0938  -52.9318 H         1 UNK         0.3000 
    226 H226       -8.8302  -19.6710  -55.4793 H         1 UNK         0.0600 
    227 H227      -10.0539  -20.2402  -53.3483 H         1 UNK         0.0600 
    228 H228      -10.4093  -21.3452  -54.6685 H         1 UNK         0.0600 
    229 H229       -9.3227  -21.8455  -53.3836 H         1 UNK         0.0600 
    230 H230       -6.5907  -22.0846  -54.1116 H         1 UNK         0.3000 
    231 H231       -6.6064  -23.6940  -56.6192 H         1 UNK         0.0600 
    232 H232       -5.2047  -24.1736  -53.9341 H         1 UNK         0.0600 
    233 H233       -5.2147  -25.2655  -55.3106 H         1 UNK         0.0600 
    234 H234       -6.7105  -24.9269  -54.4559 H         1 UNK         0.0600 
    235 H235       -4.7256  -21.3910  -54.7640 H         1 UNK         0.3000 
    236 H236       -2.8762  -20.2095  -55.0844 H         1 UNK         0.0600 
    237 H237       -4.0918  -19.4752  -57.1438 H         1 UNK         0.0600 
    238 H238       -2.3504  -19.4235  -57.3618 H         1 UNK         0.0600 
    239 H239       -3.2814  -20.7347  -58.0745 H         1 UNK         0.0600 
    240 H240       -2.5995  -23.0265  -54.5948 H         1 UNK         0.3000 
    241 H241       -1.0860  -24.5550  -54.2029 H         1 UNK         0.0600 
    242 H242       -2.3815  -24.2103  -57.1002 H         1 UNK         0.3800 
    243 H243       -1.5099  -25.4569  -57.9547 H         1 UNK         0.3800 
    244 H244        1.3462  -24.2029  -54.3831 H         1 UNK         0.0800 
    245 H245        1.1161  -22.7649  -55.3284 H         1 UNK         0.0800 
    246 H246        0.0696  -20.3680  -54.0906 H         1 UNK         0.0800 
    247 H247        1.7599  -20.7642  -54.2943 H         1 UNK         0.0800 
@<TRIPOS>BOND
     1    1    2 1    
     2    1  127 1    
     3    1  128 1    
     4    1  129 1    
     5    2    3 2    
     6    2    4 am   BACKBONE|DICT|INTERRES
     7    4    5 1    
     8    4  130 1    
     9    5    6 1    
    10    5   65 1    
    11    5  131 1    
    12    6    7 1    
    13    6  132 1    
    14    6  133 1    
    15    7    8 1    
    16    8    9 1    
    17    8  134 1    
    18    8  135 1    
    19    9   10 ar   
    20    9   14 ar   
    21   10   11 ar   
    22   10  136 1    
    23   11   12 ar   
    24   11  126 1    
    25   12   13 ar   
    26   12  137 1    
    27   13   14 ar   
    28   13   15 1    
    29   14  138 1    
    30   15   16 1    
    31   15  139 1    
    32   15  140 1    
    33   16   17 1    
    34   17   18 1    
    35   17  141 1    
    36   17  142 1    
    37   18   19 1    
    38   18   67 1    
    39   18  143 1    
    40   19   20 am   BACKBONE|DICT|INTERRES
    41   19  144 1    
    42   20   21 2    
    43   20   22 1    
    44   22   23 1    
    45   22   24 1    
    46   22  145 1    
    47   23  146 1    
    48   23  147 1    
    49   23  148 1    
    50   24   25 am   BACKBONE|DICT|INTERRES
    51   24  149 1    
    52   25   26 2    
    53   25   27 1    
    54   27   28 1    
    55   27   29 1    
    56   27  150 1    
    57   28  151 1    
    58   28  152 1    
    59   28  153 1    
    60   29   30 am   BACKBONE|DICT|INTERRES
    61   29  154 1    
    62   30   31 2    
    63   30   32 1    
    64   32   33 1    
    65   32   34 1    
    66   32  155 1    
    67   33  156 1    
    68   33  157 1    
    69   33  158 1    
    70   34   35 am   BACKBONE|DICT|INTERRES
    71   34  159 1    
    72   35   36 2    
    73   35   37 1    
    74   37   38 1    
    75   37   39 1    
    76   37  160 1    
    77   38  161 1    
    78   38  162 1    
    79   38  163 1    
    80   39   40 am   BACKBONE|DICT|INTERRES
    81   39  164 1    
    82   40   41 2    
    83   40   42 1    
    84   42   43 1    
    85   42   44 1    
    86   42  165 1    
    87   43  166 1    
    88   43  167 1    
    89   43  168 1    
    90   44   45 am   BACKBONE|DICT|INTERRES
    91   44  169 1    
    92   45   46 2    
    93   45   47 1    
    94   47   48 1    
    95   47   49 1    
    96   47  170 1    
    97   48  171 1    
    98   48  172 1    
    99   48  173 1    
   100   49   50 am   BACKBONE|DICT|INTERRES
   101   49  174 1    
   102   50   51 2    
   103   50   52 1    
   104   52   53 1    
   105   52   54 1    
   106   52  175 1    
   107   53  176 1    
   108   53  177 1    
   109   53  178 1    
   110   54   55 am   BACKBONE|DICT|INTERRES
   111   54  179 1    
   112   55   56 2    
   113   55   57 1    
   114   57   58 1    
   115   57   59 1    
   116   57  180 1    
   117   58  181 1    
   118   58  182 1    
   119   58  183 1    
   120   59   60 am   BACKBONE|DICT|INTERRES
   121   59  184 1    
   122   60   61 2    
   123   60   62 1    
   124   62   63 1    
   125   62   64 1    
   126   62  185 1    
   127   63  186 1    
   128   63  187 1    
   129   63  188 1    
   130   64   65 am   BACKBONE|DICT|INTERRES
   131   64  189 1    
   132   65   66 2    
   133   67   68 2    
   134   67   69 am   BACKBONE|DICT|INTERRES
   135   69   70 1    
   136   69  190 1    
   137   70   71 1    
   138   70   72 1    
   139   70  191 1    
   140   71  192 1    
   141   71  193 1    
   142   71  194 1    
   143   72   73 2    
   144   72   74 am   BACKBONE|DICT|INTERRES
   145   74   75 1    
   146   74  195 1    
   147   75   76 1    
   148   75   77 1    
   149   75  196 1    
   150   76  197 1    
   151   76  198 1    
   152   76  199 1    
   153   77   78 2    
   154   77   79 am   BACKBONE|DICT|INTERRES
   155   79   80 1    
   156   79  200 1    
   157   80   81 1    
   158   80   82 1    
   159   80  201 1    
   160   81  202 1    
   161   81  203 1    
   162   81  204 1    
   163   82   83 2    
   164   82   84 am   BACKBONE|DICT|INTERRES
   165   84   85 1    
   166   84  205 1    
   167   85   86 1    
   168   85   87 1    
   169   85  206 1    
   170   86  207 1    
   171   86  208 1    
   172   86  209 1    
   173   87   88 2    
   174   87   89 am   BACKBONE|DICT|INTERRES
   175   89   90 1    
   176   89  210 1    
   177   90   91 1    
   178   90   92 1    
   179   90  211 1    
   180   91  212 1    
   181   91  213 1    
   182   91  214 1    
   183   92   93 2    
   184   92   94 am   BACKBONE|DICT|INTERRES
   185   94   95 1    
   186   94  215 1    
   187   95   96 1    
   188   95   97 1    
   189   95  216 1    
   190   96  217 1    
   191   96  218 1    
   192   96  219 1    
   193   97   98 2    
   194   97   99 am   BACKBONE|DICT|INTERRES
   195   99  100 1    
   196   99  220 1    
   197  100  101 1    
   198  100  102 1    
   199  100  221 1    
   200  101  222 1    
   201  101  223 1    
   202  101  224 1    
   203  102  103 2    
   204  102  104 am   BACKBONE|DICT|INTERRES
   205  104  105 1    
   206  104  225 1    
   207  105  106 1    
   208  105  107 1    
   209  105  226 1    
   210  106  227 1    
   211  106  228 1    
   212  106  229 1    
   213  107  108 2    
   214  107  109 am   BACKBONE|DICT|INTERRES
   215  109  110 1    
   216  109  230 1    
   217  110  111 1    
   218  110  112 1    
   219  110  231 1    
   220  111  232 1    
   221  111  233 1    
   222  111  234 1    
   223  112  113 2    
   224  112  114 am   BACKBONE|DICT|INTERRES
   225  114  115 1    
   226  114  235 1    
   227  115  116 1    
   228  115  117 1    
   229  115  236 1    
   230  116  237 1    
   231  116  238 1    
   232  116  239 1    
   233  117  118 2    
   234  117  119 am   BACKBONE|DICT|INTERRES
   235  119  120 1    
   236  119  240 1    
   237  120  121 1    
   238  120  124 1    
   239  120  241 1    
   240  121  122 am   BACKBONE|DICT|INTERRES
   241  121  123 2    
   242  122  242 1    
   243  122  243 1    
   244  124  125 1    
   245  124  244 1    
   246  124  245 1    
   247  125  126 1    
   248  126  246 1    
   249  126  247 1    
@<TRIPOS>SUBSTRUCTURE
     1 UNK         1 GROUP             0       ****    0 ROOT    
