@<TRIPOS>MOLECULE
3R540
247   249    1
SMALL
USER_CHARGES


@<TRIPOS>ATOM
      1 CA         -7.8353  -11.9708  -49.2538 C.3       0 UNK        -0.1800 
      2 C          -6.6091  -11.1384  -48.9044 C.2       0 UNK         0.5000 
      3 O          -6.7389  -10.0930  -48.2665 O.2       0 UNK        -0.5000 
      4 N          -5.4240  -11.5919  -49.3286 N.am      1 UNK        -0.5000 
      5 CA         -4.1256  -10.9816  -49.0282 C.3       1 UNK         0.1400 
      6 C6         -2.9985  -11.4914  -49.9678 C.3       23 UNK        -0.0398 
      7 S7         -2.9973  -13.2909  -50.3017 S.3       23 UNK        -0.2404 
      8 C8         -1.7855  -13.8879  -49.0864 C.3       23 UNK        -0.0205 
      9 C9         -1.4521  -15.3549  -49.3135 C.ar      23 UNK        -0.0193 
     10 C10        -0.2264  -15.7183  -49.8777 C.ar      23 UNK        -0.1150 
     11 C11         0.1003  -17.0651  -50.0551 C.ar      23 UNK        -0.0193 
     12 C12        -0.8093  -18.0537  -49.6695 C.ar      23 UNK        -0.1150 
     13 C13        -2.0451  -17.7035  -49.1198 C.ar      23 UNK        -0.0193 
     14 C14        -2.3610  -16.3522  -48.9467 C.ar      23 UNK        -0.1150 
     15 C15        -3.0553  -18.7796  -48.7515 C.3       23 UNK        -0.0205 
     16 S16        -3.1542  -19.0688  -46.9591 S.3       23 UNK        -0.2404 
     17 C17        -1.6636  -20.0613  -46.6342 C.3       23 UNK        -0.0398 
     18 CA         -1.9195  -21.5874  -46.6697 C.3       11 UNK         0.1400 
     19 N          -0.6578  -22.3341  -46.6717 N.am      11 UNK        -0.5000 
     20 C          -0.5520  -23.6628  -46.8326 C.2       10 UNK         0.5000 
     21 O          -1.5164  -24.3962  -47.0317 O.2       10 UNK        -0.5000 
     22 CA          0.8466  -24.2987  -46.7247 C.3       10 UNK         0.1400 
     23 CB          1.4431  -24.4975  -48.1265 C.3       10 UNK        -0.1800 
     24 N           1.7831  -23.5262  -45.9122 N.am      10 UNK        -0.5000 
     25 C           1.6260  -23.2006  -44.6201 C.2       9 UNK         0.5000 
     26 O           0.6913  -23.5962  -43.9216 O.2       9 UNK        -0.5000 
     27 CA          2.6532  -22.2027  -44.0459 C.3       9 UNK         0.1400 
     28 CB          3.7801  -22.9473  -43.3153 C.3       9 UNK        -0.1800 
     29 N           3.2344  -21.3291  -45.0756 N.am      9 UNK        -0.5000 
     30 C           2.5281  -20.4496  -45.7995 C.2       8 UNK         0.5000 
     31 O           1.3208  -20.2600  -45.6496 O.2       8 UNK        -0.5000 
     32 CA          3.2619  -19.7269  -46.9308 C.3       8 UNK         0.1400 
     33 CB          2.8026  -20.2575  -48.3014 C.3       8 UNK        -0.1800 
     34 N           3.0065  -18.2976  -46.8083 N.am      8 UNK        -0.5000 
     35 C           3.8037  -17.3400  -47.2971 C.2       7 UNK         0.5000 
     36 O           4.7402  -17.5539  -48.0680 O.2       7 UNK        -0.5000 
     37 CA          3.5629  -15.9075  -46.7853 C.3       7 UNK         0.1400 
     38 CB          2.4510  -15.2095  -47.5824 C.3       7 UNK        -0.1800 
     39 N           3.2404  -15.8673  -45.3583 N.am      7 UNK        -0.5000 
     40 C           4.0518  -16.2569  -44.3629 C.2       6 UNK         0.5000 
     41 O           5.2047  -16.6548  -44.5324 O.2       6 UNK        -0.5000 
     42 CA          3.4717  -16.2136  -42.9382 C.3       6 UNK         0.1400 
     43 CB          3.6823  -14.8318  -42.3002 C.3       6 UNK        -0.1800 
     44 N           2.0465  -16.5456  -42.9373 N.am      6 UNK        -0.5000 
     45 C           1.5680  -17.7967  -42.8814 C.2       5 UNK         0.5000 
     46 O           2.2794  -18.7875  -42.7145 O.2       5 UNK        -0.5000 
     47 CA          0.0441  -17.9840  -43.0286 C.3       5 UNK         0.1400 
     48 CB         -0.6060  -18.2449  -41.6612 C.3       5 UNK        -0.1800 
     49 N          -0.6300  -16.8513  -43.6695 N.am      5 UNK        -0.5000 
     50 C          -0.5517  -16.5758  -44.9783 C.2       4 UNK         0.5000 
     51 O           0.1258  -17.2273  -45.7724 O.2       4 UNK        -0.5000 
     52 CA         -1.3149  -15.3285  -45.4652 C.3       4 UNK         0.1400 
     53 CB         -2.8259  -15.5886  -45.5377 C.3       4 UNK        -0.1800 
     54 N          -1.1109  -14.1245  -44.6600 N.am      4 UNK        -0.5000 
     55 C           0.0632  -13.5695  -44.3358 C.2       3 UNK         0.5000 
     56 O           1.1501  -14.1090  -44.5387 O.2       3 UNK        -0.5000 
     57 CA         -0.0036  -12.1752  -43.6753 C.3       3 UNK         0.1400 
     58 CB          1.3238  -11.3968  -43.7920 C.3       3 UNK        -0.1800 
     59 N          -1.1275  -11.3558  -44.1556 N.am      3 UNK        -0.5000 
     60 C          -1.3559  -10.9523  -45.4157 C.2       2 UNK         0.5000 
     61 O          -0.6326  -11.2259  -46.3770 O.2       2 UNK        -0.5000 
     62 CA         -2.5953  -10.0601  -45.6168 C.3       2 UNK         0.1400 
     63 CB         -2.2691   -8.6011  -45.2587 C.3       2 UNK        -0.1800 
     64 N          -3.0864  -10.1039  -46.9940 N.am      2 UNK        -0.5000 
     65 C          -3.7532  -11.1307  -47.5362 C.2       1 UNK         0.5000 
     66 O          -4.0682  -12.1484  -46.9132 O.2       1 UNK        -0.5000 
     67 C          -2.8648  -22.0526  -45.5404 C.2       11 UNK         0.5000 
     68 O          -4.0603  -22.2320  -45.7833 O.2       11 UNK        -0.5000 
     69 N          -2.3037  -22.2932  -44.3471 N.am      12 UNK        -0.5000 
     70 CA         -3.0373  -22.8092  -43.1930 C.3       12 UNK         0.1400 
     71 CB         -2.1990  -22.5958  -41.9229 C.3       12 UNK        -0.1800 
     72 C          -3.4182  -24.2919  -43.3595 C.2       12 UNK         0.5000 
     73 O          -4.5199  -24.6822  -42.9722 O.2       12 UNK        -0.5000 
     74 N          -2.5081  -25.0846  -43.9427 N.am      13 UNK        -0.5000 
     75 CA         -2.6808  -26.5211  -44.1645 C.3       13 UNK         0.1400 
     76 CB         -1.3183  -27.1505  -44.4947 C.3       13 UNK        -0.1800 
     77 C          -3.7081  -26.8413  -45.2670 C.2       13 UNK         0.5000 
     78 O          -4.5425  -27.7291  -45.0835 O.2       13 UNK        -0.5000 
     79 N          -3.6298  -26.1136  -46.3891 N.am      14 UNK        -0.5000 
     80 CA         -4.4736  -26.3007  -47.5719 C.3       14 UNK         0.1400 
     81 CB         -3.6942  -25.8260  -48.8110 C.3       14 UNK        -0.1800 
     82 C          -5.8262  -25.5692  -47.4810 C.2       14 UNK         0.5000 
     83 O          -6.6466  -25.7306  -48.3846 O.2       14 UNK        -0.5000 
     84 N          -6.0274  -24.7660  -46.4244 N.am      15 UNK        -0.5000 
     85 CA         -7.1966  -23.9189  -46.1655 C.3       15 UNK         0.1400 
     86 CB         -8.4565  -24.7737  -45.9111 C.3       15 UNK        -0.1800 
     87 C          -7.3846  -22.8646  -47.2752 C.2       15 UNK         0.5000 
     88 O          -8.4140  -22.8340  -47.9509 O.2       15 UNK        -0.5000 
     89 N          -6.3401  -22.0465  -47.4549 N.am      16 UNK        -0.5000 
     90 CA         -6.1871  -20.9348  -48.3996 C.3       16 UNK         0.1400 
     91 CB         -7.3251  -19.9036  -48.2715 C.3       16 UNK        -0.1800 
     92 C          -5.9371  -21.3338  -49.8665 C.2       16 UNK         0.5000 
     93 O          -5.5186  -20.4780  -50.6473 O.2       16 UNK        -0.5000 
     94 N          -6.1341  -22.6106  -50.2253 N.am      17 UNK        -0.5000 
     95 CA         -5.9805  -23.1263  -51.5919 C.3       17 UNK         0.1400 
     96 CB         -6.5257  -24.5604  -51.6545 C.3       17 UNK        -0.1800 
     97 C          -4.5399  -23.0635  -52.1437 C.2       17 UNK         0.5000 
     98 O          -4.3576  -23.0913  -53.3617 O.2       17 UNK        -0.5000 
     99 N          -3.5446  -22.9472  -51.2516 N.am      18 UNK        -0.5000 
    100 CA        -2.1263  -22.8062  -51.5908 C.3       18 UNK         0.1400 
    101 CB        -1.2740  -22.9859  -50.3267 C.3       18 UNK        -0.1800 
    102 C         -1.7707  -21.4723  -52.2751 C.2       18 UNK         0.5000 
    103 O         -0.6996  -21.3913  -52.8758 O.2       18 UNK        -0.5000 
    104 N         -2.6582  -20.4653  -52.2072 N.am      19 UNK        -0.5000 
    105 CA        -2.4931  -19.1338  -52.8106 C.3       19 UNK         0.1400 
    106 CB        -3.7251  -18.2776  -52.4799 C.3       19 UNK        -0.1800 
    107 C         -2.2609  -19.1382  -54.3364 C.2       19 UNK         0.5000 
    108 O         -1.7251  -18.1687  -54.8745 O.2       19 UNK        -0.5000 
    109 N         -2.6570  -20.2298  -55.0043 N.am      20 UNK        -0.5000 
    110 CA        -2.4302  -20.4756  -56.4264 C.3       20 UNK         0.1400 
    111 CB        -3.3304  -21.6426  -56.8647 C.3       20 UNK        -0.1800 
    112 C         -0.9568  -20.7674  -56.7869 C.2       20 UNK         0.5000 
    113 O         -0.6179  -20.6909  -57.9698 O.2       20 UNK        -0.5000 
    114 N         -0.1178  -21.1134  -55.7970 N.am      21 UNK        -0.5000 
    115 CA         1.2796  -21.5021  -56.0019 C.3       21 UNK         0.1400 
    116 CB         1.3960  -23.0340  -55.9226 C.3       21 UNK        -0.1800 
    117 C          2.2396  -20.8336  -55.0052 C.2       21 UNK         0.5000 
    118 O          3.3147  -20.3957  -55.4174 O.2       21 UNK        -0.5000 
    119 N          1.8574  -20.7823  -53.7209 N.am      22 UNK        -0.5000 
    120 CA         2.6625  -20.2774  -52.5911 C.3       22 UNK         0.1400 
    121 C          3.9713  -21.0822  -52.3078 C.2       22 UNK         0.5000 
    122 N          4.0825  -22.3322  -52.7426 N.am      22 UNK        -0.7600 
    123 O          4.8881  -20.5887  -51.6572 O.2       22 UNK        -0.5000 
    124 C124        2.8861  -18.7388  -52.6482 C.3       23 UNK        -0.0398 
    125 S125        1.3212  -17.8292  -52.4203 S.3       23 UNK        -0.2404 
    126 C126        1.4429  -17.4587  -50.6433 C.3       23 UNK        -0.0205 
    127 H127       -7.5714  -12.8609  -49.8256 H         1 UNK         0.0600 
    128 H128       -8.5338  -11.3802  -49.8470 H         1 UNK         0.0600 
    129 H129       -8.3435  -12.2900  -48.3438 H         1 UNK         0.0600 
    130 H130       -5.3727  -12.4724  -49.8216 H         1 UNK         0.3000 
    131 H131       -4.2334   -9.9111  -49.2192 H         1 UNK         0.0600 
    132 H132       -2.0144  -11.1780  -49.6136 H         1 UNK         0.0800 
    133 H133       -3.1149  -11.0031  -50.9364 H         1 UNK         0.0800 
    134 H134       -2.1861  -13.7549  -48.0812 H         1 UNK         0.0800 
    135 H135       -0.8804  -13.2805  -49.1401 H         1 UNK         0.0800 
    136 H136        0.4790  -14.9532  -50.1698 H         1 UNK         0.1150 
    137 H137       -0.5585  -19.0953  -49.8129 H         1 UNK         0.1150 
    138 H138       -3.3174  -16.0746  -48.5267 H         1 UNK         0.1150 
    139 H139       -4.0424  -18.4705  -49.0976 H         1 UNK         0.0800 
    140 H140       -2.8335  -19.7162  -49.2653 H         1 UNK         0.0800 
    141 H141       -1.2687  -19.7616  -45.6625 H         1 UNK         0.0800 
    142 H142       -0.8952  -19.7871  -47.3578 H         1 UNK         0.0800 
    143 H143       -2.4264  -21.8181  -47.6079 H         1 UNK         0.0600 
    144 H144        0.1744  -21.7939  -46.4629 H         1 UNK         0.3000 
    145 H145        0.7317  -25.2776  -46.2560 H         1 UNK         0.0600 
    146 H146        2.4010  -25.0160  -48.0791 H         1 UNK         0.0600 
    147 H147        0.7808  -25.0991  -48.7512 H         1 UNK         0.0600 
    148 H148        1.5992  -23.5460  -48.6371 H         1 UNK         0.0600 
    149 H149        2.5902  -23.1567  -46.3915 H         1 UNK         0.3000 
    150 H150        2.1305  -21.5722  -43.3232 H         1 UNK         0.0600 
    151 H151        3.3783  -23.5896  -42.5302 H         1 UNK         0.0600 
    152 H152        4.4698  -22.2491  -42.8404 H         1 UNK         0.0600 
    153 H153        4.3536  -23.5789  -43.9951 H         1 UNK         0.0600 
    154 H154        4.2235  -21.4352  -45.2499 H         1 UNK         0.3000 
    155 H155        4.3339  -19.9055  -46.8221 H         1 UNK         0.0600 
    156 H156        1.7420  -20.0664  -48.4704 H         1 UNK         0.0600 
    157 H157        2.9575  -21.3344  -48.3759 H         1 UNK         0.0600 
    158 H158        3.3673  -19.7986  -49.1130 H         1 UNK         0.0600 
    159 H159        2.2219  -18.0436  -46.2156 H         1 UNK         0.3000 
    160 H160        4.4867  -15.3430  -46.9282 H         1 UNK         0.0600 
    161 H161        1.5027  -15.7407  -47.5009 H         1 UNK         0.0600 
    162 H162        2.7080  -15.1533  -48.6402 H         1 UNK         0.0600 
    163 H163        2.2924  -14.1894  -47.2320 H         1 UNK         0.0600 
    164 H164        2.3360  -15.4740  -45.1147 H         1 UNK         0.3000 
    165 H165        4.0145  -16.9430  -42.3327 H         1 UNK         0.0600 
    166 H166        3.2785  -14.7984  -41.2880 H         1 UNK         0.0600 
    167 H167        4.7446  -14.5930  -42.2349 H         1 UNK         0.0600 
    168 H168        3.2067  -14.0404  -42.8783 H         1 UNK         0.0600 
    169 H169        1.4066  -15.7867  -43.1304 H         1 UNK         0.3000 
    170 H170       -0.1112  -18.8701  -43.6482 H         1 UNK         0.0600 
    171 H171       -0.1493  -19.1049  -41.1690 H         1 UNK         0.0600 
    172 H172       -0.4980  -17.3884  -40.9943 H         1 UNK         0.0600 
    173 H173       -1.6697  -18.4605  -41.7652 H         1 UNK         0.0600 
    174 H174       -1.1878  -16.2529  -43.0780 H         1 UNK         0.3000 
    175 H175       -0.9522  -15.1067  -46.4696 H         1 UNK         0.0600 
    176 H176       -3.2527  -15.7821  -44.5530 H         1 UNK         0.0600 
    177 H177       -3.3534  -14.7388  -45.9718 H         1 UNK         0.0600 
    178 H178       -3.0456  -16.4485  -46.1624 H         1 UNK         0.0600 
    179 H179       -1.9442  -13.5987  -44.4416 H         1 UNK         0.3000 
    180 H180       -0.1857  -12.3545  -42.6148 H         1 UNK         0.0600 
    181 H181        1.2473  -10.4138  -43.3273 H         1 UNK         0.0600 
    182 H182        1.6196  -11.2544  -44.8320 H         1 UNK         0.0600 
    183 H183        2.1350  -11.9264  -43.2922 H         1 UNK         0.0600 
    184 H184       -1.7821  -11.0685  -43.4408 H         1 UNK         0.3000 
    185 H185       -3.3897  -10.4128  -44.9551 H         1 UNK         0.0600 
    186 H186       -3.1464   -7.9626  -45.3660 H         1 UNK         0.0600 
    187 H187       -1.9322   -8.5155  -44.2246 H         1 UNK         0.0600 
    188 H188       -1.4797   -8.1973  -45.8943 H         1 UNK         0.0600 
    189 H189       -2.8374   -9.3174  -47.5761 H         1 UNK         0.3000 
    190 H190       -1.3042  -22.1838  -44.2411 H         1 UNK         0.3000 
    191 H191       -3.9617  -22.2367  -43.0884 H         1 UNK         0.0600 
    192 H192       -2.7350  -22.9450  -41.0391 H         1 UNK         0.0600 
    193 H193       -1.9749  -21.5396  -41.7710 H         1 UNK         0.0600 
    194 H194       -1.2526  -23.1361  -41.9672 H         1 UNK         0.0600 
    195 H195       -1.6292  -24.6780  -44.2311 H         1 UNK         0.3000 
    196 H196       -3.0401  -26.9660  -43.2332 H         1 UNK         0.0600 
    197 H197       -0.9177  -26.7737  -45.4369 H         1 UNK         0.0600 
    198 H198       -0.5862  -26.9467  -43.7116 H         1 UNK         0.0600 
    199 H199       -1.4042  -28.2342  -44.5867 H         1 UNK         0.0600 
    200 H200       -2.8873  -25.4207  -46.4807 H         1 UNK         0.3000 
    201 H201       -4.6837  -27.3663  -47.6925 H         1 UNK         0.0600 
    202 H202       -3.5587  -24.7432  -48.8052 H         1 UNK         0.0600 
    203 H203       -4.2175  -26.0901  -49.7306 H         1 UNK         0.0600 
    204 H204       -2.7076  -26.2872  -48.8608 H         1 UNK         0.0600 
    205 H205       -5.2714  -24.6822  -45.7587 H         1 UNK         0.3000 
    206 H206       -6.9827  -23.3699  -45.2466 H         1 UNK         0.0600 
    207 H207       -8.2910  -25.4863  -45.1029 H         1 UNK         0.0600 
    208 H208       -9.2994  -24.1447  -45.6223 H         1 UNK         0.0600 
    209 H209       -8.7581  -25.3352  -46.7961 H         1 UNK         0.0600 
    210 H210       -5.5360  -22.1851  -46.8429 H         1 UNK         0.3000 
    211 H211       -5.2755  -20.4382  -48.0822 H         1 UNK         0.0600 
    212 H212       -7.1055  -19.0102  -48.8576 H         1 UNK         0.0600 
    213 H213       -7.4562  -19.5869  -47.2365 H         1 UNK         0.0600 
    214 H214       -8.2769  -20.2977  -48.6286 H         1 UNK         0.0600 
    215 H215       -6.4956  -23.2536  -49.5336 H         1 UNK         0.3000 
    216 H216       -6.5964  -22.5055  -52.2458 H         1 UNK         0.0600 
    217 H217       -5.9547  -25.2366  -51.0197 H         1 UNK         0.0600 
    218 H218       -6.4831  -24.9518  -52.6720 H         1 UNK         0.0600 
    219 H219       -7.5670  -24.6019  -51.3341 H         1 UNK         0.0600 
    220 H220       -3.7861  -22.9264  -50.2729 H         1 UNK         0.3000 
    221 H221       -1.8696  -23.6064  -52.2888 H         1 UNK         0.0600 
    222 H222       -1.4875  -23.9333  -49.8320 H         1 UNK         0.0600 
    223 H223       -1.4418  -22.1786  -49.6150 H         1 UNK         0.0600 
    224 H224       -0.2107  -22.9846  -50.5708 H         1 UNK         0.0600 
    225 H225       -3.5293  -20.6221  -51.7149 H         1 UNK         0.3000 
    226 H226       -1.6172  -18.6709  -52.3534 H         1 UNK         0.0600 
    227 H227       -4.6378  -18.7122  -52.8911 H         1 UNK         0.0600 
    228 H228       -3.8623  -18.1727  -51.4057 H         1 UNK         0.0600 
    229 H229       -3.6244  -17.2709  -52.8885 H         1 UNK         0.0600 
    230 H230       -3.0966  -20.9754  -54.4815 H         1 UNK         0.3000 
    231 H231       -2.7314  -19.5839  -56.9807 H         1 UNK         0.0600 
    232 H232       -3.0877  -22.5605  -56.3265 H         1 UNK         0.0600 
    233 H233       -3.2190  -21.8460  -57.9310 H         1 UNK         0.0600 
    234 H234       -4.3827  -21.4187  -56.6867 H         1 UNK         0.0600 
    235 H235       -0.4603  -21.1256  -54.8417 H         1 UNK         0.3000 
    236 H236        1.6131  -21.1937  -56.9957 H         1 UNK         0.0600 
    237 H237        0.8061  -23.5125  -56.7047 H         1 UNK         0.0600 
    238 H238        2.4301  -23.3574  -56.0528 H         1 UNK         0.0600 
    239 H239        1.0479  -23.4149  -54.9611 H         1 UNK         0.0600 
    240 H240        0.9389  -21.1347  -53.4586 H         1 UNK         0.3000 
    241 H241        2.0559  -20.4749  -51.7059 H         1 UNK         0.0600 
    242 H242        4.9252  -22.8507  -52.5491 H         1 UNK         0.3800 
    243 H243        3.3368  -22.7629  -53.2644 H         1 UNK         0.3800 
    244 H244        3.3320  -18.4445  -53.5987 H         1 UNK         0.0800 
    245 H245        3.5867  -18.4077  -51.8800 H         1 UNK         0.0800 
    246 H246        1.8177  -18.3328  -50.1130 H         1 UNK         0.0800 
    247 H247        2.1789  -16.6680  -50.4899 H         1 UNK         0.0800 
@<TRIPOS>BOND
     1    1    2 1    
     2    1  127 1    
     3    1  128 1    
     4    1  129 1    
     5    2    3 2    
     6    2    4 am   BACKBONE|DICT|INTERRES
     7    4    5 1    
     8    4  130 1    
     9    5    6 1    
    10    5   65 1    
    11    5  131 1    
    12    6    7 1    
    13    6  132 1    
    14    6  133 1    
    15    7    8 1    
    16    8    9 1    
    17    8  134 1    
    18    8  135 1    
    19    9   10 ar   
    20    9   14 ar   
    21   10   11 ar   
    22   10  136 1    
    23   11   12 ar   
    24   11  126 1    
    25   12   13 ar   
    26   12  137 1    
    27   13   14 ar   
    28   13   15 1    
    29   14  138 1    
    30   15   16 1    
    31   15  139 1    
    32   15  140 1    
    33   16   17 1    
    34   17   18 1    
    35   17  141 1    
    36   17  142 1    
    37   18   19 1    
    38   18   67 1    
    39   18  143 1    
    40   19   20 am   BACKBONE|DICT|INTERRES
    41   19  144 1    
    42   20   21 2    
    43   20   22 1    
    44   22   23 1    
    45   22   24 1    
    46   22  145 1    
    47   23  146 1    
    48   23  147 1    
    49   23  148 1    
    50   24   25 am   BACKBONE|DICT|INTERRES
    51   24  149 1    
    52   25   26 2    
    53   25   27 1    
    54   27   28 1    
    55   27   29 1    
    56   27  150 1    
    57   28  151 1    
    58   28  152 1    
    59   28  153 1    
    60   29   30 am   BACKBONE|DICT|INTERRES
    61   29  154 1    
    62   30   31 2    
    63   30   32 1    
    64   32   33 1    
    65   32   34 1    
    66   32  155 1    
    67   33  156 1    
    68   33  157 1    
    69   33  158 1    
    70   34   35 am   BACKBONE|DICT|INTERRES
    71   34  159 1    
    72   35   36 2    
    73   35   37 1    
    74   37   38 1    
    75   37   39 1    
    76   37  160 1    
    77   38  161 1    
    78   38  162 1    
    79   38  163 1    
    80   39   40 am   BACKBONE|DICT|INTERRES
    81   39  164 1    
    82   40   41 2    
    83   40   42 1    
    84   42   43 1    
    85   42   44 1    
    86   42  165 1    
    87   43  166 1    
    88   43  167 1    
    89   43  168 1    
    90   44   45 am   BACKBONE|DICT|INTERRES
    91   44  169 1    
    92   45   46 2    
    93   45   47 1    
    94   47   48 1    
    95   47   49 1    
    96   47  170 1    
    97   48  171 1    
    98   48  172 1    
    99   48  173 1    
   100   49   50 am   BACKBONE|DICT|INTERRES
   101   49  174 1    
   102   50   51 2    
   103   50   52 1    
   104   52   53 1    
   105   52   54 1    
   106   52  175 1    
   107   53  176 1    
   108   53  177 1    
   109   53  178 1    
   110   54   55 am   BACKBONE|DICT|INTERRES
   111   54  179 1    
   112   55   56 2    
   113   55   57 1    
   114   57   58 1    
   115   57   59 1    
   116   57  180 1    
   117   58  181 1    
   118   58  182 1    
   119   58  183 1    
   120   59   60 am   BACKBONE|DICT|INTERRES
   121   59  184 1    
   122   60   61 2    
   123   60   62 1    
   124   62   63 1    
   125   62   64 1    
   126   62  185 1    
   127   63  186 1    
   128   63  187 1    
   129   63  188 1    
   130   64   65 am   BACKBONE|DICT|INTERRES
   131   64  189 1    
   132   65   66 2    
   133   67   68 2    
   134   67   69 am   BACKBONE|DICT|INTERRES
   135   69   70 1    
   136   69  190 1    
   137   70   71 1    
   138   70   72 1    
   139   70  191 1    
   140   71  192 1    
   141   71  193 1    
   142   71  194 1    
   143   72   73 2    
   144   72   74 am   BACKBONE|DICT|INTERRES
   145   74   75 1    
   146   74  195 1    
   147   75   76 1    
   148   75   77 1    
   149   75  196 1    
   150   76  197 1    
   151   76  198 1    
   152   76  199 1    
   153   77   78 2    
   154   77   79 am   BACKBONE|DICT|INTERRES
   155   79   80 1    
   156   79  200 1    
   157   80   81 1    
   158   80   82 1    
   159   80  201 1    
   160   81  202 1    
   161   81  203 1    
   162   81  204 1    
   163   82   83 2    
   164   82   84 am   BACKBONE|DICT|INTERRES
   165   84   85 1    
   166   84  205 1    
   167   85   86 1    
   168   85   87 1    
   169   85  206 1    
   170   86  207 1    
   171   86  208 1    
   172   86  209 1    
   173   87   88 2    
   174   87   89 am   BACKBONE|DICT|INTERRES
   175   89   90 1    
   176   89  210 1    
   177   90   91 1    
   178   90   92 1    
   179   90  211 1    
   180   91  212 1    
   181   91  213 1    
   182   91  214 1    
   183   92   93 2    
   184   92   94 am   BACKBONE|DICT|INTERRES
   185   94   95 1    
   186   94  215 1    
   187   95   96 1    
   188   95   97 1    
   189   95  216 1    
   190   96  217 1    
   191   96  218 1    
   192   96  219 1    
   193   97   98 2    
   194   97   99 am   BACKBONE|DICT|INTERRES
   195   99  100 1    
   196   99  220 1    
   197  100  101 1    
   198  100  102 1    
   199  100  221 1    
   200  101  222 1    
   201  101  223 1    
   202  101  224 1    
   203  102  103 2    
   204  102  104 am   BACKBONE|DICT|INTERRES
   205  104  105 1    
   206  104  225 1    
   207  105  106 1    
   208  105  107 1    
   209  105  226 1    
   210  106  227 1    
   211  106  228 1    
   212  106  229 1    
   213  107  108 2    
   214  107  109 am   BACKBONE|DICT|INTERRES
   215  109  110 1    
   216  109  230 1    
   217  110  111 1    
   218  110  112 1    
   219  110  231 1    
   220  111  232 1    
   221  111  233 1    
   222  111  234 1    
   223  112  113 2    
   224  112  114 am   BACKBONE|DICT|INTERRES
   225  114  115 1    
   226  114  235 1    
   227  115  116 1    
   228  115  117 1    
   229  115  236 1    
   230  116  237 1    
   231  116  238 1    
   232  116  239 1    
   233  117  118 2    
   234  117  119 am   BACKBONE|DICT|INTERRES
   235  119  120 1    
   236  119  240 1    
   237  120  121 1    
   238  120  124 1    
   239  120  241 1    
   240  121  122 am   BACKBONE|DICT|INTERRES
   241  121  123 2    
   242  122  242 1    
   243  122  243 1    
   244  124  125 1    
   245  124  244 1    
   246  124  245 1    
   247  125  126 1    
   248  126  246 1    
   249  126  247 1    
@<TRIPOS>SUBSTRUCTURE
     1 UNK         1 GROUP             0       ****    0 ROOT    
