@<TRIPOS>MOLECULE
3R540
247   249    1
SMALL
USER_CHARGES


@<TRIPOS>ATOM
      1 CA         -2.9375  -14.5617  -51.8336 C.3       0 UNK        -0.1800 
      2 C          -1.5881  -14.1029  -51.2980 C.2       0 UNK         0.5000 
      3 O          -0.8405  -13.4457  -52.0224 O.2       0 UNK        -0.5000 
      4 N          -1.2782  -14.4231  -50.0369 N.am      1 UNK        -0.5000 
      5 CA         -0.0712  -13.9839  -49.3422 C.3       1 UNK         0.1400 
      6 C6          1.1937  -14.8108  -49.6941 C.3       23 UNK        -0.0398 
      7 S7          1.0458  -16.6195  -49.4732 S.3       23 UNK        -0.2404 
      8 C8          2.5254  -17.1422  -50.3898 C.3       23 UNK        -0.0205 
      9 C9          2.6778  -18.6539  -50.4169 C.ar      23 UNK        -0.0193 
     10 C10         2.2555  -19.3860  -51.5284 C.ar      23 UNK        -0.1150 
     11 C11         2.4394  -20.7701  -51.5756 C.ar      23 UNK        -0.0193 
     12 C12         3.0335  -21.4249  -50.4924 C.ar      23 UNK        -0.1150 
     13 C13         3.4738  -20.7037  -49.3733 C.ar      23 UNK        -0.0193 
     14 C14         3.2869  -19.3176  -49.3494 C.ar      23 UNK        -0.1150 
     15 C15         4.1636  -21.3546  -48.1714 C.3       23 UNK        -0.0205 
     16 S16         4.7341  -23.0735  -48.3959 S.3       23 UNK        -0.2404 
     17 C17         3.2175  -24.0007  -47.9815 C.3       23 UNK        -0.0398 
     18 CA          3.2705  -24.5963  -46.5507 C.3       11 UNK         0.1400 
     19 N           3.3512  -23.5481  -45.5267 N.am      11 UNK        -0.5000 
     20 C           4.1533  -23.5623  -44.4538 C.2       10 UNK         0.5000 
     21 O           4.9863  -24.4417  -44.2340 O.2       10 UNK        -0.5000 
     22 CA          3.9751  -22.4193  -43.4316 C.3       10 UNK         0.1400 
     23 CB          5.0489  -21.3414  -43.6397 C.3       10 UNK        -0.1800 
     24 N           2.6469  -21.7990  -43.4804 N.am      10 UNK        -0.5000 
     25 C           1.5079  -22.4118  -43.1217 C.2       9 UNK         0.5000 
     26 O           1.4714  -23.5525  -42.6613 O.2       9 UNK        -0.5000 
     27 CA          0.1829  -21.6673  -43.3811 C.3       9 UNK         0.1400 
     28 CB         -0.2792  -20.9294  -42.1163 C.3       9 UNK        -0.1800 
     29 N           0.2476  -20.7176  -44.4914 N.am      9 UNK        -0.5000 
     30 C           0.5508  -21.0164  -45.7614 C.2       8 UNK         0.5000 
     31 O           0.7885  -22.1593  -46.1568 O.2       8 UNK        -0.5000 
     32 CA          0.6630  -19.8293  -46.7333 C.3       8 UNK         0.1400 
     33 CB         -0.6892  -19.5040  -47.3751 C.3       8 UNK        -0.1800 
     34 N           1.1754  -18.6207  -46.0873 N.am      8 UNK        -0.5000 
     35 C           2.4354  -18.4508  -45.6683 C.2       7 UNK         0.5000 
     36 O           3.3055  -19.3146  -45.7459 O.2       7 UNK        -0.5000 
     37 CA          2.7733  -17.0894  -45.0416 C.3       7 UNK         0.1400 
     38 CB          3.0283  -16.0435  -46.1380 C.3       7 UNK        -0.1800 
     39 N           1.7187  -16.6218  -44.1412 N.am      7 UNK        -0.5000 
     40 C           1.4787  -17.1470  -42.9321 C.2       6 UNK         0.5000 
     41 O           2.1669  -18.0332  -42.4250 O.2       6 UNK        -0.5000 
     42 CA          0.2503  -16.6141  -42.1669 C.3       6 UNK         0.1400 
     43 CB          0.6364  -15.4071  -41.2998 C.3       6 UNK        -0.1800 
     44 N          -0.9019  -16.2589  -43.0044 N.am      6 UNK        -0.5000 
     45 C          -1.5412  -17.1043  -43.8290 C.2       5 UNK         0.5000 
     46 O          -1.1269  -18.2352  -44.0832 O.2       5 UNK        -0.5000 
     47 CA         -2.8561  -16.6191  -44.4794 C.3       5 UNK         0.1400 
     48 CB         -3.8128  -17.7888  -44.7919 C.3       5 UNK        -0.1800 
     49 N          -3.5515  -15.5808  -43.7108 N.am      5 UNK        -0.5000 
     50 C          -4.0498  -15.6792  -42.4665 C.2       4 UNK         0.5000 
     51 O          -4.0352  -16.7176  -41.8040 O.2       4 UNK        -0.5000 
     52 CA         -4.6584  -14.3935  -41.8563 C.3       4 UNK         0.1400 
     53 CB         -4.4835  -14.3348  -40.3240 C.3       4 UNK        -0.1800 
     54 N          -4.1776  -13.1464  -42.4704 N.am      4 UNK        -0.5000 
     55 C          -2.9056  -12.7330  -42.5508 C.2       3 UNK         0.5000 
     56 O          -1.9427  -13.3710  -42.1159 O.2       3 UNK        -0.5000 
     57 CA         -2.6642  -11.3961  -43.2724 C.3       3 UNK         0.1400 
     58 CB         -2.4663  -10.2601  -42.2578 C.3       3 UNK        -0.1800 
     59 N          -1.4781  -11.4990  -44.1187 N.am      3 UNK        -0.5000 
     60 C          -1.4151  -12.2210  -45.2442 C.2       2 UNK         0.5000 
     61 O          -2.4030  -12.7212  -45.7863 O.2       2 UNK        -0.5000 
     62 CA          0.0063  -12.4292  -45.8020 C.3       2 UNK         0.1400 
     63 CB          0.7787  -13.4374  -44.9333 C.3       2 UNK        -0.1800 
     64 N           0.0772  -12.8035  -47.2196 N.am      2 UNK        -0.5000 
     65 C          -0.3469  -13.9213  -47.8298 C.2       1 UNK         0.5000 
     66 O          -0.9050  -14.8696  -47.2711 O.2       1 UNK        -0.5000 
     67 C           2.0631  -25.5265  -46.2893 C.2       11 UNK         0.5000 
     68 O           1.7752  -26.3858  -47.1233 O.2       11 UNK        -0.5000 
     69 N           1.3769  -25.3421  -45.1486 N.am      12 UNK        -0.5000 
     70 CA          0.1791  -26.0541  -44.6947 C.3       12 UNK         0.1400 
     71 CB          0.4951  -27.5382  -44.4136 C.3       12 UNK        -0.1800 
     72 C          -1.0418  -25.8587  -45.6189 C.2       12 UNK         0.5000 
     73 O          -1.8881  -26.7506  -45.7109 O.2       12 UNK        -0.5000 
     74 N          -1.1243  -24.6968  -46.2842 N.am      13 UNK        -0.5000 
     75 CA         -2.2582  -24.3188  -47.1263 C.3       13 UNK         0.1400 
     76 CB         -1.8702  -23.1054  -47.9809 C.3       13 UNK        -0.1800 
     77 C          -3.5043  -23.9998  -46.2789 C.2       13 UNK         0.5000 
     78 O          -3.3798  -23.4784  -45.1680 O.2       13 UNK        -0.5000 
     79 N          -4.6852  -24.2958  -46.8343 N.am      14 UNK        -0.5000 
     80 CA         -5.9851  -24.0743  -46.1928 C.3       14 UNK         0.1400 
     81 CB         -7.0262  -24.9736  -46.8788 C.3       14 UNK        -0.1800 
     82 C          -6.4496  -22.6033  -46.2187 C.2       14 UNK         0.5000 
     83 O          -7.3881  -22.2540  -45.5015 O.2       14 UNK        -0.5000 
     84 N          -5.8067  -21.7761  -47.0484 N.am      15 UNK        -0.5000 
     85 CA         -6.0974  -20.3641  -47.2587 C.3       15 UNK         0.1400 
     86 CB         -7.3130  -20.2205  -48.1935 C.3       15 UNK        -0.1800 
     87 C          -4.8480  -19.6889  -47.8419 C.2       15 UNK         0.5000 
     88 O          -3.8863  -20.3792  -48.1933 O.2       15 UNK        -0.5000 
     89 N          -4.8883  -18.3538  -47.9427 N.am      16 UNK        -0.5000 
     90 CA         -3.8170  -17.4935  -48.4502 C.3       16 UNK         0.1400 
     91 CB         -4.2736  -16.0303  -48.3448 C.3       16 UNK        -0.1800 
     92 C          -3.4291  -17.8677  -49.8925 C.2       16 UNK         0.5000 
     93 O          -4.2446  -17.7050  -50.8016 O.2       16 UNK        -0.5000 
     94 N          -2.2301  -18.4436  -50.0526 N.am      17 UNK        -0.5000 
     95 CA         -1.6979  -19.0691  -51.2700 C.3       17 UNK         0.1400 
     96 CB         -1.2948  -17.9969  -52.2991 C.3       17 UNK        -0.1800 
     97 C          -2.6434  -20.1429  -51.8553 C.2       17 UNK         0.5000 
     98 O          -2.8054  -20.2291  -53.0748 O.2       17 UNK        -0.5000 
     99 N          -3.2894  -20.9100  -50.9626 N.am      18 UNK        -0.5000 
    100 CA        -4.3222  -21.9114  -51.2458 C.3       18 UNK         0.1400 
    101 CB        -3.7211  -23.1190  -51.9947 C.3       18 UNK        -0.1800 
    102 C         -5.5650  -21.3016  -51.9326 C.2       18 UNK         0.5000 
    103 O         -6.1458  -21.9204  -52.8235 O.2       18 UNK        -0.5000 
    104 N         -5.9311  -20.0872  -51.4930 N.am      19 UNK        -0.5000 
    105 CA        -6.9667  -19.2024  -52.0363 C.3       19 UNK         0.1400 
    106 CB        -8.3629  -19.8615  -52.0209 C.3       19 UNK        -0.1800 
    107 C         -6.5543  -18.6465  -53.4129 C.2       19 UNK         0.5000 
    108 O         -7.3247  -18.7184  -54.3722 O.2       19 UNK        -0.5000 
    109 N         -5.3258  -18.1081  -53.4660 N.am      20 UNK        -0.5000 
    110 CA        -4.6505  -17.5340  -54.6358 C.3       20 UNK         0.1400 
    111 CB        -5.3167  -16.2031  -55.0410 C.3       20 UNK        -0.1800 
    112 C         -4.5091  -18.5275  -55.8101 C.2       20 UNK         0.5000 
    113 O         -4.6658  -18.1406  -56.9700 O.2       20 UNK        -0.5000 
    114 N         -4.2223  -19.7932  -55.4832 N.am      21 UNK        -0.5000 
    115 CA        -4.1000  -20.8940  -56.4346 C.3       21 UNK         0.1400 
    116 CB        -4.8672  -22.1142  -55.9059 C.3       21 UNK        -0.1800 
    117 C         -2.6319  -21.2560  -56.7013 C.2       21 UNK         0.5000 
    118 O         -2.2890  -21.5121  -57.8567 O.2       21 UNK        -0.5000 
    119 N         -1.7913  -21.2718  -55.6549 N.am      22 UNK        -0.5000 
    120 CA        -0.3552  -21.5900  -55.7713 C.3       22 UNK         0.1400 
    121 C          0.5589  -20.3527  -56.0117 C.2       22 UNK         0.5000 
    122 N          0.0426  -19.1299  -55.9827 N.am      22 UNK        -0.7600 
    123 O          1.7518  -20.5065  -56.2585 O.2       22 UNK        -0.5000 
    124 C124        0.1453  -22.5190  -54.6313 C.3       23 UNK        -0.0398 
    125 S125        0.2542  -21.7570  -52.9749 S.3       23 UNK        -0.2404 
    126 C126        2.0533  -21.5446  -52.8253 C.3       23 UNK        -0.0205 
    127 H127       -2.8035  -15.1813  -52.7194 H         1 UNK         0.0600 
    128 H128       -3.5396  -13.6979  -52.1152 H         1 UNK         0.0600 
    129 H129       -3.4977  -15.1331  -51.0964 H         1 UNK         0.0600 
    130 H130       -1.9127  -14.9560  -49.4601 H         1 UNK         0.3000 
    131 H131        0.1240  -12.9573  -49.6617 H         1 UNK         0.0600 
    132 H132        2.0492  -14.4608  -49.1139 H         1 UNK         0.0800 
    133 H133        1.4514  -14.6205  -50.7367 H         1 UNK         0.0800 
    134 H134        2.4742  -16.7552  -51.4087 H         1 UNK         0.0800 
    135 H135        3.4088  -16.6927  -49.9336 H         1 UNK         0.0800 
    136 H136        1.8001  -18.8787  -52.3677 H         1 UNK         0.1150 
    137 H137        3.1693  -22.4947  -50.5438 H         1 UNK         0.1150 
    138 H138        3.6231  -18.7479  -48.4943 H         1 UNK         0.1150 
    139 H139        5.0317  -20.7529  -47.8983 H         1 UNK         0.0800 
    140 H140        3.4901  -21.3196  -47.3167 H         1 UNK         0.0800 
    141 H141        2.3412  -23.3619  -48.1067 H         1 UNK         0.0800 
    142 H142        3.1203  -24.7936  -48.7250 H         1 UNK         0.0800 
    143 H143        4.1559  -25.2326  -46.4932 H         1 UNK         0.0600 
    144 H144        2.6672  -22.8054  -45.6174 H         1 UNK         0.3000 
    145 H145        4.1088  -22.8437  -42.4344 H         1 UNK         0.0600 
    146 H146        4.9200  -20.5105  -42.9456 H         1 UNK         0.0600 
    147 H147        5.0266  -20.9416  -44.6535 H         1 UNK         0.0600 
    148 H148        6.0461  -21.7516  -43.4758 H         1 UNK         0.0600 
    149 H149        2.5957  -20.8672  -43.8703 H         1 UNK         0.3000 
    150 H150       -0.5696  -22.4166  -43.6361 H         1 UNK         0.0600 
    151 H151        0.4238  -20.1468  -41.8294 H         1 UNK         0.0600 
    152 H152       -1.2542  -20.4647  -42.2651 H         1 UNK         0.0600 
    153 H153       -0.3710  -21.6156  -41.2735 H         1 UNK         0.0600 
    154 H154       -0.0097  -19.7567  -44.2792 H         1 UNK         0.3000 
    155 H155        1.3543  -20.1080  -47.5278 H         1 UNK         0.0600 
    156 H156       -0.9471  -20.2467  -48.1293 H         1 UNK         0.0600 
    157 H157       -0.6539  -18.5337  -47.8668 H         1 UNK         0.0600 
    158 H158       -1.4944  -19.4781  -46.6402 H         1 UNK         0.0600 
    159 H159        0.5099  -17.8793  -45.9277 H         1 UNK         0.3000 
    160 H160        3.6955  -17.2091  -44.4686 H         1 UNK         0.0600 
    161 H161        2.1120  -15.7795  -46.6670 H         1 UNK         0.0600 
    162 H162        3.7374  -16.4155  -46.8789 H         1 UNK         0.0600 
    163 H163        3.4540  -15.1328  -45.7182 H         1 UNK         0.0600 
    164 H164        1.1031  -15.9005  -44.4841 H         1 UNK         0.3000 
    165 H165       -0.0785  -17.4137  -41.4999 H         1 UNK         0.0600 
    166 H166       -0.1921  -15.1005  -40.6609 H         1 UNK         0.0600 
    167 H167        1.4778  -15.6449  -40.6477 H         1 UNK         0.0600 
    168 H168        0.9234  -14.5494  -41.9084 H         1 UNK         0.0600 
    169 H169       -1.3131  -15.3483  -42.8327 H         1 UNK         0.3000 
    170 H170       -2.5720  -16.1587  -45.4266 H         1 UNK         0.0600 
    171 H171       -3.3556  -18.4949  -45.4839 H         1 UNK         0.0600 
    172 H172       -4.0769  -18.3496  -43.8952 H         1 UNK         0.0600 
    173 H173       -4.7363  -17.4325  -45.2468 H         1 UNK         0.0600 
    174 H174       -3.6023  -14.6760  -44.1592 H         1 UNK         0.3000 
    175 H175       -5.7282  -14.4426  -42.0640 H         1 UNK         0.0600 
    176 H176       -3.4318  -14.3558  -40.0362 H         1 UNK         0.0600 
    177 H177       -4.9261  -13.4285  -39.9107 H         1 UNK         0.0600 
    178 H178       -4.9717  -15.1809  -39.8391 H         1 UNK         0.0600 
    179 H179       -4.8964  -12.5629  -42.8766 H         1 UNK         0.3000 
    180 H180       -3.5258  -11.1593  -43.9004 H         1 UNK         0.0600 
    181 H181       -1.6135  -10.4472  -41.6037 H         1 UNK         0.0600 
    182 H182       -3.3467  -10.1461  -41.6240 H         1 UNK         0.0600 
    183 H183       -2.3020   -9.3065  -42.7600 H         1 UNK         0.0600 
    184 H184       -0.6205  -11.1495  -43.7167 H         1 UNK         0.3000 
    185 H185        0.5171  -11.4676  -45.7297 H         1 UNK         0.0600 
    186 H186        0.8198  -13.1149  -43.8925 H         1 UNK         0.0600 
    187 H187        0.3053  -14.4174  -44.9514 H         1 UNK         0.0600 
    188 H188        1.8065  -13.5401  -45.2769 H         1 UNK         0.0600 
    189 H189        0.4895  -12.0912  -47.8057 H         1 UNK         0.3000 
    190 H190        1.7024  -24.6219  -44.5159 H         1 UNK         0.3000 
    191 H191       -0.0974  -25.5970  -43.7437 H         1 UNK         0.0600 
    192 H192       -0.3463  -28.0322  -43.9264 H         1 UNK         0.0600 
    193 H193        1.3551  -27.6393  -43.7515 H         1 UNK         0.0600 
    194 H194        0.7098  -28.0887  -45.3299 H         1 UNK         0.0600 
    195 H195       -0.4067  -23.9948  -46.1494 H         1 UNK         0.3000 
    196 H196       -2.4812  -25.1545  -47.7933 H         1 UNK         0.0600 
    197 H197       -1.7550  -22.2177  -47.3611 H         1 UNK         0.0600 
    198 H198       -0.9348  -23.2705  -48.5162 H         1 UNK         0.0600 
    199 H199       -2.6380  -22.8878  -48.7233 H         1 UNK         0.0600 
    200 H200       -4.7062  -24.7237  -47.7488 H         1 UNK         0.3000 
    201 H201       -5.9132  -24.3750  -45.1453 H         1 UNK         0.0600 
    202 H202       -8.0045  -24.8709  -46.4072 H         1 UNK         0.0600 
    203 H203       -6.7453  -26.0249  -46.8121 H         1 UNK         0.0600 
    204 H204       -7.1430  -24.7220  -47.9337 H         1 UNK         0.0600 
    205 H205       -4.9895  -22.1071  -47.5437 H         1 UNK         0.3000 
    206 H206       -6.3116  -19.8912  -46.2980 H         1 UNK         0.0600 
    207 H207       -8.2191  -20.5968  -47.7186 H         1 UNK         0.0600 
    208 H208       -7.5010  -19.1802  -48.4608 H         1 UNK         0.0600 
    209 H209       -7.1711  -20.7808  -49.1169 H         1 UNK         0.0600 
    210 H210       -5.7322  -17.8769  -47.6613 H         1 UNK         0.3000 
    211 H211       -2.9489  -17.6200  -47.8017 H         1 UNK         0.0600 
    212 H212       -5.1310  -15.8252  -48.9872 H         1 UNK         0.0600 
    213 H213       -3.4756  -15.3473  -48.6296 H         1 UNK         0.0600 
    214 H214       -4.5537  -15.7768  -47.3222 H         1 UNK         0.0600 
    215 H215       -1.6473  -18.5527  -49.2356 H         1 UNK         0.3000 
    216 H216       -0.7900  -19.5962  -50.9732 H         1 UNK         0.0600 
    217 H217       -0.5783  -17.2934  -51.8773 H         1 UNK         0.0600 
    218 H218       -2.1570  -17.4285  -52.6379 H         1 UNK         0.0600 
    219 H219       -0.8262  -18.4480  -53.1743 H         1 UNK         0.0600 
    220 H220       -3.1413  -20.7197  -49.9758 H         1 UNK         0.3000 
    221 H221       -4.6707  -22.2724  -50.2772 H         1 UNK         0.0600 
    222 H222       -4.4681  -23.8974  -52.1533 H         1 UNK         0.0600 
    223 H223       -3.3242  -22.8396  -52.9699 H         1 UNK         0.0600 
    224 H224       -2.9061  -23.5642  -51.4240 H         1 UNK         0.0600 
    225 H225       -5.3252  -19.6449  -50.8153 H         1 UNK         0.3000 
    226 H226       -7.0106  -18.3441  -51.3641 H         1 UNK         0.0600 
    227 H227       -8.6123  -20.2417  -51.0310 H         1 UNK         0.0600 
    228 H228       -9.1326  -19.1384  -52.2927 H         1 UNK         0.0600 
    229 H229       -8.4357  -20.6887  -52.7270 H         1 UNK         0.0600 
    230 H230       -4.7990  -18.0731  -52.5970 H         1 UNK         0.3000 
    231 H231       -3.6336  -17.3024  -54.3234 H         1 UNK         0.0600 
    232 H232       -4.7499  -15.7043  -55.8280 H         1 UNK         0.0600 
    233 H233       -5.3678  -15.5163  -54.1960 H         1 UNK         0.0600 
    234 H234       -6.3305  -16.3547  -55.4126 H         1 UNK         0.0600 
    235 H235       -4.0248  -20.0076  -54.5096 H         1 UNK         0.3000 
    236 H236       -4.5507  -20.6155  -57.3895 H         1 UNK         0.0600 
    237 H237       -5.9182  -21.8760  -55.7407 H         1 UNK         0.0600 
    238 H238       -4.8268  -22.9401  -56.6170 H         1 UNK         0.0600 
    239 H239       -4.4555  -22.4724  -54.9633 H         1 UNK         0.0600 
    240 H240       -2.1241  -21.0148  -54.7298 H         1 UNK         0.3000 
    241 H241       -0.2243  -22.1834  -56.6781 H         1 UNK         0.0600 
    242 H242       -0.9383  -18.9979  -55.8005 H         1 UNK         0.3800 
    243 H243        0.6377  -18.3352  -56.1544 H         1 UNK         0.3800 
    244 H244        1.1183  -22.9351  -54.8975 H         1 UNK         0.0800 
    245 H245       -0.5191  -23.3804  -54.5532 H         1 UNK         0.0800 
    246 H246        2.4345  -21.0137  -53.6980 H         1 UNK         0.0800 
    247 H247        2.5307  -22.5256  -52.8309 H         1 UNK         0.0800 
@<TRIPOS>BOND
     1    1    2 1    
     2    1  127 1    
     3    1  128 1    
     4    1  129 1    
     5    2    3 2    
     6    2    4 am   BACKBONE|DICT|INTERRES
     7    4    5 1    
     8    4  130 1    
     9    5    6 1    
    10    5   65 1    
    11    5  131 1    
    12    6    7 1    
    13    6  132 1    
    14    6  133 1    
    15    7    8 1    
    16    8    9 1    
    17    8  134 1    
    18    8  135 1    
    19    9   10 ar   
    20    9   14 ar   
    21   10   11 ar   
    22   10  136 1    
    23   11   12 ar   
    24   11  126 1    
    25   12   13 ar   
    26   12  137 1    
    27   13   14 ar   
    28   13   15 1    
    29   14  138 1    
    30   15   16 1    
    31   15  139 1    
    32   15  140 1    
    33   16   17 1    
    34   17   18 1    
    35   17  141 1    
    36   17  142 1    
    37   18   19 1    
    38   18   67 1    
    39   18  143 1    
    40   19   20 am   BACKBONE|DICT|INTERRES
    41   19  144 1    
    42   20   21 2    
    43   20   22 1    
    44   22   23 1    
    45   22   24 1    
    46   22  145 1    
    47   23  146 1    
    48   23  147 1    
    49   23  148 1    
    50   24   25 am   BACKBONE|DICT|INTERRES
    51   24  149 1    
    52   25   26 2    
    53   25   27 1    
    54   27   28 1    
    55   27   29 1    
    56   27  150 1    
    57   28  151 1    
    58   28  152 1    
    59   28  153 1    
    60   29   30 am   BACKBONE|DICT|INTERRES
    61   29  154 1    
    62   30   31 2    
    63   30   32 1    
    64   32   33 1    
    65   32   34 1    
    66   32  155 1    
    67   33  156 1    
    68   33  157 1    
    69   33  158 1    
    70   34   35 am   BACKBONE|DICT|INTERRES
    71   34  159 1    
    72   35   36 2    
    73   35   37 1    
    74   37   38 1    
    75   37   39 1    
    76   37  160 1    
    77   38  161 1    
    78   38  162 1    
    79   38  163 1    
    80   39   40 am   BACKBONE|DICT|INTERRES
    81   39  164 1    
    82   40   41 2    
    83   40   42 1    
    84   42   43 1    
    85   42   44 1    
    86   42  165 1    
    87   43  166 1    
    88   43  167 1    
    89   43  168 1    
    90   44   45 am   BACKBONE|DICT|INTERRES
    91   44  169 1    
    92   45   46 2    
    93   45   47 1    
    94   47   48 1    
    95   47   49 1    
    96   47  170 1    
    97   48  171 1    
    98   48  172 1    
    99   48  173 1    
   100   49   50 am   BACKBONE|DICT|INTERRES
   101   49  174 1    
   102   50   51 2    
   103   50   52 1    
   104   52   53 1    
   105   52   54 1    
   106   52  175 1    
   107   53  176 1    
   108   53  177 1    
   109   53  178 1    
   110   54   55 am   BACKBONE|DICT|INTERRES
   111   54  179 1    
   112   55   56 2    
   113   55   57 1    
   114   57   58 1    
   115   57   59 1    
   116   57  180 1    
   117   58  181 1    
   118   58  182 1    
   119   58  183 1    
   120   59   60 am   BACKBONE|DICT|INTERRES
   121   59  184 1    
   122   60   61 2    
   123   60   62 1    
   124   62   63 1    
   125   62   64 1    
   126   62  185 1    
   127   63  186 1    
   128   63  187 1    
   129   63  188 1    
   130   64   65 am   BACKBONE|DICT|INTERRES
   131   64  189 1    
   132   65   66 2    
   133   67   68 2    
   134   67   69 am   BACKBONE|DICT|INTERRES
   135   69   70 1    
   136   69  190 1    
   137   70   71 1    
   138   70   72 1    
   139   70  191 1    
   140   71  192 1    
   141   71  193 1    
   142   71  194 1    
   143   72   73 2    
   144   72   74 am   BACKBONE|DICT|INTERRES
   145   74   75 1    
   146   74  195 1    
   147   75   76 1    
   148   75   77 1    
   149   75  196 1    
   150   76  197 1    
   151   76  198 1    
   152   76  199 1    
   153   77   78 2    
   154   77   79 am   BACKBONE|DICT|INTERRES
   155   79   80 1    
   156   79  200 1    
   157   80   81 1    
   158   80   82 1    
   159   80  201 1    
   160   81  202 1    
   161   81  203 1    
   162   81  204 1    
   163   82   83 2    
   164   82   84 am   BACKBONE|DICT|INTERRES
   165   84   85 1    
   166   84  205 1    
   167   85   86 1    
   168   85   87 1    
   169   85  206 1    
   170   86  207 1    
   171   86  208 1    
   172   86  209 1    
   173   87   88 2    
   174   87   89 am   BACKBONE|DICT|INTERRES
   175   89   90 1    
   176   89  210 1    
   177   90   91 1    
   178   90   92 1    
   179   90  211 1    
   180   91  212 1    
   181   91  213 1    
   182   91  214 1    
   183   92   93 2    
   184   92   94 am   BACKBONE|DICT|INTERRES
   185   94   95 1    
   186   94  215 1    
   187   95   96 1    
   188   95   97 1    
   189   95  216 1    
   190   96  217 1    
   191   96  218 1    
   192   96  219 1    
   193   97   98 2    
   194   97   99 am   BACKBONE|DICT|INTERRES
   195   99  100 1    
   196   99  220 1    
   197  100  101 1    
   198  100  102 1    
   199  100  221 1    
   200  101  222 1    
   201  101  223 1    
   202  101  224 1    
   203  102  103 2    
   204  102  104 am   BACKBONE|DICT|INTERRES
   205  104  105 1    
   206  104  225 1    
   207  105  106 1    
   208  105  107 1    
   209  105  226 1    
   210  106  227 1    
   211  106  228 1    
   212  106  229 1    
   213  107  108 2    
   214  107  109 am   BACKBONE|DICT|INTERRES
   215  109  110 1    
   216  109  230 1    
   217  110  111 1    
   218  110  112 1    
   219  110  231 1    
   220  111  232 1    
   221  111  233 1    
   222  111  234 1    
   223  112  113 2    
   224  112  114 am   BACKBONE|DICT|INTERRES
   225  114  115 1    
   226  114  235 1    
   227  115  116 1    
   228  115  117 1    
   229  115  236 1    
   230  116  237 1    
   231  116  238 1    
   232  116  239 1    
   233  117  118 2    
   234  117  119 am   BACKBONE|DICT|INTERRES
   235  119  120 1    
   236  119  240 1    
   237  120  121 1    
   238  120  124 1    
   239  120  241 1    
   240  121  122 am   BACKBONE|DICT|INTERRES
   241  121  123 2    
   242  122  242 1    
   243  122  243 1    
   244  124  125 1    
   245  124  244 1    
   246  124  245 1    
   247  125  126 1    
   248  126  246 1    
   249  126  247 1    
@<TRIPOS>SUBSTRUCTURE
     1 UNK         1 GROUP             0       ****    0 ROOT    
