@<TRIPOS>MOLECULE
3R540
247   249    1
SMALL
USER_CHARGES


@<TRIPOS>ATOM
      1 CA          6.2522  -10.2843  -47.8066 C.3       0 UNK        -0.1800 
      2 C           5.2456  -11.3330  -47.3554 C.2       0 UNK         0.5000 
      3 O           4.9847  -11.4546  -46.1593 O.2       0 UNK        -0.5000 
      4 N           4.6856  -12.0899  -48.3080 N.am      1 UNK        -0.5000 
      5 CA          3.6871  -13.1424  -48.0761 C.3       1 UNK         0.1400 
      6 C6          3.4814  -14.0145  -49.3344 C.3       23 UNK        -0.0398 
      7 S7          4.9624  -14.9959  -49.7487 S.3       23 UNK        -0.2404 
      8 C8          4.4599  -16.6543  -49.1669 C.3       23 UNK        -0.0205 
      9 C9          3.6839  -17.5075  -50.1727 C.ar      23 UNK        -0.0193 
     10 C10         2.9360  -16.9510  -51.2185 C.ar      23 UNK        -0.1150 
     11 C11         2.2733  -17.7677  -52.1381 C.ar      23 UNK        -0.0193 
     12 C12         2.3337  -19.1574  -51.9916 C.ar      23 UNK        -0.1150 
     13 C13         3.0562  -19.7329  -50.9425 C.ar      23 UNK        -0.0193 
     14 C14         3.7283  -18.9000  -50.0415 C.ar      23 UNK        -0.1150 
     15 C15         3.1769  -21.2505  -50.8374 C.3       23 UNK        -0.0205 
     16 S16         2.7437  -21.9106  -49.1935 S.3       23 UNK        -0.2404 
     17 C17         0.9221  -21.8666  -49.2267 C.3       23 UNK        -0.0398 
     18 CA          0.2998  -22.7978  -48.1560 C.3       11 UNK         0.1400 
     19 N           0.5772  -22.3621  -46.7822 N.am      11 UNK        -0.5000 
     20 C           0.2755  -23.0677  -45.6816 C.2       10 UNK         0.5000 
     21 O          -0.2110  -24.1982  -45.7078 O.2       10 UNK        -0.5000 
     22 CA          0.4895  -22.3735  -44.3233 C.3       10 UNK         0.1400 
     23 CB          1.9585  -22.4475  -43.8812 C.3       10 UNK        -0.1800 
     24 N           0.0392  -20.9809  -44.3352 N.am      10 UNK        -0.5000 
     25 C          -1.2363  -20.6013  -44.5019 C.2       9 UNK         0.5000 
     26 O          -2.1756  -21.3899  -44.5890 O.2       9 UNK        -0.5000 
     27 CA         -1.5036  -19.0943  -44.6542 C.3       9 UNK         0.1400 
     28 CB         -1.5901  -18.4053  -43.2838 C.3       9 UNK        -0.1800 
     29 N          -0.4813  -18.4497  -45.4763 N.am      9 UNK        -0.5000 
     30 C          -0.3581  -18.6289  -46.7998 C.2       8 UNK         0.5000 
     31 O          -1.1352  -19.2983  -47.4805 O.2       8 UNK        -0.5000 
     32 CA          0.8678  -17.9908  -47.4733 C.3       8 UNK         0.1400 
     33 CB          0.5264  -16.5958  -48.0004 C.3       8 UNK        -0.1800 
     34 N           2.0411  -17.9188  -46.5979 N.am      8 UNK        -0.5000 
     35 C           2.7100  -18.9997  -46.1738 C.2       7 UNK         0.5000 
     36 O           2.3914  -20.1496  -46.4644 O.2       7 UNK        -0.5000 
     37 CA          3.8861  -18.7630  -45.2123 C.3       7 UNK         0.1400 
     38 CB          5.1457  -18.3173  -45.9689 C.3       7 UNK        -0.1800 
     39 N           3.5840  -17.7984  -44.1528 N.am      7 UNK        -0.5000 
     40 C           2.6467  -17.9741  -43.2104 C.2       6 UNK         0.5000 
     41 O           1.8607  -18.9206  -43.1932 O.2       6 UNK        -0.5000 
     42 CA          2.5545  -16.8828  -42.1394 C.3       6 UNK         0.1400 
     43 CB          3.8614  -16.8054  -41.3210 C.3       6 UNK        -0.1800 
     44 N           2.2363  -15.6163  -42.7949 N.am      6 UNK        -0.5000 
     45 C           1.9743  -14.4505  -42.1915 C.2       5 UNK         0.5000 
     46 O           2.0183  -14.2693  -40.9743 O.2       5 UNK        -0.5000 
     47 CA          1.5587  -13.2954  -43.1225 C.3       5 UNK         0.1400 
     48 CB          2.7961  -12.7297  -43.8358 C.3       5 UNK        -0.1800 
     49 N           0.5351  -13.6984  -44.1002 N.am      5 UNK        -0.5000 
     50 C          -0.7031  -14.0836  -43.7457 C.2       4 UNK         0.5000 
     51 O          -1.1030  -14.0491  -42.5805 O.2       4 UNK        -0.5000 
     52 CA         -1.6503  -14.5906  -44.8497 C.3       4 UNK         0.1400 
     53 CB         -3.1126  -14.7201  -44.3623 C.3       4 UNK        -0.1800 
     54 N          -1.5859  -13.7510  -46.0429 N.am      4 UNK        -0.5000 
     55 C          -2.0508  -14.1035  -47.2471 C.2       3 UNK         0.5000 
     56 O          -2.5394  -15.2083  -47.4784 O.2       3 UNK        -0.5000 
     57 CA         -1.9680  -13.0812  -48.3985 C.3       3 UNK         0.1400 
     58 CB         -3.2797  -12.2847  -48.5309 C.3       3 UNK        -0.1800 
     59 N          -0.7948  -12.1991  -48.3678 N.am      3 UNK        -0.5000 
     60 C          -0.5004  -11.2293  -47.4917 C.2       2 UNK         0.5000 
     61 O          -1.2294  -10.9207  -46.5473 O.2       2 UNK        -0.5000 
     62 CA          0.8583  -10.5198  -47.6802 C.3       2 UNK         0.1400 
     63 CB          1.2738   -9.7114  -46.4356 C.3       2 UNK        -0.1800 
     64 N           1.9682  -11.3911  -48.0927 N.am      2 UNK        -0.5000 
     65 C           2.3384  -12.5771  -47.5796 C.2       1 UNK         0.5000 
     66 O           1.6899  -13.2131  -46.7462 O.2       1 UNK        -0.5000 
     67 C          -1.2122  -22.9841  -48.3984 C.2       11 UNK         0.5000 
     68 O          -1.6067  -23.9977  -48.9739 O.2       11 UNK        -0.5000 
     69 N          -2.0343  -22.0359  -47.9232 N.am      12 UNK        -0.5000 
     70 CA         -3.4950  -22.1070  -47.9906 C.3       12 UNK         0.1400 
     71 CB         -4.1082  -20.7706  -47.5529 C.3       12 UNK        -0.1800 
     72 C          -4.0722  -23.2717  -47.1711 C.2       12 UNK         0.5000 
     73 O          -4.9597  -23.9664  -47.6623 O.2       12 UNK        -0.5000 
     74 N          -3.5392  -23.4943  -45.9620 N.am      13 UNK        -0.5000 
     75 CA         -3.8971  -24.6147  -45.0918 C.3       13 UNK         0.1400 
     76 CB         -3.2287  -24.4453  -43.7194 C.3       13 UNK        -0.1800 
     77 C          -3.5461  -25.9784  -45.7128 C.2       13 UNK         0.5000 
     78 O          -4.3809  -26.8831  -45.6913 O.2       13 UNK        -0.5000 
     79 N          -2.3473  -26.0862  -46.3044 N.am      14 UNK        -0.5000 
     80 CA         -1.8828  -27.2658  -47.0403 C.3       14 UNK         0.1400 
     81 CB         -0.4031  -27.0876  -47.4118 C.3       14 UNK        -0.1800 
     82 C          -2.7287  -27.5647  -48.2938 C.2       14 UNK         0.5000 
     83 O          -2.9781  -28.7318  -48.5969 O.2       14 UNK        -0.5000 
     84 N          -3.1875  -26.5053  -48.9722 N.am      15 UNK        -0.5000 
     85 CA         -4.1012  -26.5624  -50.1135 C.3       15 UNK         0.1400 
     86 CB         -3.9407  -25.2736  -50.9355 C.3       15 UNK        -0.1800 
     87 C          -5.5797  -26.7618  -49.7182 C.2       15 UNK         0.5000 
     88 O          -6.4243  -26.8347  -50.6104 O.2       15 UNK        -0.5000 
     89 N          -5.8873  -26.8007  -48.4118 N.am      16 UNK        -0.5000 
     90 CA         -7.2282  -26.8933  -47.8187 C.3       16 UNK         0.1400 
     91 CB         -7.8362  -28.2878  -48.0743 C.3       16 UNK        -0.1800 
     92 C          -8.1612  -25.7394  -48.2526 C.2       16 UNK         0.5000 
     93 O          -9.3590  -25.9483  -48.4517 O.2       16 UNK        -0.5000 
     94 N          -7.5717  -24.5464  -48.4188 N.am      17 UNK        -0.5000 
     95 CA         -8.1587  -23.2901  -48.8940 C.3       17 UNK         0.1400 
     96 CB         -9.2557  -22.7949  -47.9296 C.3       17 UNK        -0.1800 
     97 C          -8.6324  -23.3117  -50.3649 C.2       17 UNK         0.5000 
     98 O          -9.2878  -22.3613  -50.7953 O.2       17 UNK        -0.5000 
     99 N          -8.2849  -24.3594  -51.1275 N.am      18 UNK        -0.5000 
    100 CA        -8.6325  -24.4963  -52.5451 C.3       18 UNK         0.1400 
    101 CB        -8.6634  -25.9875  -52.9146 C.3       18 UNK        -0.1800 
    102 C         -7.6724  -23.7305  -53.4770 C.2       18 UNK         0.5000 
    103 O         -7.9933  -23.5483  -54.6524 O.2       18 UNK        -0.5000 
    104 N         -6.5188  -23.3030  -52.9523 N.am      19 UNK        -0.5000 
    105 CA        -5.4799  -22.5588  -53.6542 C.3       19 UNK         0.1400 
    106 CB        -4.6088  -23.5266  -54.4815 C.3       19 UNK        -0.1800 
    107 C         -4.6495  -21.7637  -52.6327 C.2       19 UNK         0.5000 
    108 O         -4.9109  -21.8443  -51.4290 O.2       19 UNK        -0.5000 
    109 N         -3.6615  -21.0200  -53.1462 N.am      20 UNK        -0.5000 
    110 CA        -2.7493  -20.1289  -52.4260 C.3       20 UNK         0.1400 
    111 CB        -1.8352  -20.9130  -51.4609 C.3       20 UNK        -0.1800 
    112 C         -3.4826  -18.9261  -51.7927 C.2       20 UNK         0.5000 
    113 O         -4.3643  -18.3638  -52.4459 O.2       20 UNK        -0.5000 
    114 N         -3.0763  -18.5227  -50.5771 N.am      21 UNK        -0.5000 
    115 CA        -3.4813  -17.2980  -49.8707 C.3       21 UNK         0.1400 
    116 CB        -4.9709  -17.3453  -49.4696 C.3       21 UNK        -0.1800 
    117 C         -3.1094  -16.0354  -50.6811 C.2       21 UNK         0.5000 
    118 O         -3.9594  -15.1881  -50.9618 O.2       21 UNK        -0.5000 
    119 N         -1.8401  -15.9832  -51.0941 N.am      22 UNK        -0.5000 
    120 CA        -1.2834  -15.0733  -52.1038 C.3       22 UNK         0.1400 
    121 C         -0.0536  -14.2745  -51.5879 C.2       22 UNK         0.5000 
    122 N          0.5087  -13.3900  -52.4009 N.am      22 UNK        -0.7600 
    123 O          0.3864  -14.4144  -50.4510 O.2       22 UNK        -0.5000 
    124 C124       -1.0034  -15.8333  -53.4348 C.3       23 UNK        -0.0398 
    125 S125       -0.2500  -17.4902  -53.2315 S.3       23 UNK        -0.2404 
    126 C126        1.5321  -17.1488  -53.3154 C.3       23 UNK        -0.0205 
    127 H127        7.2195  -10.4671  -47.3386 H         1 UNK         0.0600 
    128 H128        5.9134   -9.2902  -47.5150 H         1 UNK         0.0600 
    129 H129        6.3906  -10.2930  -48.8881 H         1 UNK         0.0600 
    130 H130        4.9708  -11.9621  -49.2685 H         1 UNK         0.3000 
    131 H131        4.0650  -13.7851  -47.2777 H         1 UNK         0.0600 
    132 H132        2.6441  -14.6921  -49.1942 H         1 UNK         0.0800 
    133 H133        3.2200  -13.3979  -50.1957 H         1 UNK         0.0800 
    134 H134        3.8688  -16.5543  -48.2578 H         1 UNK         0.0800 
    135 H135        5.3714  -17.1834  -48.8849 H         1 UNK         0.0800 
    136 H136        2.8800  -15.8797  -51.3398 H         1 UNK         0.1150 
    137 H137        1.8302  -19.7889  -52.7102 H         1 UNK         0.1150 
    138 H138        4.3022  -19.3441  -49.2402 H         1 UNK         0.1150 
    139 H139        2.5705  -21.7467  -51.5966 H         1 UNK         0.0800 
    140 H140        4.2110  -21.5223  -51.0526 H         1 UNK         0.0800 
    141 H141        0.6008  -22.1710  -50.2242 H         1 UNK         0.0800 
    142 H142        0.5886  -20.8373  -49.0925 H         1 UNK         0.0800 
    143 H143        0.7540  -23.7844  -48.2723 H         1 UNK         0.0600 
    144 H144        1.0592  -21.4727  -46.6753 H         1 UNK         0.3000 
    145 H145       -0.1088  -22.9068  -43.5818 H         1 UNK         0.0600 
    146 H146        2.0992  -21.9863  -42.9034 H         1 UNK         0.0600 
    147 H147        2.2880  -23.4843  -43.8037 H         1 UNK         0.0600 
    148 H148        2.6225  -21.9465  -44.5846 H         1 UNK         0.0600 
    149 H149        0.7525  -20.2686  -44.2222 H         1 UNK         0.3000 
    150 H150       -2.4674  -18.9721  -45.1530 H         1 UNK         0.0600 
    151 H151       -2.3951  -18.8351  -42.6865 H         1 UNK         0.0600 
    152 H152       -1.7972  -17.3413  -43.3867 H         1 UNK         0.0600 
    153 H153       -0.6695  -18.5123  -42.7113 H         1 UNK         0.0600 
    154 H154        0.2403  -17.9419  -44.9890 H         1 UNK         0.3000 
    155 H155        1.1241  -18.6146  -48.3322 H         1 UNK         0.0600 
    156 H156       -0.4241  -16.5942  -48.5339 H         1 UNK         0.0600 
    157 H157        1.2801  -16.2719  -48.7109 H         1 UNK         0.0600 
    158 H158        0.4618  -15.8557  -47.2027 H         1 UNK         0.0600 
    159 H159        2.3508  -17.0038  -46.3098 H         1 UNK         0.3000 
    160 H160        4.1057  -19.7207  -44.7351 H         1 UNK         0.0600 
    161 H161        5.0555  -17.2967  -46.3393 H         1 UNK         0.0600 
    162 H162        5.3447  -18.9669  -46.8224 H         1 UNK         0.0600 
    163 H163        6.0226  -18.3568  -45.3224 H         1 UNK         0.0600 
    164 H164        4.1945  -16.9970  -44.0852 H         1 UNK         0.3000 
    165 H165        1.7323  -17.1410  -41.4689 H         1 UNK         0.0600 
    166 H166        3.7447  -16.1788  -40.4373 H         1 UNK         0.0600 
    167 H167        4.1611  -17.7933  -40.9685 H         1 UNK         0.0600 
    168 H168        4.6866  -16.4007  -41.9076 H         1 UNK         0.0600 
    169 H169        2.1435  -15.6564  -43.7989 H         1 UNK         0.3000 
    170 H170        1.1376  -12.5012  -42.5024 H         1 UNK         0.0600 
    171 H171        3.5575  -12.4257  -43.1165 H         1 UNK         0.0600 
    172 H172        3.2530  -13.4613  -44.5030 H         1 UNK         0.0600 
    173 H173        2.5485  -11.8507  -44.4266 H         1 UNK         0.0600 
    174 H174        0.8101  -13.6880  -45.0796 H         1 UNK         0.3000 
    175 H175       -1.2921  -15.5862  -45.1175 H         1 UNK         0.0600 
    176 H176       -3.5387  -13.7450  -44.1242 H         1 UNK         0.0600 
    177 H177       -3.7498  -15.1882  -45.1120 H         1 UNK         0.0600 
    178 H178       -3.1827  -15.3371  -43.4660 H         1 UNK         0.0600 
    179 H179       -1.2304  -12.8072  -45.9249 H         1 UNK         0.3000 
    180 H180       -1.8649  -13.6652  -49.3110 H         1 UNK         0.0600 
    181 H181       -4.1224  -12.9575  -48.6956 H         1 UNK         0.0600 
    182 H182       -3.2418  -11.6000  -49.3780 H         1 UNK         0.0600 
    183 H183       -3.5000  -11.7036  -47.6353 H         1 UNK         0.0600 
    184 H184       -0.0876  -12.4304  -49.0534 H         1 UNK         0.3000 
    185 H185        0.7129   -9.8109  -48.4964 H         1 UNK         0.0600 
    186 H186        0.5541   -8.9195  -46.2251 H         1 UNK         0.0600 
    187 H187        1.3299  -10.3424  -45.5500 H         1 UNK         0.0600 
    188 H188        2.2457   -9.2375  -46.5737 H         1 UNK         0.0600 
    189 H189        2.5845  -10.9881  -48.7840 H         1 UNK         0.3000 
    190 H190       -1.6404  -21.2016  -47.4996 H         1 UNK         0.3000 
    191 H191       -3.7733  -22.2777  -49.0313 H         1 UNK         0.0600 
    192 H192       -3.8919  -20.5467  -46.5087 H         1 UNK         0.0600 
    193 H193       -5.1924  -20.7826  -47.6704 H         1 UNK         0.0600 
    194 H194       -3.7240  -19.9497  -48.1560 H         1 UNK         0.0600 
    195 H195       -2.8558  -22.8348  -45.5986 H         1 UNK         0.3000 
    196 H196       -4.9789  -24.5864  -44.9456 H         1 UNK         0.0600 
    197 H197       -3.5048  -25.2590  -43.0476 H         1 UNK         0.0600 
    198 H198       -3.5356  -23.5131  -43.2448 H         1 UNK         0.0600 
    199 H199       -2.1417  -24.4381  -43.7971 H         1 UNK         0.0600 
    200 H200       -1.6987  -25.3055  -46.2415 H         1 UNK         0.3000 
    201 H201       -1.9647  -28.1265  -46.3735 H         1 UNK         0.0600 
    202 H202        0.2126  -26.9514  -46.5226 H         1 UNK         0.0600 
    203 H203       -0.2517  -26.2227  -48.0581 H         1 UNK         0.0600 
    204 H204       -0.0240  -27.9635  -47.9397 H         1 UNK         0.0600 
    205 H205       -2.8777  -25.5800  -48.6928 H         1 UNK         0.3000 
    206 H206       -3.8201  -27.4058  -50.7472 H         1 UNK         0.0600 
    207 H207       -2.9136  -25.1456  -51.2774 H         1 UNK         0.0600 
    208 H208       -4.5773  -25.2934  -51.8199 H         1 UNK         0.0600 
    209 H209       -4.2119  -24.3910  -50.3556 H         1 UNK         0.0600 
    210 H210       -5.1306  -26.7012  -47.7464 H         1 UNK         0.3000 
    211 H211       -7.0924  -26.7837  -46.7420 H         1 UNK         0.0600 
    212 H212       -8.0526  -28.4479  -49.1310 H         1 UNK         0.0600 
    213 H213       -8.7705  -28.4141  -47.5261 H         1 UNK         0.0600 
    214 H214       -7.1600  -29.0774  -47.7468 H         1 UNK         0.0600 
    215 H215       -6.5759  -24.4854  -48.2046 H         1 UNK         0.3000 
    216 H216       -7.3460  -22.5627  -48.8614 H         1 UNK         0.0600 
    217 H217       -9.5757  -21.7842  -48.1854 H         1 UNK         0.0600 
    218 H218       -8.8936  -22.7673  -46.9018 H         1 UNK         0.0600 
    219 H219      -10.1396  -23.4324  -47.9583 H         1 UNK         0.0600 
    220 H220       -7.7460  -25.1153  -50.7201 H         1 UNK         0.3000 
    221 H221       -9.6353  -24.0939  -52.7031 H         1 UNK         0.0600 
    222 H222       -7.6684  -26.4317  -52.8829 H         1 UNK         0.0600 
    223 H223       -9.3064  -26.5515  -52.2385 H         1 UNK         0.0600 
    224 H224       -9.0490  -26.1292  -53.9249 H         1 UNK         0.0600 
    225 H225       -6.3516  -23.4182  -51.9613 H         1 UNK         0.3000 
    226 H226       -5.9537  -21.8369  -54.3227 H         1 UNK         0.0600 
    227 H227       -5.2140  -24.1236  -55.1638 H         1 UNK         0.0600 
    228 H228       -3.8846  -22.9867  -55.0918 H         1 UNK         0.0600 
    229 H229       -4.0510  -24.2126  -53.8445 H         1 UNK         0.0600 
    230 H230       -3.5595  -21.0039  -54.1508 H         1 UNK         0.3000 
    231 H231       -2.1058  -19.7059  -53.1968 H         1 UNK         0.0600 
    232 H232       -1.3572  -21.7506  -51.9689 H         1 UNK         0.0600 
    233 H233       -2.3931  -21.3142  -50.6182 H         1 UNK         0.0600 
    234 H234       -1.0377  -20.2808  -51.0689 H         1 UNK         0.0600 
    235 H235       -2.3570  -19.0636  -50.1184 H         1 UNK         0.3000 
    236 H236       -2.8944  -17.2756  -48.9525 H         1 UNK         0.0600 
    237 H237       -5.2265  -16.4895  -48.8436 H         1 UNK         0.0600 
    238 H238       -5.6297  -17.3225  -50.3379 H         1 UNK         0.0600 
    239 H239       -5.2026  -18.2437  -48.8993 H         1 UNK         0.0600 
    240 H240       -1.1984  -16.6986  -50.7871 H         1 UNK         0.3000 
    241 H241       -2.0256  -14.3027  -52.3190 H         1 UNK         0.0600 
    242 H242        1.2992  -12.8607  -52.0720 H         1 UNK         0.3800 
    243 H243        0.1550  -13.2152  -53.3282 H         1 UNK         0.3800 
    244 H244       -1.9579  -15.9956  -53.9373 H         1 UNK         0.0800 
    245 H245       -0.4161  -15.2415  -54.1378 H         1 UNK         0.0800 
    246 H246        1.7107  -16.0737  -53.3584 H         1 UNK         0.0800 
    247 H247        1.9278  -17.5601  -54.2449 H         1 UNK         0.0800 
@<TRIPOS>BOND
     1    1    2 1    
     2    1  127 1    
     3    1  128 1    
     4    1  129 1    
     5    2    3 2    
     6    2    4 am   BACKBONE|DICT|INTERRES
     7    4    5 1    
     8    4  130 1    
     9    5    6 1    
    10    5   65 1    
    11    5  131 1    
    12    6    7 1    
    13    6  132 1    
    14    6  133 1    
    15    7    8 1    
    16    8    9 1    
    17    8  134 1    
    18    8  135 1    
    19    9   10 ar   
    20    9   14 ar   
    21   10   11 ar   
    22   10  136 1    
    23   11   12 ar   
    24   11  126 1    
    25   12   13 ar   
    26   12  137 1    
    27   13   14 ar   
    28   13   15 1    
    29   14  138 1    
    30   15   16 1    
    31   15  139 1    
    32   15  140 1    
    33   16   17 1    
    34   17   18 1    
    35   17  141 1    
    36   17  142 1    
    37   18   19 1    
    38   18   67 1    
    39   18  143 1    
    40   19   20 am   BACKBONE|DICT|INTERRES
    41   19  144 1    
    42   20   21 2    
    43   20   22 1    
    44   22   23 1    
    45   22   24 1    
    46   22  145 1    
    47   23  146 1    
    48   23  147 1    
    49   23  148 1    
    50   24   25 am   BACKBONE|DICT|INTERRES
    51   24  149 1    
    52   25   26 2    
    53   25   27 1    
    54   27   28 1    
    55   27   29 1    
    56   27  150 1    
    57   28  151 1    
    58   28  152 1    
    59   28  153 1    
    60   29   30 am   BACKBONE|DICT|INTERRES
    61   29  154 1    
    62   30   31 2    
    63   30   32 1    
    64   32   33 1    
    65   32   34 1    
    66   32  155 1    
    67   33  156 1    
    68   33  157 1    
    69   33  158 1    
    70   34   35 am   BACKBONE|DICT|INTERRES
    71   34  159 1    
    72   35   36 2    
    73   35   37 1    
    74   37   38 1    
    75   37   39 1    
    76   37  160 1    
    77   38  161 1    
    78   38  162 1    
    79   38  163 1    
    80   39   40 am   BACKBONE|DICT|INTERRES
    81   39  164 1    
    82   40   41 2    
    83   40   42 1    
    84   42   43 1    
    85   42   44 1    
    86   42  165 1    
    87   43  166 1    
    88   43  167 1    
    89   43  168 1    
    90   44   45 am   BACKBONE|DICT|INTERRES
    91   44  169 1    
    92   45   46 2    
    93   45   47 1    
    94   47   48 1    
    95   47   49 1    
    96   47  170 1    
    97   48  171 1    
    98   48  172 1    
    99   48  173 1    
   100   49   50 am   BACKBONE|DICT|INTERRES
   101   49  174 1    
   102   50   51 2    
   103   50   52 1    
   104   52   53 1    
   105   52   54 1    
   106   52  175 1    
   107   53  176 1    
   108   53  177 1    
   109   53  178 1    
   110   54   55 am   BACKBONE|DICT|INTERRES
   111   54  179 1    
   112   55   56 2    
   113   55   57 1    
   114   57   58 1    
   115   57   59 1    
   116   57  180 1    
   117   58  181 1    
   118   58  182 1    
   119   58  183 1    
   120   59   60 am   BACKBONE|DICT|INTERRES
   121   59  184 1    
   122   60   61 2    
   123   60   62 1    
   124   62   63 1    
   125   62   64 1    
   126   62  185 1    
   127   63  186 1    
   128   63  187 1    
   129   63  188 1    
   130   64   65 am   BACKBONE|DICT|INTERRES
   131   64  189 1    
   132   65   66 2    
   133   67   68 2    
   134   67   69 am   BACKBONE|DICT|INTERRES
   135   69   70 1    
   136   69  190 1    
   137   70   71 1    
   138   70   72 1    
   139   70  191 1    
   140   71  192 1    
   141   71  193 1    
   142   71  194 1    
   143   72   73 2    
   144   72   74 am   BACKBONE|DICT|INTERRES
   145   74   75 1    
   146   74  195 1    
   147   75   76 1    
   148   75   77 1    
   149   75  196 1    
   150   76  197 1    
   151   76  198 1    
   152   76  199 1    
   153   77   78 2    
   154   77   79 am   BACKBONE|DICT|INTERRES
   155   79   80 1    
   156   79  200 1    
   157   80   81 1    
   158   80   82 1    
   159   80  201 1    
   160   81  202 1    
   161   81  203 1    
   162   81  204 1    
   163   82   83 2    
   164   82   84 am   BACKBONE|DICT|INTERRES
   165   84   85 1    
   166   84  205 1    
   167   85   86 1    
   168   85   87 1    
   169   85  206 1    
   170   86  207 1    
   171   86  208 1    
   172   86  209 1    
   173   87   88 2    
   174   87   89 am   BACKBONE|DICT|INTERRES
   175   89   90 1    
   176   89  210 1    
   177   90   91 1    
   178   90   92 1    
   179   90  211 1    
   180   91  212 1    
   181   91  213 1    
   182   91  214 1    
   183   92   93 2    
   184   92   94 am   BACKBONE|DICT|INTERRES
   185   94   95 1    
   186   94  215 1    
   187   95   96 1    
   188   95   97 1    
   189   95  216 1    
   190   96  217 1    
   191   96  218 1    
   192   96  219 1    
   193   97   98 2    
   194   97   99 am   BACKBONE|DICT|INTERRES
   195   99  100 1    
   196   99  220 1    
   197  100  101 1    
   198  100  102 1    
   199  100  221 1    
   200  101  222 1    
   201  101  223 1    
   202  101  224 1    
   203  102  103 2    
   204  102  104 am   BACKBONE|DICT|INTERRES
   205  104  105 1    
   206  104  225 1    
   207  105  106 1    
   208  105  107 1    
   209  105  226 1    
   210  106  227 1    
   211  106  228 1    
   212  106  229 1    
   213  107  108 2    
   214  107  109 am   BACKBONE|DICT|INTERRES
   215  109  110 1    
   216  109  230 1    
   217  110  111 1    
   218  110  112 1    
   219  110  231 1    
   220  111  232 1    
   221  111  233 1    
   222  111  234 1    
   223  112  113 2    
   224  112  114 am   BACKBONE|DICT|INTERRES
   225  114  115 1    
   226  114  235 1    
   227  115  116 1    
   228  115  117 1    
   229  115  236 1    
   230  116  237 1    
   231  116  238 1    
   232  116  239 1    
   233  117  118 2    
   234  117  119 am   BACKBONE|DICT|INTERRES
   235  119  120 1    
   236  119  240 1    
   237  120  121 1    
   238  120  124 1    
   239  120  241 1    
   240  121  122 am   BACKBONE|DICT|INTERRES
   241  121  123 2    
   242  122  242 1    
   243  122  243 1    
   244  124  125 1    
   245  124  244 1    
   246  124  245 1    
   247  125  126 1    
   248  126  246 1    
   249  126  247 1    
@<TRIPOS>SUBSTRUCTURE
     1 UNK         1 GROUP             0       ****    0 ROOT    
