@<TRIPOS>MOLECULE
3R540
247   249    1
SMALL
USER_CHARGES


@<TRIPOS>ATOM
      1 CA          0.3581  -10.5024  -49.7773 C.3       0 UNK        -0.1800 
      2 C           0.6114  -11.9676  -49.4536 C.2       0 UNK         0.5000 
      3 O           1.4606  -12.5983  -50.0844 O.2       0 UNK        -0.5000 
      4 N          -0.1114  -12.5103  -48.4664 N.am      1 UNK        -0.5000 
      5 CA         -0.0356  -13.9025  -48.0086 C.3       1 UNK         0.1400 
      6 C6         -1.3282  -14.3293  -47.2614 C.3       23 UNK        -0.0398 
      7 S7         -2.8111  -14.3476  -48.3257 S.3       23 UNK        -0.2404 
      8 C8         -3.1191  -16.1362  -48.5101 C.3       23 UNK        -0.0205 
      9 C9         -2.2465  -16.7510  -49.5943 C.ar      23 UNK        -0.0193 
     10 C10        -2.7564  -16.9422  -50.8826 C.ar      23 UNK        -0.1150 
     11 C11        -1.9595  -17.5016  -51.8862 C.ar      23 UNK        -0.0193 
     12 C12        -0.6418  -17.8644  -51.5923 C.ar      23 UNK        -0.1150 
     13 C13        -0.1155  -17.6623  -50.3144 C.ar      23 UNK        -0.0193 
     14 C14        -0.9288  -17.1238  -49.3144 C.ar      23 UNK        -0.1150 
     15 C15         1.3429  -17.9886  -50.0352 C.3       23 UNK        -0.0205 
     16 S16         1.5790  -19.7384  -49.6099 S.3       23 UNK        -0.2404 
     17 C17         1.1508  -19.7311  -47.8379 C.3       23 UNK        -0.0398 
     18 CA          0.5566  -21.0763  -47.3675 C.3       11 UNK         0.1400 
     19 N           0.7307  -21.2755  -45.9301 N.am      11 UNK        -0.5000 
     20 C           0.5898  -22.4525  -45.3082 C.2       10 UNK         0.5000 
     21 O           0.2985  -23.4993  -45.8876 O.2       10 UNK        -0.5000 
     22 CA          0.7713  -22.4517  -43.7799 C.3       10 UNK         0.1400 
     23 CB          2.2607  -22.4134  -43.4067 C.3       10 UNK        -0.1800 
     24 N           0.0736  -21.3421  -43.1287 N.am      10 UNK        -0.5000 
     25 C          -1.2574  -21.1794  -43.1366 C.2       9 UNK         0.5000 
     26 O          -2.0397  -21.9591  -43.6807 O.2       9 UNK        -0.5000 
     27 CA         -1.8047  -19.9115  -42.4577 C.3       9 UNK         0.1400 
     28 CB         -1.7993  -20.0612  -40.9290 C.3       9 UNK        -0.1800 
     29 N          -1.0696  -18.7045  -42.8331 N.am      9 UNK        -0.5000 
     30 C          -0.9807  -18.2226  -44.0813 C.2       8 UNK         0.5000 
     31 O          -1.5166  -18.7355  -45.0612 O.2       8 UNK        -0.5000 
     32 CA         -0.0998  -16.9820  -44.2770 C.3       8 UNK         0.1400 
     33 CB         -0.8115  -15.7344  -43.7244 C.3       8 UNK        -0.1800 
     34 N           1.2152  -17.1359  -43.6561 N.am      8 UNK        -0.5000 
     35 C           2.0962  -18.1068  -43.9394 C.2       7 UNK         0.5000 
     36 O           1.9169  -18.9675  -44.7985 O.2       7 UNK        -0.5000 
     37 CA          3.3647  -18.1710  -43.0740 C.3       7 UNK         0.1400 
     38 CB          4.4338  -17.1892  -43.5739 C.3       7 UNK        -0.1800 
     39 N           3.0704  -17.9151  -41.6658 N.am      7 UNK        -0.5000 
     40 C           2.3672  -18.7427  -40.8794 C.2       6 UNK         0.5000 
     41 O           1.9275  -19.8331  -41.2468 O.2       6 UNK        -0.5000 
     42 CA          2.0697  -18.2389  -39.4561 C.3       6 UNK         0.1400 
     43 CB          3.2704  -18.4822  -38.5296 C.3       6 UNK        -0.1800 
     44 N           1.7188  -16.8176  -39.4377 N.am      6 UNK        -0.5000 
     45 C           0.5934  -16.3172  -39.9663 C.2       5 UNK         0.5000 
     46 O          -0.2853  -17.0106  -40.4797 O.2       5 UNK        -0.5000 
     47 CA          0.4438  -14.7838  -39.9517 C.3       5 UNK         0.1400 
     48 CB         -0.1704  -14.3150  -38.6244 C.3       5 UNK        -0.1800 
     49 N           1.7004  -14.0628  -40.1880 N.am      5 UNK        -0.5000 
     50 C           2.4117  -14.1311  -41.3212 C.2       4 UNK         0.5000 
     51 O           2.1255  -14.8743  -42.2590 O.2       4 UNK        -0.5000 
     52 CA          3.6799  -13.2667  -41.4042 C.3       4 UNK         0.1400 
     53 CB          4.9192  -14.0932  -41.0301 C.3       4 UNK        -0.1800 
     54 N           3.8619  -12.7157  -42.7471 N.am      4 UNK        -0.5000 
     55 C           3.1635  -11.6944  -43.2547 C.2       3 UNK         0.5000 
     56 O           2.2860  -11.0964  -42.6301 O.2       3 UNK        -0.5000 
     57 CA          3.5168  -11.2306  -44.6828 C.3       3 UNK         0.1400 
     58 CB          4.9015  -10.5559  -44.7263 C.3       3 UNK        -0.1800 
     59 N           3.3896  -12.2573  -45.7244 N.am      3 UNK        -0.5000 
     60 C           4.0851  -13.3906  -45.8953 C.2       2 UNK         0.5000 
     61 O           4.9857  -13.7589  -45.1388 O.2       2 UNK        -0.5000 
     62 CA          3.7386  -14.2361  -47.1464 C.3       2 UNK         0.1400 
     63 CB          3.9169  -15.7492  -46.9026 C.3       2 UNK        -0.1800 
     64 N           2.4157  -13.9697  -47.7337 N.am      2 UNK        -0.5000 
     65 C           1.2248  -14.1453  -47.1457 C.2       1 UNK         0.5000 
     66 O           1.1046  -14.4649  -45.9664 O.2       1 UNK        -0.5000 
     67 C          -0.9120  -21.2622  -47.8000 C.2       11 UNK         0.5000 
     68 O          -1.1545  -21.9069  -48.8174 O.2       11 UNK        -0.5000 
     69 N          -1.8702  -20.7683  -47.0007 N.am      12 UNK        -0.5000 
     70 CA         -3.3045  -20.9772  -47.2135 C.3       12 UNK         0.1400 
     71 CB         -4.1168  -20.1313  -46.2230 C.3       12 UNK        -0.1800 
     72 C          -3.7116  -22.4592  -47.1231 C.2       12 UNK         0.5000 
     73 O          -4.5269  -22.9084  -47.9292 O.2       12 UNK        -0.5000 
     74 N          -3.1115  -23.1992  -46.1792 N.am      13 UNK        -0.5000 
     75 CA         -3.2759  -24.6462  -46.0381 C.3       13 UNK         0.1400 
     76 CB         -2.6614  -25.1181  -44.7121 C.3       13 UNK        -0.1800 
     77 C          -2.6881  -25.4212  -47.2317 C.2       13 UNK         0.5000 
     78 O          -3.3480  -26.3242  -47.7462 O.2       13 UNK        -0.5000 
     79 N          -1.4906  -25.0256  -47.6902 N.am      14 UNK        -0.5000 
     80 CA         -0.8412  -25.5614  -48.8927 C.3       14 UNK         0.1400 
     81 CB          0.5897  -25.0126  -48.9939 C.3       14 UNK        -0.1800 
     82 C          -1.6342  -25.2657  -50.1825 C.2       14 UNK         0.5000 
     83 O          -1.6971  -26.1136  -51.0723 O.2       14 UNK        -0.5000 
     84 N          -2.2714  -24.0892  -50.2290 N.am      15 UNK        -0.5000 
     85 CA         -3.1998  -23.6437  -51.2672 C.3       15 UNK         0.1400 
     86 CB         -3.2969  -22.1110  -51.2017 C.3       15 UNK        -0.1800 
     87 C          -4.6062  -24.2737  -51.1619 C.2       15 UNK         0.5000 
     88 O          -5.4836  -23.8952  -51.9424 O.2       15 UNK        -0.5000 
     89 N          -4.8125  -25.1771  -50.1894 N.am      16 UNK        -0.5000 
     90 CA         -6.0343  -25.9362  -49.8958 C.3       16 UNK         0.1400 
     91 CB         -6.3389  -26.9142  -51.0496 C.3       16 UNK        -0.1800 
     92 C          -7.2498  -25.0551  -49.5382 C.2       16 UNK         0.5000 
     93 O          -8.3893  -25.4830  -49.7279 O.2       16 UNK        -0.5000 
     94 N          -6.9854  -23.8251  -49.0687 N.am      17 UNK        -0.5000 
     95 CA         -7.9323  -22.7242  -48.8511 C.3       17 UNK         0.1400 
     96 CB         -8.8963  -23.0529  -47.6934 C.3       17 UNK        -0.1800 
     97 C          -8.6738  -22.2758  -50.1345 C.2       17 UNK         0.5000 
     98 O          -9.6965  -21.5950  -50.0422 O.2       17 UNK        -0.5000 
     99 N          -8.1448  -22.6563  -51.3053 N.am      18 UNK        -0.5000 
    100 CA        -8.7291  -22.4324  -52.6276 C.3       18 UNK         0.1400 
    101 CB        -8.8480  -23.7973  -53.3285 C.3       18 UNK        -0.1800 
    102 C         -7.8850  -21.4610  -53.4731 C.2       18 UNK         0.5000 
    103 O         -8.2130  -21.2421  -54.6396 O.2       18 UNK        -0.5000 
    104 N         -6.8055  -20.9194  -52.8853 N.am      19 UNK        -0.5000 
    105 CA        -5.7979  -20.0471  -53.5016 C.3       19 UNK         0.1400 
    106 CB        -6.4223  -18.7171  -53.9752 C.3       19 UNK        -0.1800 
    107 C         -4.9779  -20.7489  -54.6072 C.2       19 UNK         0.5000 
    108 O         -4.4151  -20.0730  -55.4684 O.2       19 UNK        -0.5000 
    109 N         -4.8878  -22.0885  -54.5500 N.am      20 UNK        -0.5000 
    110 CA        -4.2359  -22.9385  -55.5528 C.3       20 UNK         0.1400 
    111 CB        -4.4590  -24.4134  -55.1865 C.3       20 UNK        -0.1800 
    112 C         -2.7352  -22.6481  -55.7522 C.2       20 UNK         0.5000 
    113 O         -2.2307  -22.8010  -56.8650 O.2       20 UNK        -0.5000 
    114 N         -2.0629  -22.1775  -54.6913 N.am      21 UNK        -0.5000 
    115 CA        -0.6641  -21.7369  -54.7055 C.3       21 UNK         0.1400 
    116 CB        -0.2054  -21.4891  -53.2596 C.3       21 UNK        -0.1800 
    117 C         -0.4155  -20.4825  -55.5710 C.2       21 UNK         0.5000 
    118 O          0.7238  -20.2454  -55.9738 O.2       21 UNK        -0.5000 
    119 N         -1.4776  -19.7164  -55.8465 N.am      22 UNK        -0.5000 
    120 CA        -1.4814  -18.5300  -56.7129 C.3       22 UNK         0.1400 
    121 C         -1.9305  -18.8482  -58.1707 C.2       22 UNK         0.5000 
    122 N         -2.1962  -20.0974  -58.5392 N.am      22 UNK        -0.7600 
    123 O         -2.0200  -17.9448  -58.9974 O.2       22 UNK        -0.5000 
    124 C124       -2.3229  -17.3842  -56.0884 C.3       23 UNK        -0.0398 
    125 S125       -1.6044  -16.7556  -54.5321 S.3       23 UNK        -0.2404 
    126 C126       -2.5168  -17.7201  -53.2849 C.3       23 UNK        -0.0205 
    127 H127        0.0412  -10.3975  -50.8150 H         1 UNK         0.0600 
    128 H128        1.2716   -9.9242  -49.6384 H         1 UNK         0.0600 
    129 H129       -0.4162  -10.0740  -49.1404 H         1 UNK         0.0600 
    130 H130       -0.7873  -11.9354  -47.9836 H         1 UNK         0.3000 
    131 H131        0.0658  -14.5409  -48.8882 H         1 UNK         0.0600 
    132 H132       -1.2110  -15.3181  -46.8176 H         1 UNK         0.0800 
    133 H133       -1.5204  -13.6562  -46.4240 H         1 UNK         0.0800 
    134 H134       -4.1718  -16.2803  -48.7581 H         1 UNK         0.0800 
    135 H135       -2.9651  -16.6523  -47.5609 H         1 UNK         0.0800 
    136 H136       -3.7742  -16.6525  -51.1035 H         1 UNK         0.1150 
    137 H137       -0.0179  -18.2863  -52.3680 H         1 UNK         0.1150 
    138 H138       -0.5289  -16.9718  -48.3235 H         1 UNK         0.1150 
    139 H139        1.9397  -17.7623  -50.9200 H         1 UNK         0.0800 
    140 H140        1.7357  -17.3547  -49.2383 H         1 UNK         0.0800 
    141 H141        0.4852  -18.9044  -47.5902 H         1 UNK         0.0800 
    142 H142        2.0836  -19.5320  -47.3097 H         1 UNK         0.0800 
    143 H143        1.1304  -21.8705  -47.8503 H         1 UNK         0.0600 
    144 H144        1.0038  -20.4569  -45.3900 H         1 UNK         0.3000 
    145 H145        0.3488  -23.3826  -43.3961 H         1 UNK         0.0600 
    146 H146        2.3983  -22.4971  -42.3285 H         1 UNK         0.0600 
    147 H147        2.8013  -23.2401  -43.8694 H         1 UNK         0.0600 
    148 H148        2.7342  -21.4866  -43.7319 H         1 UNK         0.0600 
    149 H149        0.6497  -20.6658  -42.6381 H         1 UNK         0.3000 
    150 H150       -2.8391  -19.7828  -42.7828 H         1 UNK         0.0600 
    151 H151       -2.3506  -20.9503  -40.6208 H         1 UNK         0.0600 
    152 H152       -2.2697  -19.2031  -40.4485 H         1 UNK         0.0600 
    153 H153       -0.7859  -20.1483  -40.5356 H         1 UNK         0.0600 
    154 H154       -0.6132  -18.1970  -42.0813 H         1 UNK         0.3000 
    155 H155        0.0613  -16.8487  -45.3478 H         1 UNK         0.0600 
    156 H156       -1.7216  -15.5281  -44.2882 H         1 UNK         0.0600 
    157 H157       -0.1818  -14.8480  -43.7865 H         1 UNK         0.0600 
    158 H158       -1.0993  -15.8558  -42.6814 H         1 UNK         0.0600 
    159 H159        1.4871  -16.4128  -42.9933 H         1 UNK         0.3000 
    160 H160        3.7736  -19.1806  -43.1525 H         1 UNK         0.0600 
    161 H161        4.0644  -16.1638  -43.6065 H         1 UNK         0.0600 
    162 H162        4.7540  -17.4534  -44.5818 H         1 UNK         0.0600 
    163 H163        5.3198  -17.2096  -42.9396 H         1 UNK         0.0600 
    164 H164        3.3423  -17.0148  -41.3017 H         1 UNK         0.3000 
    165 H165        1.2201  -18.8074  -39.0714 H         1 UNK         0.0600 
    166 H166        3.0406  -18.1943  -37.5035 H         1 UNK         0.0600 
    167 H167        3.5442  -19.5380  -38.5163 H         1 UNK         0.0600 
    168 H168        4.1486  -17.9191  -38.8479 H         1 UNK         0.0600 
    169 H169        2.3876  -16.1813  -39.0298 H         1 UNK         0.3000 
    170 H170       -0.2450  -14.5161  -40.7554 H         1 UNK         0.0600 
    171 H171       -1.1175  -14.8213  -38.4323 H         1 UNK         0.0600 
    172 H172        0.4885  -14.5199  -37.7798 H         1 UNK         0.0600 
    173 H173       -0.3740  -13.2443  -38.6402 H         1 UNK         0.0600 
    174 H174        2.0059  -13.4408  -39.4534 H         1 UNK         0.3000 
    175 H175        3.5909  -12.4390  -40.6974 H         1 UNK         0.0600 
    176 H176        5.0807  -14.9164  -41.7259 H         1 UNK         0.0600 
    177 H177        5.8175  -13.4756  -41.0317 H         1 UNK         0.0600 
    178 H178        4.8210  -14.5197  -40.0312 H         1 UNK         0.0600 
    179 H179        4.4953  -13.2046  -43.3730 H         1 UNK         0.3000 
    180 H180        2.7842  -10.4664  -44.9456 H         1 UNK         0.0600 
    181 H181        5.7056  -11.2512  -44.4858 H         1 UNK         0.0600 
    182 H182        4.9567   -9.7365  -44.0088 H         1 UNK         0.0600 
    183 H183        5.1044  -10.1383  -45.7123 H         1 UNK         0.0600 
    184 H184        2.6519  -12.0895  -46.3930 H         1 UNK         0.3000 
    185 H185        4.4645  -13.9424  -47.9057 H         1 UNK         0.0600 
    186 H186        4.9365  -15.9809  -46.5936 H         1 UNK         0.0600 
    187 H187        3.2461  -16.1134  -46.1243 H         1 UNK         0.0600 
    188 H188        3.7184  -16.3214  -47.8088 H         1 UNK         0.0600 
    189 H189        2.4096  -13.6325  -48.6927 H         1 UNK         0.3000 
    190 H190       -1.6120  -20.2054  -46.1932 H         1 UNK         0.3000 
    191 H191       -3.5415  -20.6290  -48.2203 H         1 UNK         0.0600 
    192 H192       -3.8823  -20.3868  -45.1891 H         1 UNK         0.0600 
    193 H193       -5.1877  -20.2818  -46.3654 H         1 UNK         0.0600 
    194 H194       -3.9182  -19.0682  -46.3594 H         1 UNK         0.0600 
    195 H195       -2.4941  -22.7428  -45.5155 H         1 UNK         0.3000 
    196 H196       -4.3470  -24.8567  -46.0040 H         1 UNK         0.0600 
    197 H197       -2.7970  -26.1922  -44.5797 H         1 UNK         0.0600 
    198 H198       -3.1329  -24.6235  -43.8628 H         1 UNK         0.0600 
    199 H199       -1.5920  -24.9141  -44.6639 H         1 UNK         0.0600 
    200 H200       -0.9870  -24.3049  -47.1818 H         1 UNK         0.3000 
    201 H201       -0.7818  -26.6460  -48.7820 H         1 UNK         0.0600 
    202 H202        0.5994  -23.9302  -49.1199 H         1 UNK         0.0600 
    203 H203        1.1133  -25.4456  -49.8470 H         1 UNK         0.0600 
    204 H204        1.1681  -25.2507  -48.1010 H         1 UNK         0.0600 
    205 H205       -2.0786  -23.4159  -49.4914 H         1 UNK         0.3000 
    206 H206       -2.7866  -23.9231  -52.2376 H         1 UNK         0.0600 
    207 H207       -2.3139  -21.6439  -51.2398 H         1 UNK         0.0600 
    208 H208       -3.8749  -21.7160  -52.0314 H         1 UNK         0.0600 
    209 H209       -3.7827  -21.7802  -50.2848 H         1 UNK         0.0600 
    210 H210       -4.0398  -25.3739  -49.5653 H         1 UNK         0.3000 
    211 H211       -5.8193  -26.5284  -49.0059 H         1 UNK         0.0600 
    212 H212       -6.6335  -26.3877  -51.9581 H         1 UNK         0.0600 
    213 H213       -7.1512  -27.5926  -50.7868 H         1 UNK         0.0600 
    214 H214       -5.4698  -27.5284  -51.2847 H         1 UNK         0.0600 
    215 H215       -6.0124  -23.5896  -48.8837 H         1 UNK         0.3000 
    216 H216       -7.3277  -21.8706  -48.5420 H         1 UNK         0.0600 
    217 H217       -9.4952  -22.1827  -47.4228 H         1 UNK         0.0600 
    218 H218       -8.3496  -23.3579  -46.8011 H         1 UNK         0.0600 
    219 H219       -9.5868  -23.8548  -47.9554 H         1 UNK         0.0600 
    220 H220       -7.2939  -23.2100  -51.2955 H         1 UNK         0.3000 
    221 H221       -9.7280  -22.0012  -52.5402 H         1 UNK         0.0600 
    222 H222       -7.8702  -24.2552  -53.4846 H         1 UNK         0.0600 
    223 H223       -9.4494  -24.4901  -52.7393 H         1 UNK         0.0600 
    224 H224       -9.3268  -23.7013  -54.3037 H         1 UNK         0.0600 
    225 H225       -6.6385  -21.1724  -51.9222 H         1 UNK         0.3000 
    226 H226       -5.0870  -19.8000  -52.7126 H         1 UNK         0.0600 
    227 H227       -6.9770  -18.2340  -53.1709 H         1 UNK         0.0600 
    228 H228       -5.6562  -18.0157  -54.3054 H         1 UNK         0.0600 
    229 H229       -7.1036  -18.8619  -54.8136 H         1 UNK         0.0600 
    230 H230       -5.3638  -22.5711  -53.7980 H         1 UNK         0.3000 
    231 H231       -4.7310  -22.7481  -56.5071 H         1 UNK         0.0600 
    232 H232       -5.5209  -24.6418  -55.0935 H         1 UNK         0.0600 
    233 H233       -3.9778  -24.6740  -54.2442 H         1 UNK         0.0600 
    234 H234       -4.0514  -25.0719  -55.9546 H         1 UNK         0.0600 
    235 H235       -2.5638  -22.0620  -53.8252 H         1 UNK         0.3000 
    236 H236       -0.0617  -22.5464  -55.1224 H         1 UNK         0.0600 
    237 H237        0.8477  -21.2070  -53.2260 H         1 UNK         0.0600 
    238 H238       -0.7709  -20.6836  -52.7910 H         1 UNK         0.0600 
    239 H239       -0.3190  -22.3836  -52.6467 H         1 UNK         0.0600 
    240 H240       -2.3942  -20.0091  -55.5276 H         1 UNK         0.3000 
    241 H241       -0.4591  -18.1603  -56.8091 H         1 UNK         0.0600 
    242 H242       -2.1140  -20.8654  -57.8866 H         1 UNK         0.3800 
    243 H243       -2.4772  -20.2806  -59.4893 H         1 UNK         0.3800 
    244 H244       -3.3536  -17.6990  -55.9224 H         1 UNK         0.0800 
    245 H245       -2.3765  -16.5353  -56.7715 H         1 UNK         0.0800 
    246 H246       -2.4632  -18.7826  -53.5182 H         1 UNK         0.0800 
    247 H247       -3.5698  -17.4429  -53.3272 H         1 UNK         0.0800 
@<TRIPOS>BOND
     1    1    2 1    
     2    1  127 1    
     3    1  128 1    
     4    1  129 1    
     5    2    3 2    
     6    2    4 am   BACKBONE|DICT|INTERRES
     7    4    5 1    
     8    4  130 1    
     9    5    6 1    
    10    5   65 1    
    11    5  131 1    
    12    6    7 1    
    13    6  132 1    
    14    6  133 1    
    15    7    8 1    
    16    8    9 1    
    17    8  134 1    
    18    8  135 1    
    19    9   10 ar   
    20    9   14 ar   
    21   10   11 ar   
    22   10  136 1    
    23   11   12 ar   
    24   11  126 1    
    25   12   13 ar   
    26   12  137 1    
    27   13   14 ar   
    28   13   15 1    
    29   14  138 1    
    30   15   16 1    
    31   15  139 1    
    32   15  140 1    
    33   16   17 1    
    34   17   18 1    
    35   17  141 1    
    36   17  142 1    
    37   18   19 1    
    38   18   67 1    
    39   18  143 1    
    40   19   20 am   BACKBONE|DICT|INTERRES
    41   19  144 1    
    42   20   21 2    
    43   20   22 1    
    44   22   23 1    
    45   22   24 1    
    46   22  145 1    
    47   23  146 1    
    48   23  147 1    
    49   23  148 1    
    50   24   25 am   BACKBONE|DICT|INTERRES
    51   24  149 1    
    52   25   26 2    
    53   25   27 1    
    54   27   28 1    
    55   27   29 1    
    56   27  150 1    
    57   28  151 1    
    58   28  152 1    
    59   28  153 1    
    60   29   30 am   BACKBONE|DICT|INTERRES
    61   29  154 1    
    62   30   31 2    
    63   30   32 1    
    64   32   33 1    
    65   32   34 1    
    66   32  155 1    
    67   33  156 1    
    68   33  157 1    
    69   33  158 1    
    70   34   35 am   BACKBONE|DICT|INTERRES
    71   34  159 1    
    72   35   36 2    
    73   35   37 1    
    74   37   38 1    
    75   37   39 1    
    76   37  160 1    
    77   38  161 1    
    78   38  162 1    
    79   38  163 1    
    80   39   40 am   BACKBONE|DICT|INTERRES
    81   39  164 1    
    82   40   41 2    
    83   40   42 1    
    84   42   43 1    
    85   42   44 1    
    86   42  165 1    
    87   43  166 1    
    88   43  167 1    
    89   43  168 1    
    90   44   45 am   BACKBONE|DICT|INTERRES
    91   44  169 1    
    92   45   46 2    
    93   45   47 1    
    94   47   48 1    
    95   47   49 1    
    96   47  170 1    
    97   48  171 1    
    98   48  172 1    
    99   48  173 1    
   100   49   50 am   BACKBONE|DICT|INTERRES
   101   49  174 1    
   102   50   51 2    
   103   50   52 1    
   104   52   53 1    
   105   52   54 1    
   106   52  175 1    
   107   53  176 1    
   108   53  177 1    
   109   53  178 1    
   110   54   55 am   BACKBONE|DICT|INTERRES
   111   54  179 1    
   112   55   56 2    
   113   55   57 1    
   114   57   58 1    
   115   57   59 1    
   116   57  180 1    
   117   58  181 1    
   118   58  182 1    
   119   58  183 1    
   120   59   60 am   BACKBONE|DICT|INTERRES
   121   59  184 1    
   122   60   61 2    
   123   60   62 1    
   124   62   63 1    
   125   62   64 1    
   126   62  185 1    
   127   63  186 1    
   128   63  187 1    
   129   63  188 1    
   130   64   65 am   BACKBONE|DICT|INTERRES
   131   64  189 1    
   132   65   66 2    
   133   67   68 2    
   134   67   69 am   BACKBONE|DICT|INTERRES
   135   69   70 1    
   136   69  190 1    
   137   70   71 1    
   138   70   72 1    
   139   70  191 1    
   140   71  192 1    
   141   71  193 1    
   142   71  194 1    
   143   72   73 2    
   144   72   74 am   BACKBONE|DICT|INTERRES
   145   74   75 1    
   146   74  195 1    
   147   75   76 1    
   148   75   77 1    
   149   75  196 1    
   150   76  197 1    
   151   76  198 1    
   152   76  199 1    
   153   77   78 2    
   154   77   79 am   BACKBONE|DICT|INTERRES
   155   79   80 1    
   156   79  200 1    
   157   80   81 1    
   158   80   82 1    
   159   80  201 1    
   160   81  202 1    
   161   81  203 1    
   162   81  204 1    
   163   82   83 2    
   164   82   84 am   BACKBONE|DICT|INTERRES
   165   84   85 1    
   166   84  205 1    
   167   85   86 1    
   168   85   87 1    
   169   85  206 1    
   170   86  207 1    
   171   86  208 1    
   172   86  209 1    
   173   87   88 2    
   174   87   89 am   BACKBONE|DICT|INTERRES
   175   89   90 1    
   176   89  210 1    
   177   90   91 1    
   178   90   92 1    
   179   90  211 1    
   180   91  212 1    
   181   91  213 1    
   182   91  214 1    
   183   92   93 2    
   184   92   94 am   BACKBONE|DICT|INTERRES
   185   94   95 1    
   186   94  215 1    
   187   95   96 1    
   188   95   97 1    
   189   95  216 1    
   190   96  217 1    
   191   96  218 1    
   192   96  219 1    
   193   97   98 2    
   194   97   99 am   BACKBONE|DICT|INTERRES
   195   99  100 1    
   196   99  220 1    
   197  100  101 1    
   198  100  102 1    
   199  100  221 1    
   200  101  222 1    
   201  101  223 1    
   202  101  224 1    
   203  102  103 2    
   204  102  104 am   BACKBONE|DICT|INTERRES
   205  104  105 1    
   206  104  225 1    
   207  105  106 1    
   208  105  107 1    
   209  105  226 1    
   210  106  227 1    
   211  106  228 1    
   212  106  229 1    
   213  107  108 2    
   214  107  109 am   BACKBONE|DICT|INTERRES
   215  109  110 1    
   216  109  230 1    
   217  110  111 1    
   218  110  112 1    
   219  110  231 1    
   220  111  232 1    
   221  111  233 1    
   222  111  234 1    
   223  112  113 2    
   224  112  114 am   BACKBONE|DICT|INTERRES
   225  114  115 1    
   226  114  235 1    
   227  115  116 1    
   228  115  117 1    
   229  115  236 1    
   230  116  237 1    
   231  116  238 1    
   232  116  239 1    
   233  117  118 2    
   234  117  119 am   BACKBONE|DICT|INTERRES
   235  119  120 1    
   236  119  240 1    
   237  120  121 1    
   238  120  124 1    
   239  120  241 1    
   240  121  122 am   BACKBONE|DICT|INTERRES
   241  121  123 2    
   242  122  242 1    
   243  122  243 1    
   244  124  125 1    
   245  124  244 1    
   246  124  245 1    
   247  125  126 1    
   248  126  246 1    
   249  126  247 1    
@<TRIPOS>SUBSTRUCTURE
     1 UNK         1 GROUP             0       ****    0 ROOT    
