@<TRIPOS>MOLECULE
3R540
247   249    1
SMALL
USER_CHARGES


@<TRIPOS>ATOM
      1 CA          2.8057  -19.3755  -42.8601 C.3       0 UNK        -0.1800 
      2 C           3.7260  -18.5473  -43.7437 C.2       0 UNK         0.5000 
      3 O           4.9443  -18.7053  -43.6727 O.2       0 UNK        -0.5000 
      4 N           3.1386  -17.6629  -44.5612 N.am      1 UNK        -0.5000 
      5 CA          3.8097  -16.6756  -45.4177 C.3       1 UNK         0.1400 
      6 C6          4.7511  -17.2832  -46.4919 C.3       23 UNK        -0.0398 
      7 S7          3.8387  -18.2876  -47.7117 S.3       23 UNK        -0.2404 
      8 C8          4.1281  -17.3087  -49.2280 C.3       23 UNK        -0.0205 
      9 C9          3.5430  -17.9047  -50.5076 C.ar      23 UNK        -0.0193 
     10 C10         3.1727  -17.0480  -51.5516 C.ar      23 UNK        -0.1150 
     11 C11         2.7234  -17.5599  -52.7736 C.ar      23 UNK        -0.0193 
     12 C12         2.6269  -18.9437  -52.9409 C.ar      23 UNK        -0.1150 
     13 C13         2.9706  -19.8123  -51.9026 C.ar      23 UNK        -0.0193 
     14 C14         3.4368  -19.2882  -50.6944 C.ar      23 UNK        -0.1150 
     15 C15         2.8511  -21.3189  -52.0862 C.3       23 UNK        -0.0205 
     16 S16         1.1399  -21.8518  -52.4121 S.3       23 UNK        -0.2404 
     17 C17         0.2732  -21.2558  -50.9238 C.3       23 UNK        -0.0398 
     18 CA          0.1785  -22.3466  -49.8239 C.3       11 UNK         0.1400 
     19 N           0.8403  -21.9365  -48.5839 N.am      11 UNK        -0.5000 
     20 C           1.1649  -22.7637  -47.5804 C.2       10 UNK         0.5000 
     21 O           0.9947  -23.9823  -47.6129 O.2       10 UNK        -0.5000 
     22 CA          1.7180  -22.1019  -46.3040 C.3       10 UNK         0.1400 
     23 CB          3.2232  -21.8303  -46.4389 C.3       10 UNK        -0.1800 
     24 N           1.0184  -20.8544  -45.9857 N.am      10 UNK        -0.5000 
     25 C          -0.2704  -20.8009  -45.6187 C.2       9 UNK         0.5000 
     26 O          -0.9716  -21.7984  -45.4560 O.2       9 UNK        -0.5000 
     27 CA         -0.9054  -19.4093  -45.4498 C.3       9 UNK         0.1400 
     28 CB         -0.8813  -18.9781  -43.9802 C.3       9 UNK        -0.1800 
     29 N          -0.3114  -18.3602  -46.2828 N.am      9 UNK        -0.5000 
     30 C          -0.3165  -18.3593  -47.6248 C.2       8 UNK         0.5000 
     31 O          -0.7334  -19.3022  -48.3017 O.2       8 UNK        -0.5000 
     32 CA          0.2175  -17.0937  -48.3142 C.3       8 UNK         0.1400 
     33 CB         -0.3688  -16.8876  -49.7179 C.3       8 UNK        -0.1800 
     34 N          -0.0268  -15.9101  -47.4896 N.am      8 UNK        -0.5000 
     35 C           0.8225  -14.8854  -47.3588 C.2       7 UNK         0.5000 
     36 O           1.8846  -14.7929  -47.9734 O.2       7 UNK        -0.5000 
     37 CA          0.4440  -13.7757  -46.3603 C.3       7 UNK         0.1400 
     38 CB         -0.2995  -12.6497  -47.0946 C.3       7 UNK        -0.1800 
     39 N          -0.3493  -14.1827  -45.1936 N.am      7 UNK        -0.5000 
     40 C          -0.0760  -15.1696  -44.3264 C.2       6 UNK         0.5000 
     41 O           0.7965  -16.0216  -44.5034 O.2       6 UNK        -0.5000 
     42 CA         -0.9172  -15.1972  -43.0391 C.3       6 UNK         0.1400 
     43 CB         -0.2177  -15.9322  -41.8788 C.3       6 UNK        -0.1800 
     44 N          -1.2372  -13.8355  -42.6139 N.am      6 UNK        -0.5000 
     45 C          -2.4485  -13.4173  -42.2295 C.2       5 UNK         0.5000 
     46 O          -3.4505  -14.1335  -42.2218 O.2       5 UNK        -0.5000 
     47 CA         -2.5698  -11.9546  -41.7670 C.3       5 UNK         0.1400 
     48 CB         -2.3484  -11.8567  -40.2496 C.3       5 UNK        -0.1800 
     49 N          -1.6499  -11.0347  -42.4380 N.am      5 UNK        -0.5000 
     50 C          -1.7385  -10.6489  -43.7197 C.2       4 UNK         0.5000 
     51 O          -2.5521  -11.1132  -44.5180 O.2       4 UNK        -0.5000 
     52 CA         -0.7637   -9.5470  -44.1807 C.3       4 UNK         0.1400 
     53 CB         -1.4234   -8.1651  -44.0544 C.3       4 UNK        -0.1800 
     54 N           0.4731   -9.5580  -43.3977 N.am      4 UNK        -0.5000 
     55 C           1.5222  -10.3437  -43.6680 C.2       3 UNK         0.5000 
     56 O           1.6253  -10.9966  -44.7083 O.2       3 UNK        -0.5000 
     57 CA          2.6430  -10.3993  -42.6034 C.3       3 UNK         0.1400 
     58 CB          2.1170  -10.2222  -41.1603 C.3       3 UNK        -0.1800 
     59 N           3.4574  -11.6182  -42.6868 N.am      3 UNK        -0.5000 
     60 C           3.0254  -12.8856  -42.6164 C.2       2 UNK         0.5000 
     61 O           1.8460  -13.2136  -42.4628 O.2       2 UNK        -0.5000 
     62 CA          4.1063  -13.9698  -42.7044 C.3       2 UNK         0.1400 
     63 CB          4.3567  -14.6071  -41.3281 C.3       2 UNK        -0.1800 
     64 N           3.6837  -15.0034  -43.6427 N.am      2 UNK        -0.5000 
     65 C           4.4756  -15.5871  -44.5513 C.2       1 UNK         0.5000 
     66 O           5.6686  -15.3133  -44.6971 O.2       1 UNK        -0.5000 
     67 C          -1.2847  -22.7412  -49.5572 C.2       11 UNK         0.5000 
     68 O          -1.7565  -23.7387  -50.1034 O.2       11 UNK        -0.5000 
     69 N          -1.9662  -21.9674  -48.6987 N.am      12 UNK        -0.5000 
     70 CA         -3.3451  -22.2189  -48.2859 C.3       12 UNK         0.1400 
     71 CB         -3.8549  -21.0745  -47.3968 C.3       12 UNK        -0.1800 
     72 C          -3.5088  -23.5758  -47.5778 C.2       12 UNK         0.5000 
     73 O          -4.4129  -24.3370  -47.9234 O.2       12 UNK        -0.5000 
     74 N          -2.5969  -23.8664  -46.6395 N.am      13 UNK        -0.5000 
     75 CA         -2.5145  -25.1300  -45.9092 C.3       13 UNK         0.1400 
     76 CB         -1.4793  -24.9995  -44.7820 C.3       13 UNK        -0.1800 
     77 C          -2.1795  -26.3280  -46.8149 C.2       13 UNK         0.5000 
     78 O          -2.7471  -27.4031  -46.6210 O.2       13 UNK        -0.5000 
     79 N          -1.2879  -26.1203  -47.7956 N.am      14 UNK        -0.5000 
     80 CA         -0.9129  -27.1227  -48.7949 C.3       14 UNK         0.1400 
     81 CB          0.3127  -26.6376  -49.5842 C.3       14 UNK        -0.1800 
     82 C          -2.0722  -27.4744  -49.7453 C.2       14 UNK         0.5000 
     83 O          -2.2668  -28.6508  -50.0544 O.2       14 UNK        -0.5000 
     84 N          -2.8303  -26.4555  -50.1740 N.am      15 UNK        -0.5000 
     85 CA         -4.0217  -26.6091  -51.0096 C.3       15 UNK         0.1400 
     86 CB         -4.4024  -25.2449  -51.6028 C.3       15 UNK        -0.1800 
     87 C          -5.2209  -27.2072  -50.2534 C.2       15 UNK         0.5000 
     88 O          -6.0555  -27.8648  -50.8754 O.2       15 UNK        -0.5000 
     89 N          -5.3127  -26.9260  -48.9450 N.am      16 UNK        -0.5000 
     90 CA         -6.3599  -27.2932  -47.9794 C.3       16 UNK         0.1400 
     91 CB         -6.5396  -28.8194  -47.8802 C.3       16 UNK        -0.1800 
     92 C          -7.7037  -26.5762  -48.2212 C.2       16 UNK         0.5000 
     93 O          -8.3059  -26.0746  -47.2722 O.2       16 UNK        -0.5000 
     94 N          -8.1196  -26.4874  -49.4901 N.am      17 UNK        -0.5000 
     95 CA         -9.2425  -25.6830  -49.9781 C.3       17 UNK         0.1400 
     96 CB         -9.7040  -26.2653  -51.3240 C.3       17 UNK        -0.1800 
     97 C          -8.8868  -24.1867  -50.1289 C.2       17 UNK         0.5000 
     98 O          -9.7627  -23.3889  -50.4628 O.2       17 UNK        -0.5000 
     99 N          -7.6086  -23.8433  -49.9059 N.am      18 UNK        -0.5000 
    100 CA        -6.9970  -22.5117  -49.9688 C.3       18 UNK         0.1400 
    101 CB        -7.6423  -21.5415  -48.9590 C.3       18 UNK        -0.1800 
    102 C         -6.8899  -21.9157  -51.3880 C.2       18 UNK         0.5000 
    103 O         -6.6221  -20.7228  -51.5277 O.2       18 UNK        -0.5000 
    104 N         -7.0574  -22.7534  -52.4202 N.am      19 UNK        -0.5000 
    105 CA        -7.0709  -22.3624  -53.8329 C.3       19 UNK         0.1400 
    106 CB        -7.4972  -23.5757  -54.6736 C.3       19 UNK        -0.1800 
    107 C         -5.7375  -21.7888  -54.3554 C.2       19 UNK         0.5000 
    108 O         -5.7521  -20.9812  -55.2848 O.2       19 UNK        -0.5000 
    109 N         -4.6156  -22.2131  -53.7584 N.am      20 UNK        -0.5000 
    110 CA        -3.2646  -21.7963  -54.1434 C.3       20 UNK         0.1400 
    111 CB        -2.2876  -22.9462  -53.8488 C.3       20 UNK        -0.1800 
    112 C         -2.7922  -20.5082  -53.4415 C.2       20 UNK         0.5000 
    113 O         -1.7113  -20.0208  -53.7704 O.2       20 UNK        -0.5000 
    114 N         -3.5639  -19.9970  -52.4705 N.am      21 UNK        -0.5000 
    115 CA        -3.2117  -18.8319  -51.6595 C.3       21 UNK         0.1400 
    116 CB        -4.2229  -18.6903  -50.5120 C.3       21 UNK        -0.1800 
    117 C         -3.1349  -17.5417  -52.4992 C.2       21 UNK         0.5000 
    118 O         -4.1530  -17.0959  -53.0334 O.2       21 UNK        -0.5000 
    119 N         -1.9268  -16.9787  -52.6012 N.am      22 UNK        -0.5000 
    120 CA        -1.6348  -15.6937  -53.2505 C.3       22 UNK         0.1400 
    121 C         -2.2858  -14.4869  -52.5174 C.2       22 UNK         0.5000 
    122 N         -2.7092  -13.4656  -53.2499 N.am      22 UNK        -0.7600 
    123 O         -2.3720  -14.4470  -51.2924 O.2       22 UNK        -0.5000 
    124 C124       -0.1075  -15.4735  -53.3973 C.3       23 UNK        -0.0398 
    125 S125        0.6712  -16.7222  -54.4729 S.3       23 UNK        -0.2404 
    126 C126        2.4113  -16.6322  -53.9411 C.3       23 UNK        -0.0205 
    127 H127        3.3803  -19.9265  -42.1153 H         1 UNK         0.0600 
    128 H128        2.1013  -18.7341  -42.3305 H         1 UNK         0.0600 
    129 H129        2.2481  -20.0963  -43.4575 H         1 UNK         0.0600 
    130 H130        2.1384  -17.5175  -44.4913 H         1 UNK         0.3000 
    131 H131        3.0168  -16.1595  -45.9560 H         1 UNK         0.0600 
    132 H132        5.5281  -17.8994  -46.0397 H         1 UNK         0.0800 
    133 H133        5.2789  -16.4883  -47.0211 H         1 UNK         0.0800 
    134 H134        3.7285  -16.3062  -49.0722 H         1 UNK         0.0800 
    135 H135        5.2031  -17.1958  -49.3734 H         1 UNK         0.0800 
    136 H136        3.2696  -15.9788  -51.4241 H         1 UNK         0.1150 
    137 H137        2.2819  -19.3467  -53.8830 H         1 UNK         0.1150 
    138 H138        3.7316  -19.9650  -49.9056 H         1 UNK         0.1150 
    139 H139        3.4822  -21.6258  -52.9211 H         1 UNK         0.0800 
    140 H140        3.2222  -21.8498  -51.2080 H         1 UNK         0.0800 
    141 H141       -0.7088  -20.9140  -51.2533 H         1 UNK         0.0800 
    142 H142        0.7540  -20.3534  -50.5475 H         1 UNK         0.0800 
    143 H143        0.6839  -23.2520  -50.1671 H         1 UNK         0.0600 
    144 H144        0.9440  -20.9424  -48.4401 H         1 UNK         0.3000 
    145 H145        1.5696  -22.7959  -45.4738 H         1 UNK         0.0600 
    146 H146        3.6239  -21.3543  -45.5437 H         1 UNK         0.0600 
    147 H147        3.7725  -22.7609  -46.5862 H         1 UNK         0.0600 
    148 H148        3.4426  -21.1859  -47.2900 H         1 UNK         0.0600 
    149 H149        1.5272  -19.9926  -46.1156 H         1 UNK         0.3000 
    150 H150       -1.9509  -19.4982  -45.7466 H         1 UNK         0.0600 
    151 H151       -1.2738  -19.7618  -43.3306 H         1 UNK         0.0600 
    152 H152       -1.4973  -18.0938  -43.8237 H         1 UNK         0.0600 
    153 H153        0.1301  -18.7514  -43.6501 H         1 UNK         0.0600 
    154 H154        0.0740  -17.5580  -45.7996 H         1 UNK         0.3000 
    155 H155        1.2903  -17.2446  -48.4227 H         1 UNK         0.0600 
    156 H156       -1.4559  -16.8080  -49.6888 H         1 UNK         0.0600 
    157 H157       -0.1049  -17.7167  -50.3754 H         1 UNK         0.0600 
    158 H158        0.0210  -15.9767  -50.1704 H         1 UNK         0.0600 
    159 H159       -0.8856  -15.8995  -46.9577 H         1 UNK         0.3000 
    160 H160        1.3808  -13.3708  -45.9731 H         1 UNK         0.0600 
    161 H161        0.2746  -12.2928  -47.9508 H         1 UNK         0.0600 
    162 H162       -0.4654  -11.7947  -46.4412 H         1 UNK         0.0600 
    163 H163       -1.2699  -12.9832  -47.4642 H         1 UNK         0.0600 
    164 H164       -1.1043  -13.5584  -44.9474 H         1 UNK         0.3000 
    165 H165       -1.8296  -15.7412  -43.2892 H         1 UNK         0.0600 
    166 H166       -0.8523  -15.9578  -40.9931 H         1 UNK         0.0600 
    167 H167        0.0140  -16.9643  -42.1359 H         1 UNK         0.0600 
    168 H168        0.7192  -15.4492  -41.6019 H         1 UNK         0.0600 
    169 H169       -0.4527  -13.1941  -42.5862 H         1 UNK         0.3000 
    170 H170       -3.5891  -11.6269  -41.9830 H         1 UNK         0.0600 
    171 H171       -1.3338  -12.1456  -39.9716 H         1 UNK         0.0600 
    172 H172       -2.5202  -10.8421  -39.8896 H         1 UNK         0.0600 
    173 H173       -3.0351  -12.5112  -39.7110 H         1 UNK         0.0600 
    174 H174       -0.9401  -10.6134  -41.8595 H         1 UNK         0.3000 
    175 H175       -0.5356   -9.7143  -45.2351 H         1 UNK         0.0600 
    176 H176       -1.6847   -7.9337  -43.0210 H         1 UNK         0.0600 
    177 H177       -0.7618   -7.3785  -44.4179 H         1 UNK         0.0600 
    178 H178       -2.3400   -8.1154  -44.6438 H         1 UNK         0.0600 
    179 H179        0.4825   -9.0039  -42.5537 H         1 UNK         0.3000 
    180 H180        3.3135   -9.5671  -42.8218 H         1 UNK         0.0600 
    181 H181        1.3554  -10.9625  -40.9121 H         1 UNK         0.0600 
    182 H182        1.6846   -9.2331  -41.0071 H         1 UNK         0.0600 
    183 H183        2.9246  -10.3259  -40.4354 H         1 UNK         0.0600 
    184 H184        4.4431  -11.4611  -42.8425 H         1 UNK         0.3000 
    185 H185        5.0334  -13.5055  -43.0474 H         1 UNK         0.0600 
    186 H186        4.6667  -13.8564  -40.6001 H         1 UNK         0.0600 
    187 H187        3.4593  -15.0915  -40.9408 H         1 UNK         0.0600 
    188 H188        5.1457  -15.3576  -41.3798 H         1 UNK         0.0600 
    189 H189        2.6999  -15.2461  -43.6132 H         1 UNK         0.3000 
    190 H190       -1.5174  -21.1330  -48.3349 H         1 UNK         0.3000 
    191 H191       -3.9294  -22.2300  -49.2039 H         1 UNK         0.0600 
    192 H192       -3.4526  -21.1377  -46.3864 H         1 UNK         0.0600 
    193 H193       -4.9413  -21.1107  -47.3110 H         1 UNK         0.0600 
    194 H194       -3.5893  -20.0973  -47.7990 H         1 UNK         0.0600 
    195 H195       -1.9152  -23.1557  -46.3854 H         1 UNK         0.3000 
    196 H196       -3.4905  -25.3182  -45.4571 H         1 UNK         0.0600 
    197 H197       -0.4875  -24.7673  -45.1725 H         1 UNK         0.0600 
    198 H198       -1.4013  -25.9259  -44.2115 H         1 UNK         0.0600 
    199 H199       -1.7557  -24.2094  -44.0836 H         1 UNK         0.0600 
    200 H200       -0.8323  -25.2183  -47.8623 H         1 UNK         0.3000 
    201 H201       -0.6313  -28.0346  -48.2643 H         1 UNK         0.0600 
    202 H202        1.1609  -26.4580  -48.9236 H         1 UNK         0.0600 
    203 H203        0.1072  -25.7134  -50.1239 H         1 UNK         0.0600 
    204 H204        0.6242  -27.3826  -50.3172 H         1 UNK         0.0600 
    205 H205       -2.5580  -25.5069  -49.9310 H         1 UNK         0.3000 
    206 H206       -3.7814  -27.2839  -51.8338 H         1 UNK         0.0600 
    207 H207       -3.6047  -24.8751  -52.2428 H         1 UNK         0.0600 
    208 H208       -5.3027  -25.3170  -52.2144 H         1 UNK         0.0600 
    209 H209       -4.5818  -24.5020  -50.8252 H         1 UNK         0.0600 
    210 H210       -4.6156  -26.2913  -48.5703 H         1 UNK         0.3000 
    211 H211       -5.9914  -26.9462  -47.0126 H         1 UNK         0.0600 
    212 H212       -6.9436  -29.2469  -48.7980 H         1 UNK         0.0600 
    213 H213       -7.2271  -29.0760  -47.0735 H         1 UNK         0.0600 
    214 H214       -5.5907  -29.3126  -47.6686 H         1 UNK         0.0600 
    215 H215       -7.5604  -26.9678  -50.1908 H         1 UNK         0.3000 
    216 H216      -10.0679  -25.7558  -49.2671 H         1 UNK         0.0600 
    217 H217      -10.5668  -25.7229  -51.7130 H         1 UNK         0.0600 
    218 H218       -9.9996  -27.3095  -51.2203 H         1 UNK         0.0600 
    219 H219       -8.9160  -26.2134  -52.0765 H         1 UNK         0.0600 
    220 H220       -6.9873  -24.5865  -49.6208 H         1 UNK         0.3000 
    221 H221       -5.9732  -22.6693  -49.6456 H         1 UNK         0.0600 
    222 H222       -8.6610  -21.2774  -49.2434 H         1 UNK         0.0600 
    223 H223       -7.6728  -21.9763  -47.9599 H         1 UNK         0.0600 
    224 H224       -7.0738  -20.6133  -48.8892 H         1 UNK         0.0600 
    225 H225       -7.2811  -23.7154  -52.2169 H         1 UNK         0.3000 
    226 H226       -7.8267  -21.5832  -53.9518 H         1 UNK         0.0600 
    227 H227       -8.4836  -23.9342  -54.3784 H         1 UNK         0.0600 
    228 H228       -7.5503  -23.3191  -55.7326 H         1 UNK         0.0600 
    229 H229       -6.7938  -24.4032  -54.5713 H         1 UNK         0.0600 
    230 H230       -4.6923  -22.8726  -52.9996 H         1 UNK         0.3000 
    231 H231       -3.2402  -21.6075  -55.2188 H         1 UNK         0.0600 
    232 H232       -1.2955  -22.7230  -54.2429 H         1 UNK         0.0600 
    233 H233       -2.6146  -23.8771  -54.3121 H         1 UNK         0.0600 
    234 H234       -2.1767  -23.1160  -52.7776 H         1 UNK         0.0600 
    235 H235       -4.4737  -20.4054  -52.3008 H         1 UNK         0.3000 
    236 H236       -2.2346  -19.0240  -51.2117 H         1 UNK         0.0600 
    237 H237       -3.9137  -17.9111  -49.8144 H         1 UNK         0.0600 
    238 H238       -5.2164  -18.4295  -50.8788 H         1 UNK         0.0600 
    239 H239       -4.3133  -19.6190  -49.9509 H         1 UNK         0.0600 
    240 H240       -1.1361  -17.4387  -52.1777 H         1 UNK         0.3000 
    241 H241       -2.0670  -15.7397  -54.2522 H         1 UNK         0.0600 
    242 H242       -2.6441  -13.4701  -54.2564 H         1 UNK         0.3800 
    243 H243       -3.1200  -12.6701  -52.7862 H         1 UNK         0.3800 
    244 H244        0.0994  -14.4942  -53.8328 H         1 UNK         0.0800 
    245 H245        0.3798  -15.4831  -52.4218 H         1 UNK         0.0800 
    246 H246        3.0433  -16.9164  -54.7836 H         1 UNK         0.0800 
    247 H247        2.6713  -15.5990  -53.7052 H         1 UNK         0.0800 
@<TRIPOS>BOND
     1    1    2 1    
     2    1  127 1    
     3    1  128 1    
     4    1  129 1    
     5    2    3 2    
     6    2    4 am   BACKBONE|DICT|INTERRES
     7    4    5 1    
     8    4  130 1    
     9    5    6 1    
    10    5   65 1    
    11    5  131 1    
    12    6    7 1    
    13    6  132 1    
    14    6  133 1    
    15    7    8 1    
    16    8    9 1    
    17    8  134 1    
    18    8  135 1    
    19    9   10 ar   
    20    9   14 ar   
    21   10   11 ar   
    22   10  136 1    
    23   11   12 ar   
    24   11  126 1    
    25   12   13 ar   
    26   12  137 1    
    27   13   14 ar   
    28   13   15 1    
    29   14  138 1    
    30   15   16 1    
    31   15  139 1    
    32   15  140 1    
    33   16   17 1    
    34   17   18 1    
    35   17  141 1    
    36   17  142 1    
    37   18   19 1    
    38   18   67 1    
    39   18  143 1    
    40   19   20 am   BACKBONE|DICT|INTERRES
    41   19  144 1    
    42   20   21 2    
    43   20   22 1    
    44   22   23 1    
    45   22   24 1    
    46   22  145 1    
    47   23  146 1    
    48   23  147 1    
    49   23  148 1    
    50   24   25 am   BACKBONE|DICT|INTERRES
    51   24  149 1    
    52   25   26 2    
    53   25   27 1    
    54   27   28 1    
    55   27   29 1    
    56   27  150 1    
    57   28  151 1    
    58   28  152 1    
    59   28  153 1    
    60   29   30 am   BACKBONE|DICT|INTERRES
    61   29  154 1    
    62   30   31 2    
    63   30   32 1    
    64   32   33 1    
    65   32   34 1    
    66   32  155 1    
    67   33  156 1    
    68   33  157 1    
    69   33  158 1    
    70   34   35 am   BACKBONE|DICT|INTERRES
    71   34  159 1    
    72   35   36 2    
    73   35   37 1    
    74   37   38 1    
    75   37   39 1    
    76   37  160 1    
    77   38  161 1    
    78   38  162 1    
    79   38  163 1    
    80   39   40 am   BACKBONE|DICT|INTERRES
    81   39  164 1    
    82   40   41 2    
    83   40   42 1    
    84   42   43 1    
    85   42   44 1    
    86   42  165 1    
    87   43  166 1    
    88   43  167 1    
    89   43  168 1    
    90   44   45 am   BACKBONE|DICT|INTERRES
    91   44  169 1    
    92   45   46 2    
    93   45   47 1    
    94   47   48 1    
    95   47   49 1    
    96   47  170 1    
    97   48  171 1    
    98   48  172 1    
    99   48  173 1    
   100   49   50 am   BACKBONE|DICT|INTERRES
   101   49  174 1    
   102   50   51 2    
   103   50   52 1    
   104   52   53 1    
   105   52   54 1    
   106   52  175 1    
   107   53  176 1    
   108   53  177 1    
   109   53  178 1    
   110   54   55 am   BACKBONE|DICT|INTERRES
   111   54  179 1    
   112   55   56 2    
   113   55   57 1    
   114   57   58 1    
   115   57   59 1    
   116   57  180 1    
   117   58  181 1    
   118   58  182 1    
   119   58  183 1    
   120   59   60 am   BACKBONE|DICT|INTERRES
   121   59  184 1    
   122   60   61 2    
   123   60   62 1    
   124   62   63 1    
   125   62   64 1    
   126   62  185 1    
   127   63  186 1    
   128   63  187 1    
   129   63  188 1    
   130   64   65 am   BACKBONE|DICT|INTERRES
   131   64  189 1    
   132   65   66 2    
   133   67   68 2    
   134   67   69 am   BACKBONE|DICT|INTERRES
   135   69   70 1    
   136   69  190 1    
   137   70   71 1    
   138   70   72 1    
   139   70  191 1    
   140   71  192 1    
   141   71  193 1    
   142   71  194 1    
   143   72   73 2    
   144   72   74 am   BACKBONE|DICT|INTERRES
   145   74   75 1    
   146   74  195 1    
   147   75   76 1    
   148   75   77 1    
   149   75  196 1    
   150   76  197 1    
   151   76  198 1    
   152   76  199 1    
   153   77   78 2    
   154   77   79 am   BACKBONE|DICT|INTERRES
   155   79   80 1    
   156   79  200 1    
   157   80   81 1    
   158   80   82 1    
   159   80  201 1    
   160   81  202 1    
   161   81  203 1    
   162   81  204 1    
   163   82   83 2    
   164   82   84 am   BACKBONE|DICT|INTERRES
   165   84   85 1    
   166   84  205 1    
   167   85   86 1    
   168   85   87 1    
   169   85  206 1    
   170   86  207 1    
   171   86  208 1    
   172   86  209 1    
   173   87   88 2    
   174   87   89 am   BACKBONE|DICT|INTERRES
   175   89   90 1    
   176   89  210 1    
   177   90   91 1    
   178   90   92 1    
   179   90  211 1    
   180   91  212 1    
   181   91  213 1    
   182   91  214 1    
   183   92   93 2    
   184   92   94 am   BACKBONE|DICT|INTERRES
   185   94   95 1    
   186   94  215 1    
   187   95   96 1    
   188   95   97 1    
   189   95  216 1    
   190   96  217 1    
   191   96  218 1    
   192   96  219 1    
   193   97   98 2    
   194   97   99 am   BACKBONE|DICT|INTERRES
   195   99  100 1    
   196   99  220 1    
   197  100  101 1    
   198  100  102 1    
   199  100  221 1    
   200  101  222 1    
   201  101  223 1    
   202  101  224 1    
   203  102  103 2    
   204  102  104 am   BACKBONE|DICT|INTERRES
   205  104  105 1    
   206  104  225 1    
   207  105  106 1    
   208  105  107 1    
   209  105  226 1    
   210  106  227 1    
   211  106  228 1    
   212  106  229 1    
   213  107  108 2    
   214  107  109 am   BACKBONE|DICT|INTERRES
   215  109  110 1    
   216  109  230 1    
   217  110  111 1    
   218  110  112 1    
   219  110  231 1    
   220  111  232 1    
   221  111  233 1    
   222  111  234 1    
   223  112  113 2    
   224  112  114 am   BACKBONE|DICT|INTERRES
   225  114  115 1    
   226  114  235 1    
   227  115  116 1    
   228  115  117 1    
   229  115  236 1    
   230  116  237 1    
   231  116  238 1    
   232  116  239 1    
   233  117  118 2    
   234  117  119 am   BACKBONE|DICT|INTERRES
   235  119  120 1    
   236  119  240 1    
   237  120  121 1    
   238  120  124 1    
   239  120  241 1    
   240  121  122 am   BACKBONE|DICT|INTERRES
   241  121  123 2    
   242  122  242 1    
   243  122  243 1    
   244  124  125 1    
   245  124  244 1    
   246  124  245 1    
   247  125  126 1    
   248  126  246 1    
   249  126  247 1    
@<TRIPOS>SUBSTRUCTURE
     1 UNK         1 GROUP             0       ****    0 ROOT    
