@<TRIPOS>MOLECULE
3R540
247   249    1
SMALL
USER_CHARGES


@<TRIPOS>ATOM
      1 CA          5.5663  -10.1287  -44.2934 C.3       0 UNK        -0.1800 
      2 C           4.8117  -11.2835  -44.9363 C.2       0 UNK         0.5000 
      3 O           3.6398  -11.4997  -44.6271 O.2       0 UNK        -0.5000 
      4 N           5.4728  -12.0265  -45.8327 N.am      1 UNK        -0.5000 
      5 CA          4.9013  -13.1505  -46.5784 C.3       1 UNK         0.1400 
      6 C6          5.9885  -14.1865  -46.9629 C.3       23 UNK        -0.0398 
      7 S7          5.2736  -15.8214  -47.3564 S.3       23 UNK        -0.2404 
      8 C8          5.6870  -16.0070  -49.1205 C.3       23 UNK        -0.0205 
      9 C9          4.5195  -16.5842  -49.9040 C.ar      23 UNK        -0.0193 
     10 C10         3.5765  -15.7284  -50.4788 C.ar      23 UNK        -0.1150 
     11 C11         2.4920  -16.2298  -51.2020 C.ar      23 UNK        -0.0193 
     12 C12         2.3807  -17.6166  -51.3715 C.ar      23 UNK        -0.1150 
     13 C13         3.3058  -18.4861  -50.7909 C.ar      23 UNK        -0.0193 
     14 C14         4.3768  -17.9655  -50.0589 C.ar      23 UNK        -0.1150 
     15 C15         3.1418  -19.9882  -50.9587 C.3       23 UNK        -0.0205 
     16 S16         2.3790  -20.7531  -49.4955 S.3       23 UNK        -0.2404 
     17 C17         0.6761  -20.0909  -49.5278 C.3       23 UNK        -0.0398 
     18 CA         -0.2961  -21.0076  -48.7418 C.3       11 UNK         0.1400 
     19 N           0.0976  -21.1400  -47.3303 N.am      11 UNK        -0.5000 
     20 C          -0.1455  -22.1818  -46.5217 C.2       10 UNK         0.5000 
     21 O          -0.8789  -23.1201  -46.8413 O.2       10 UNK        -0.5000 
     22 CA          0.4730  -22.1498  -45.1080 C.3       10 UNK         0.1400 
     23 CB          0.8323  -23.5538  -44.5845 C.3       10 UNK        -0.1800 
     24 N           1.6024  -21.2258  -44.9824 N.am      10 UNK        -0.5000 
     25 C           2.8110  -21.2963  -45.5619 C.2       9 UNK         0.5000 
     26 O           3.1879  -22.2402  -46.2560 O.2       9 UNK        -0.5000 
     27 CA          3.7597  -20.1042  -45.3209 C.3       9 UNK         0.1400 
     28 CB          4.1208  -19.4013  -46.6387 C.3       9 UNK        -0.1800 
     29 N           3.1621  -19.1201  -44.4137 N.am      9 UNK        -0.5000 
     30 C           3.5726  -18.8867  -43.1609 C.2       8 UNK         0.5000 
     31 O           4.5720  -19.3988  -42.6557 O.2       8 UNK        -0.5000 
     32 CA          2.6970  -17.9451  -42.3141 C.3       8 UNK         0.1400 
     33 CB          3.0865  -16.4774  -42.5520 C.3       8 UNK        -0.1800 
     34 N           1.2589  -18.1202  -42.5462 N.am      8 UNK        -0.5000 
     35 C           0.5628  -19.2152  -42.1990 C.2       7 UNK         0.5000 
     36 O           1.0797  -20.2214  -41.7153 O.2       7 UNK        -0.5000 
     37 CA         -0.9552  -19.2076  -42.4414 C.3       7 UNK         0.1400 
     38 CB         -1.6835  -18.5556  -41.2563 C.3       7 UNK        -0.1800 
     39 N          -1.2995  -18.4894  -43.6645 N.am      7 UNK        -0.5000 
     40 C          -1.9237  -19.0207  -44.7239 C.2       6 UNK         0.5000 
     41 O          -2.2999  -20.1913  -44.8050 O.2       6 UNK        -0.5000 
     42 CA         -2.1699  -18.0748  -45.9112 C.3       6 UNK         0.1400 
     43 CB         -3.4651  -17.2834  -45.6573 C.3       6 UNK        -0.1800 
     44 N          -1.0887  -17.1265  -46.1730 N.am      6 UNK        -0.5000 
     45 C           0.2254  -17.3859  -46.2510 C.2       5 UNK         0.5000 
     46 O           0.7170  -18.5143  -46.2239 O.2       5 UNK        -0.5000 
     47 CA          1.1601  -16.1620  -46.2758 C.3       5 UNK         0.1400 
     48 CB          1.5468  -15.8338  -47.7217 C.3       5 UNK        -0.1800 
     49 N           0.5934  -14.9630  -45.6460 N.am      5 UNK        -0.5000 
     50 C           0.0626  -14.8706  -44.4146 C.2       4 UNK         0.5000 
     51 O           0.0444  -15.8026  -43.6081 O.2       4 UNK        -0.5000 
     52 CA         -0.6169  -13.5387  -44.0411 C.3       4 UNK         0.1400 
     53 CB          0.2679  -12.7460  -43.0687 C.3       4 UNK        -0.1800 
     54 N          -0.9260  -12.6944  -45.1978 N.am      4 UNK        -0.5000 
     55 C          -1.8055  -12.9671  -46.1711 C.2       3 UNK         0.5000 
     56 O          -2.5160  -13.9732  -46.1911 O.2       3 UNK        -0.5000 
     57 CA         -1.8246  -11.9998  -47.3698 C.3       3 UNK         0.1400 
     58 CB         -2.3820  -10.6134  -46.9914 C.3       3 UNK        -0.1800 
     59 N          -0.5171  -11.9201  -48.0393 N.am      3 UNK        -0.5000 
     60 C           0.6188  -11.3854  -47.5705 C.2       2 UNK         0.5000 
     61 O           0.7061  -10.7898  -46.4937 O.2       2 UNK        -0.5000 
     62 CA          1.8888  -11.5947  -48.4014 C.3       2 UNK         0.1400 
     63 CB          2.3131  -10.2946  -49.1071 C.3       2 UNK        -0.1800 
     64 N           2.9175  -12.0457  -47.4720 N.am      2 UNK        -0.5000 
     65 C           4.0781  -12.6299  -47.7784 C.2       1 UNK         0.5000 
     66 O           4.5030  -12.7417  -48.9283 O.2       1 UNK        -0.5000 
     67 C          -1.7818  -20.6047  -48.9004 C.2       11 UNK         0.5000 
     68 O          -2.1285  -19.7643  -49.7327 O.2       11 UNK        -0.5000 
     69 N          -2.6254  -21.2392  -48.0852 N.am      12 UNK        -0.5000 
     70 CA         -4.0804  -21.2401  -48.0903 C.3       12 UNK         0.1400 
     71 CB         -4.6798  -19.9002  -47.6359 C.3       12 UNK        -0.1800 
     72 C          -4.5280  -22.3817  -47.1718 C.2       12 UNK         0.5000 
     73 O          -5.3352  -23.2067  -47.5918 O.2       12 UNK        -0.5000 
     74 N          -3.9552  -22.4370  -45.9578 N.am      13 UNK        -0.5000 
     75 CA         -4.2485  -23.4370  -44.9290 C.3       13 UNK         0.1400 
     76 CB         -3.4945  -23.0749  -43.6394 C.3       13 UNK        -0.1800 
     77 C          -3.9350  -24.8829  -45.3580 C.2       13 UNK         0.5000 
     78 O          -4.8097  -25.7450  -45.2678 O.2       13 UNK        -0.5000 
     79 N          -2.7082  -25.1203  -45.8435 N.am      14 UNK        -0.5000 
     80 CA         -2.2674  -26.4263  -46.3475 C.3       14 UNK         0.1400 
     81 CB         -0.7371  -26.5221  -46.2515 C.3       14 UNK        -0.1800 
     82 C          -2.7341  -26.6758  -47.7930 C.2       14 UNK         0.5000 
     83 O          -2.8377  -27.8274  -48.2151 O.2       14 UNK        -0.5000 
     84 N          -3.0225  -25.5871  -48.5157 N.am      15 UNK        -0.5000 
     85 CA         -3.5161  -25.5751  -49.8912 C.3       15 UNK         0.1400 
     86 CB         -3.1100  -24.2343  -50.5158 C.3       15 UNK        -0.1800 
     87 C          -5.0409  -25.7944  -50.0015 C.2       15 UNK         0.5000 
     88 O          -5.5685  -25.7885  -51.1173 O.2       15 UNK        -0.5000 
     89 N          -5.7226  -25.9372  -48.8525 N.am      16 UNK        -0.5000 
     90 CA         -7.1651  -26.1461  -48.6664 C.3       16 UNK         0.1400 
     91 CB         -7.5683  -27.5407  -49.1881 C.3       16 UNK        -0.1800 
     92 C          -8.0408  -25.0210  -49.2615 C.2       16 UNK         0.5000 
     93 O          -9.1909  -25.2671  -49.6287 O.2       16 UNK        -0.5000 
     94 N          -7.4592  -23.8179  -49.3842 N.am      17 UNK        -0.5000 
     95 CA         -7.9639  -22.6327  -50.0874 C.3       17 UNK         0.1400 
     96 CB         -9.1691  -22.0339  -49.3347 C.3       17 UNK        -0.1800 
     97 C          -8.2618  -22.8720  -51.5888 C.2       17 UNK         0.5000 
     98 O          -9.0095  -22.0969  -52.1881 O.2       17 UNK        -0.5000 
     99 N          -7.6979  -23.9439  -52.1642 N.am      18 UNK        -0.5000 
    100 CA        -7.9973  -24.4345  -53.5064 C.3       18 UNK         0.1400 
    101 CB        -8.5086  -25.8813  -53.4070 C.3       18 UNK        -0.1800 
    102 C         -6.7617  -24.3548  -54.4099 C.2       18 UNK         0.5000 
    103 O         -6.8538  -23.8100  -55.5107 O.2       18 UNK        -0.5000 
    104 N         -5.6247  -24.8842  -53.9351 N.am      19 UNK        -0.5000 
    105 CA        -4.3556  -24.8711  -54.6709 C.3       19 UNK         0.1400 
    106 CB        -3.4538  -26.0003  -54.1472 C.3       19 UNK        -0.1800 
    107 C         -3.6409  -23.5057  -54.6073 C.2       19 UNK         0.5000 
    108 O         -2.8047  -23.2154  -55.4634 O.2       19 UNK        -0.5000 
    109 N         -3.9949  -22.6944  -53.6066 N.am      20 UNK        -0.5000 
    110 CA        -3.5179  -21.3451  -53.3422 C.3       20 UNK         0.1400 
    111 CB        -2.0705  -21.3686  -52.8122 C.3       20 UNK        -0.1800 
    112 C         -4.4656  -20.7216  -52.3093 C.2       20 UNK         0.5000 
    113 O         -5.1517  -21.4518  -51.5894 O.2       20 UNK        -0.5000 
    114 N         -4.4718  -19.3895  -52.2478 N.am      21 UNK        -0.5000 
    115 CA        -5.2140  -18.5853  -51.2810 C.3       21 UNK         0.1400 
    116 CB        -6.6888  -18.4510  -51.7084 C.3       21 UNK        -0.1800 
    117 C         -4.4803  -17.2416  -51.1468 C.2       21 UNK         0.5000 
    118 O         -5.0424  -16.1855  -51.4393 O.2       21 UNK        -0.5000 
    119 N         -3.1935  -17.3295  -50.7936 N.am      22 UNK        -0.5000 
    120 CA        -2.2061  -16.2408  -50.8820 C.3       22 UNK         0.1400 
    121 C         -2.1511  -15.2812  -49.6574 C.2       22 UNK         0.5000 
    122 N         -2.9911  -15.4547  -48.6472 N.am      22 UNK        -0.7600 
    123 O         -1.3328  -14.3658  -49.6224 O.2       22 UNK        -0.5000 
    124 C124       -0.8087  -16.8209  -51.2289 C.3       23 UNK        -0.0398 
    125 S125        0.0140  -15.9297  -52.5933 S.3       23 UNK        -0.2404 
    126 C126        1.4749  -15.2265  -51.7531 C.3       23 UNK        -0.0205 
    127 H127        5.5990  -10.2586  -43.2117 H         1 UNK         0.0600 
    128 H128        5.0632   -9.1863  -44.5097 H         1 UNK         0.0600 
    129 H129        6.5910  -10.0597  -44.6593 H         1 UNK         0.0600 
    130 H130        6.4239  -11.7815  -46.0697 H         1 UNK         0.3000 
    131 H131        4.2011  -13.6642  -45.9146 H         1 UNK         0.0600 
    132 H132        6.6253  -13.8220  -47.7701 H         1 UNK         0.0800 
    133 H133        6.6565  -14.3430  -46.1148 H         1 UNK         0.0800 
    134 H134        6.5626  -16.6505  -49.2165 H         1 UNK         0.0800 
    135 H135        5.9665  -15.0467  -49.5556 H         1 UNK         0.0800 
    136 H136        3.6785  -14.6610  -50.3503 H         1 UNK         0.1150 
    137 H137        1.5687  -18.0399  -51.9419 H         1 UNK         0.1150 
    138 H138        5.0943  -18.6352  -49.6060 H         1 UNK         0.1150 
    139 H139        2.5483  -20.2195  -51.8445 H         1 UNK         0.0800 
    140 H140        4.1201  -20.4423  -51.1218 H         1 UNK         0.0800 
    141 H141        0.3630  -20.0039  -50.5695 H         1 UNK         0.0800 
    142 H142        0.6793  -19.0813  -49.1135 H         1 UNK         0.0800 
    143 H143       -0.2242  -21.9995  -49.1934 H         1 UNK         0.0600 
    144 H144        0.6204  -20.3570  -46.9512 H         1 UNK         0.3000 
    145 H145       -0.2983  -21.7575  -44.4474 H         1 UNK         0.0600 
    146 H146        1.3165  -23.5002  -43.6094 H         1 UNK         0.0600 
    147 H147       -0.0639  -24.1620  -44.4643 H         1 UNK         0.0600 
    148 H148        1.4997  -24.0836  -45.2648 H         1 UNK         0.0600 
    149 H149        1.4220  -20.4057  -44.4243 H         1 UNK         0.3000 
    150 H150        4.6779  -20.5154  -44.8971 H         1 UNK         0.0600 
    151 H151        4.5567  -20.1011  -47.3525 H         1 UNK         0.0600 
    152 H152        4.8564  -18.6163  -46.4701 H         1 UNK         0.0600 
    153 H153        3.2496  -18.9481  -47.1126 H         1 UNK         0.0600 
    154 H154        2.3319  -18.6549  -44.7573 H         1 UNK         0.3000 
    155 H155        2.8912  -18.1744  -41.2641 H         1 UNK         0.0600 
    156 H156        4.1405  -16.3125  -42.3248 H         1 UNK         0.0600 
    157 H157        2.5085  -15.8074  -41.9152 H         1 UNK         0.0600 
    158 H158        2.9257  -16.1757  -43.5862 H         1 UNK         0.0600 
    159 H159        0.7670  -17.3088  -42.9132 H         1 UNK         0.3000 
    160 H160       -1.2792  -20.2486  -42.5066 H         1 UNK         0.0600 
    161 H161       -1.4056  -17.5072  -41.1400 H         1 UNK         0.0600 
    162 H162       -1.4467  -19.0661  -40.3219 H         1 UNK         0.0600 
    163 H163       -2.7647  -18.6025  -41.3875 H         1 UNK         0.0600 
    164 H164       -1.0163  -17.5166  -43.7114 H         1 UNK         0.3000 
    165 H165       -2.2873  -18.6864  -46.8034 H         1 UNK         0.0600 
    166 H166       -3.8522  -16.8445  -46.5735 H         1 UNK         0.0600 
    167 H167       -4.2559  -17.9152  -45.2517 H         1 UNK         0.0600 
    168 H168       -3.3078  -16.4764  -44.9404 H         1 UNK         0.0600 
    169 H169       -1.3682  -16.1559  -46.2117 H         1 UNK         0.3000 
    170 H170        2.0673  -16.4293  -45.7331 H         1 UNK         0.0600 
    171 H171        1.9855  -16.7044  -48.2114 H         1 UNK         0.0600 
    172 H172        0.6847  -15.5253  -48.3116 H         1 UNK         0.0600 
    173 H173        2.2849  -15.0344  -47.7644 H         1 UNK         0.0600 
    174 H174        0.5360  -14.1427  -46.2291 H         1 UNK         0.3000 
    175 H175       -1.5554  -13.7814  -43.5390 H         1 UNK         0.0600 
    176 H176        0.5022  -13.3356  -42.1812 H         1 UNK         0.0600 
    177 H177        1.2132  -12.4575  -43.5306 H         1 UNK         0.0600 
    178 H178       -0.2315  -11.8374  -42.7321 H         1 UNK         0.0600 
    179 H179       -0.3492  -11.8662  -45.3225 H         1 UNK         0.3000 
    180 H180       -2.5085  -12.4238  -48.1063 H         1 UNK         0.0600 
    181 H181       -1.7925  -10.1218  -46.2176 H         1 UNK         0.0600 
    182 H182       -3.4011  -10.6995  -46.6126 H         1 UNK         0.0600 
    183 H183       -2.4129   -9.9534  -47.8582 H         1 UNK         0.0600 
    184 H184       -0.4789  -12.4535  -48.9012 H         1 UNK         0.3000 
    185 H185        1.7137  -12.3760  -49.1443 H         1 UNK         0.0600 
    186 H186        1.5219   -9.9333  -49.7650 H         1 UNK         0.0600 
    187 H187        2.5330   -9.5028  -48.3898 H         1 UNK         0.0600 
    188 H188        3.2006  -10.4449  -49.7216 H         1 UNK         0.0600 
    189 H189        2.6933  -11.8985  -46.4913 H         1 UNK         0.3000 
    190 H190       -2.2020  -21.9303  -47.4717 H         1 UNK         0.3000 
    191 H191       -4.4202  -21.4487  -49.1042 H         1 UNK         0.0600 
    192 H192       -4.5403  -19.7464  -46.5678 H         1 UNK         0.0600 
    193 H193       -5.7538  -19.8800  -47.8242 H         1 UNK         0.0600 
    194 H194       -4.2413  -19.0536  -48.1619 H         1 UNK         0.0600 
    195 H195       -3.3326  -21.6857  -45.6747 H         1 UNK         0.3000 
    196 H196       -5.3186  -23.3835  -44.7187 H         1 UNK         0.0600 
    197 H197       -3.6956  -23.8003  -42.8501 H         1 UNK         0.0600 
    198 H198       -3.8003  -22.0970  -43.2667 H         1 UNK         0.0600 
    199 H199       -2.4158  -23.0480  -43.7955 H         1 UNK         0.0600 
    200 H200       -2.0536  -24.3512  -45.9531 H         1 UNK         0.3000 
    201 H201       -2.6930  -27.2143  -45.7224 H         1 UNK         0.0600 
    202 H202       -0.4013  -26.4297  -45.2190 H         1 UNK         0.0600 
    203 H203       -0.2443  -25.7467  -46.8390 H         1 UNK         0.0600 
    204 H204       -0.3826  -27.4857  -46.6195 H         1 UNK         0.0600 
    205 H205       -2.9035  -24.6891  -48.0716 H         1 UNK         0.3000 
    206 H206       -3.0293  -26.3767  -50.4502 H         1 UNK         0.0600 
    207 H207       -2.0372  -24.0615  -50.4288 H         1 UNK         0.0600 
    208 H208       -3.3540  -24.2123  -51.5733 H         1 UNK         0.0600 
    209 H209       -3.6267  -23.3983  -50.0483 H         1 UNK         0.0600 
    210 H210       -5.1927  -25.8519  -47.9963 H         1 UNK         0.3000 
    211 H211       -7.3387  -26.1278  -47.5896 H         1 UNK         0.0600 
    212 H212       -7.4808  -27.6057  -50.2732 H         1 UNK         0.0600 
    213 H213       -8.6012  -27.7748  -48.9282 H         1 UNK         0.0600 
    214 H214       -6.9421  -28.3200  -48.7537 H         1 UNK         0.0600 
    215 H215       -6.5412  -23.7095  -48.9602 H         1 UNK         0.3000 
    216 H216       -7.1617  -21.8964  -50.0468 H         1 UNK         0.0600 
    217 H217       -9.4564  -21.0706  -49.7576 H         1 UNK         0.0600 
    218 H218       -8.9328  -21.8668  -48.2839 H         1 UNK         0.0600 
    219 H219      -10.0413  -22.6864  -49.3839 H         1 UNK         0.0600 
    220 H220       -7.0692  -24.5137  -51.6087 H         1 UNK         0.3000 
    221 H221       -8.7829  -23.8346  -53.9703 H         1 UNK         0.0600 
    222 H222       -7.7788  -26.5393  -52.9334 H         1 UNK         0.0600 
    223 H223       -9.4269  -25.9311  -52.8214 H         1 UNK         0.0600 
    224 H224       -8.7290  -26.2881  -54.3947 H         1 UNK         0.0600 
    225 H225       -5.6187  -25.3125  -53.0138 H         1 UNK         0.3000 
    226 H226       -4.5598  -25.0763  -55.7240 H         1 UNK         0.0600 
    227 H227       -3.9192  -26.9740  -54.3004 H         1 UNK         0.0600 
    228 H228       -2.4977  -26.0127  -54.6720 H         1 UNK         0.0600 
    229 H229       -3.2428  -25.8990  -53.0841 H         1 UNK         0.0600 
    230 H230       -4.7195  -22.9923  -52.9647 H         1 UNK         0.3000 
    231 H231       -3.5681  -20.7652  -54.2658 H         1 UNK         0.0600 
    232 H232       -1.3854  -21.8126  -53.5341 H         1 UNK         0.0600 
    233 H233       -1.9918  -21.9346  -51.8842 H         1 UNK         0.0600 
    234 H234       -1.7120  -20.3592  -52.6076 H         1 UNK         0.0600 
    235 H235       -3.8629  -18.8651  -52.8611 H         1 UNK         0.3000 
    236 H236       -5.1804  -19.0749  -50.3077 H         1 UNK         0.0600 
    237 H237       -7.2454  -17.8350  -51.0013 H         1 UNK         0.0600 
    238 H238       -6.7809  -17.9912  -52.6929 H         1 UNK         0.0600 
    239 H239       -7.1803  -19.4235  -51.7463 H         1 UNK         0.0600 
    240 H240       -2.8274  -18.2372  -50.5097 H         1 UNK         0.3000 
    241 H241       -2.5231  -15.6048  -51.7107 H         1 UNK         0.0600 
    242 H242       -2.9399  -14.8499  -47.8351 H         1 UNK         0.3800 
    243 H243       -3.6884  -16.1776  -48.6948 H         1 UNK         0.3800 
    244 H244       -0.1642  -16.8640  -50.3492 H         1 UNK         0.0800 
    245 H245       -0.8929  -17.8563  -51.5626 H         1 UNK         0.0800 
    246 H246        1.9863  -14.5709  -52.4590 H         1 UNK         0.0800 
    247 H247        1.1281  -14.5900  -50.9375 H         1 UNK         0.0800 
@<TRIPOS>BOND
     1    1    2 1    
     2    1  127 1    
     3    1  128 1    
     4    1  129 1    
     5    2    3 2    
     6    2    4 am   BACKBONE|DICT|INTERRES
     7    4    5 1    
     8    4  130 1    
     9    5    6 1    
    10    5   65 1    
    11    5  131 1    
    12    6    7 1    
    13    6  132 1    
    14    6  133 1    
    15    7    8 1    
    16    8    9 1    
    17    8  134 1    
    18    8  135 1    
    19    9   10 ar   
    20    9   14 ar   
    21   10   11 ar   
    22   10  136 1    
    23   11   12 ar   
    24   11  126 1    
    25   12   13 ar   
    26   12  137 1    
    27   13   14 ar   
    28   13   15 1    
    29   14  138 1    
    30   15   16 1    
    31   15  139 1    
    32   15  140 1    
    33   16   17 1    
    34   17   18 1    
    35   17  141 1    
    36   17  142 1    
    37   18   19 1    
    38   18   67 1    
    39   18  143 1    
    40   19   20 am   BACKBONE|DICT|INTERRES
    41   19  144 1    
    42   20   21 2    
    43   20   22 1    
    44   22   23 1    
    45   22   24 1    
    46   22  145 1    
    47   23  146 1    
    48   23  147 1    
    49   23  148 1    
    50   24   25 am   BACKBONE|DICT|INTERRES
    51   24  149 1    
    52   25   26 2    
    53   25   27 1    
    54   27   28 1    
    55   27   29 1    
    56   27  150 1    
    57   28  151 1    
    58   28  152 1    
    59   28  153 1    
    60   29   30 am   BACKBONE|DICT|INTERRES
    61   29  154 1    
    62   30   31 2    
    63   30   32 1    
    64   32   33 1    
    65   32   34 1    
    66   32  155 1    
    67   33  156 1    
    68   33  157 1    
    69   33  158 1    
    70   34   35 am   BACKBONE|DICT|INTERRES
    71   34  159 1    
    72   35   36 2    
    73   35   37 1    
    74   37   38 1    
    75   37   39 1    
    76   37  160 1    
    77   38  161 1    
    78   38  162 1    
    79   38  163 1    
    80   39   40 am   BACKBONE|DICT|INTERRES
    81   39  164 1    
    82   40   41 2    
    83   40   42 1    
    84   42   43 1    
    85   42   44 1    
    86   42  165 1    
    87   43  166 1    
    88   43  167 1    
    89   43  168 1    
    90   44   45 am   BACKBONE|DICT|INTERRES
    91   44  169 1    
    92   45   46 2    
    93   45   47 1    
    94   47   48 1    
    95   47   49 1    
    96   47  170 1    
    97   48  171 1    
    98   48  172 1    
    99   48  173 1    
   100   49   50 am   BACKBONE|DICT|INTERRES
   101   49  174 1    
   102   50   51 2    
   103   50   52 1    
   104   52   53 1    
   105   52   54 1    
   106   52  175 1    
   107   53  176 1    
   108   53  177 1    
   109   53  178 1    
   110   54   55 am   BACKBONE|DICT|INTERRES
   111   54  179 1    
   112   55   56 2    
   113   55   57 1    
   114   57   58 1    
   115   57   59 1    
   116   57  180 1    
   117   58  181 1    
   118   58  182 1    
   119   58  183 1    
   120   59   60 am   BACKBONE|DICT|INTERRES
   121   59  184 1    
   122   60   61 2    
   123   60   62 1    
   124   62   63 1    
   125   62   64 1    
   126   62  185 1    
   127   63  186 1    
   128   63  187 1    
   129   63  188 1    
   130   64   65 am   BACKBONE|DICT|INTERRES
   131   64  189 1    
   132   65   66 2    
   133   67   68 2    
   134   67   69 am   BACKBONE|DICT|INTERRES
   135   69   70 1    
   136   69  190 1    
   137   70   71 1    
   138   70   72 1    
   139   70  191 1    
   140   71  192 1    
   141   71  193 1    
   142   71  194 1    
   143   72   73 2    
   144   72   74 am   BACKBONE|DICT|INTERRES
   145   74   75 1    
   146   74  195 1    
   147   75   76 1    
   148   75   77 1    
   149   75  196 1    
   150   76  197 1    
   151   76  198 1    
   152   76  199 1    
   153   77   78 2    
   154   77   79 am   BACKBONE|DICT|INTERRES
   155   79   80 1    
   156   79  200 1    
   157   80   81 1    
   158   80   82 1    
   159   80  201 1    
   160   81  202 1    
   161   81  203 1    
   162   81  204 1    
   163   82   83 2    
   164   82   84 am   BACKBONE|DICT|INTERRES
   165   84   85 1    
   166   84  205 1    
   167   85   86 1    
   168   85   87 1    
   169   85  206 1    
   170   86  207 1    
   171   86  208 1    
   172   86  209 1    
   173   87   88 2    
   174   87   89 am   BACKBONE|DICT|INTERRES
   175   89   90 1    
   176   89  210 1    
   177   90   91 1    
   178   90   92 1    
   179   90  211 1    
   180   91  212 1    
   181   91  213 1    
   182   91  214 1    
   183   92   93 2    
   184   92   94 am   BACKBONE|DICT|INTERRES
   185   94   95 1    
   186   94  215 1    
   187   95   96 1    
   188   95   97 1    
   189   95  216 1    
   190   96  217 1    
   191   96  218 1    
   192   96  219 1    
   193   97   98 2    
   194   97   99 am   BACKBONE|DICT|INTERRES
   195   99  100 1    
   196   99  220 1    
   197  100  101 1    
   198  100  102 1    
   199  100  221 1    
   200  101  222 1    
   201  101  223 1    
   202  101  224 1    
   203  102  103 2    
   204  102  104 am   BACKBONE|DICT|INTERRES
   205  104  105 1    
   206  104  225 1    
   207  105  106 1    
   208  105  107 1    
   209  105  226 1    
   210  106  227 1    
   211  106  228 1    
   212  106  229 1    
   213  107  108 2    
   214  107  109 am   BACKBONE|DICT|INTERRES
   215  109  110 1    
   216  109  230 1    
   217  110  111 1    
   218  110  112 1    
   219  110  231 1    
   220  111  232 1    
   221  111  233 1    
   222  111  234 1    
   223  112  113 2    
   224  112  114 am   BACKBONE|DICT|INTERRES
   225  114  115 1    
   226  114  235 1    
   227  115  116 1    
   228  115  117 1    
   229  115  236 1    
   230  116  237 1    
   231  116  238 1    
   232  116  239 1    
   233  117  118 2    
   234  117  119 am   BACKBONE|DICT|INTERRES
   235  119  120 1    
   236  119  240 1    
   237  120  121 1    
   238  120  124 1    
   239  120  241 1    
   240  121  122 am   BACKBONE|DICT|INTERRES
   241  121  123 2    
   242  122  242 1    
   243  122  243 1    
   244  124  125 1    
   245  124  244 1    
   246  124  245 1    
   247  125  126 1    
   248  126  246 1    
   249  126  247 1    
@<TRIPOS>SUBSTRUCTURE
     1 UNK         1 GROUP             0       ****    0 ROOT    
