@<TRIPOS>MOLECULE
3R540
247   249    1
SMALL
USER_CHARGES


@<TRIPOS>ATOM
      1 CA          2.8406  -15.9857  -47.8970 C.3       0 UNK        -0.1800 
      2 C           2.1676  -15.0134  -46.9403 C.2       0 UNK         0.5000 
      3 O           2.7889  -14.5730  -45.9749 O.2       0 UNK        -0.5000 
      4 N           0.9023  -14.6670  -47.2099 N.am      1 UNK        -0.5000 
      5 CA          0.0226  -13.8750  -46.3361 C.3       1 UNK         0.1400 
      6 C6         -1.4215  -13.7699  -46.8904 C.3       23 UNK        -0.0398 
      7 S7         -2.1488  -15.3865  -47.3218 S.3       23 UNK        -0.2404 
      8 C8         -2.1122  -15.3043  -49.1407 C.3       23 UNK        -0.0205 
      9 C9         -2.3358  -16.6787  -49.7464 C.ar      23 UNK        -0.0193 
     10 C10        -3.5710  -17.0244  -50.2999 C.ar      23 UNK        -0.1150 
     11 C11        -3.7731  -18.3009  -50.8316 C.ar      23 UNK        -0.0193 
     12 C12        -2.7360  -19.2363  -50.7858 C.ar      23 UNK        -0.1150 
     13 C13        -1.4896  -18.9025  -50.2504 C.ar      23 UNK        -0.0193 
     14 C14        -1.2945  -17.6095  -49.7495 C.ar      23 UNK        -0.1150 
     15 C15        -0.3856  -19.9602  -50.2582 C.3       23 UNK        -0.0205 
     16 S16         0.9912  -19.6903  -49.0881 S.3       23 UNK        -0.2404 
     17 C17         0.1456  -19.6942  -47.4707 C.3       23 UNK        -0.0398 
     18 CA          0.0645  -21.1097  -46.8415 C.3       11 UNK         0.1400 
     19 N           0.5098  -21.1262  -45.4427 N.am      11 UNK        -0.5000 
     20 C           0.7472  -22.2386  -44.7326 C.2       10 UNK         0.5000 
     21 O           0.6356  -23.3737  -45.1938 O.2       10 UNK        -0.5000 
     22 CA          1.1260  -22.0576  -43.2511 C.3       10 UNK         0.1400 
     23 CB          2.6093  -21.6887  -43.0993 C.3       10 UNK        -0.1800 
     24 N           0.2914  -21.0555  -42.5881 N.am      10 UNK        -0.5000 
     25 C          -1.0185  -21.2094  -42.3483 C.2       9 UNK         0.5000 
     26 O          -1.6350  -22.2493  -42.5797 O.2       9 UNK        -0.5000 
     27 CA         -1.7786  -19.9917  -41.7893 C.3       9 UNK         0.1400 
     28 CB         -1.6902  -19.9499  -40.2566 C.3       9 UNK        -0.1800 
     29 N          -1.3150  -18.7172  -42.3398 N.am      9 UNK        -0.5000 
     30 C          -1.3915  -18.3642  -43.6315 C.2       8 UNK         0.5000 
     31 O          -1.8775  -19.0750  -44.5101 O.2       8 UNK        -0.5000 
     32 CA         -0.7655  -17.0090  -44.0089 C.3       8 UNK         0.1400 
     33 CB         -1.6758  -15.8544  -43.5504 C.3       8 UNK        -0.1800 
     34 N           0.5783  -16.8519  -43.4447 N.am      8 UNK        -0.5000 
     35 C           1.6138  -17.6673  -43.7005 C.2       7 UNK         0.5000 
     36 O           1.5683  -18.5936  -44.5079 O.2       7 UNK        -0.5000 
     37 CA          2.8887  -17.4739  -42.8613 C.3       7 UNK         0.1400 
     38 CB          3.8116  -16.4098  -43.4675 C.3       7 UNK        -0.1800 
     39 N           2.5787  -17.1319  -41.4747 N.am      7 UNK        -0.5000 
     40 C           2.0580  -17.9908  -40.5869 C.2       6 UNK         0.5000 
     41 O           1.8412  -19.1772  -40.8312 O.2       6 UNK        -0.5000 
     42 CA          1.6746  -17.4114  -39.2126 C.3       6 UNK         0.1400 
     43 CB          2.8932  -17.3816  -38.2783 C.3       6 UNK        -0.1800 
     44 N           1.1111  -16.0641  -39.3180 N.am      6 UNK        -0.5000 
     45 C          -0.0641  -15.7791  -39.8976 C.2       5 UNK         0.5000 
     46 O          -0.8316  -16.6372  -40.3314 O.2       5 UNK        -0.5000 
     47 CA         -0.4104  -14.2863  -40.0697 C.3       5 UNK         0.1400 
     48 CB         -1.1785  -13.7656  -38.8463 C.3       5 UNK        -0.1800 
     49 N           0.7767  -13.4537  -40.2916 N.am      5 UNK        -0.5000 
     50 C           1.5585  -13.5310  -41.3764 C.2       4 UNK         0.5000 
     51 O           1.3183  -14.2623  -42.3397 O.2       4 UNK        -0.5000 
     52 CA          2.8672  -12.7322  -41.3308 C.3       4 UNK         0.1400 
     53 CB          3.8793  -13.4585  -40.4170 C.3       4 UNK        -0.1800 
     54 N           3.4033  -12.5992  -42.6839 N.am      4 UNK        -0.5000 
     55 C           4.4609  -11.8565  -43.0343 C.2       3 UNK         0.5000 
     56 O           5.0898  -11.1441  -42.2505 O.2       3 UNK        -0.5000 
     57 CA          4.8879  -11.9063  -44.5104 C.3       3 UNK         0.1400 
     58 CB          5.6586  -13.1991  -44.8200 C.3       3 UNK        -0.1800 
     59 N           3.7522  -11.7726  -45.4222 N.am      3 UNK        -0.5000 
     60 C           3.1654  -10.6000  -45.7082 C.2       2 UNK         0.5000 
     61 O           3.5144   -9.5280  -45.2113 O.2       2 UNK        -0.5000 
     62 CA          2.0166  -10.5996  -46.7363 C.3       2 UNK         0.1400 
     63 CB          2.5260  -10.1286  -48.1075 C.3       2 UNK        -0.1800 
     64 N           1.3750  -11.9023  -46.8981 N.am      2 UNK        -0.5000 
     65 C           0.5548  -12.4652  -46.0018 C.2       1 UNK         0.5000 
     66 O           0.2169  -11.9209  -44.9503 O.2       1 UNK        -0.5000 
     67 C          -1.3429  -21.7225  -47.0148 C.2       11 UNK         0.5000 
     68 O          -1.5973  -22.3945  -48.0135 O.2       11 UNK        -0.5000 
     69 N          -2.2149  -21.5364  -46.0134 N.am      12 UNK        -0.5000 
     70 CA         -3.5649  -22.1019  -45.9417 C.3       12 UNK         0.1400 
     71 CB         -4.3369  -21.4332  -44.7944 C.3       12 UNK        -0.1800 
     72 C          -3.6167  -23.6426  -45.8245 C.2       12 UNK         0.5000 
     73 O          -4.6985  -24.2182  -45.9502 O.2       12 UNK        -0.5000 
     74 N          -2.4672  -24.3019  -45.6271 N.am      13 UNK        -0.5000 
     75 CA         -2.3289  -25.7529  -45.7604 C.3       13 UNK         0.1400 
     76 CB         -1.1152  -26.2173  -44.9400 C.3       13 UNK        -0.1800 
     77 C          -2.1972  -26.2071  -47.2324 C.2       13 UNK         0.5000 
     78 O          -2.2343  -27.4123  -47.4856 O.2       13 UNK        -0.5000 
     79 N          -2.0229  -25.2625  -48.1680 N.am      14 UNK        -0.5000 
     80 CA         -1.7807  -25.5031  -49.5863 C.3       14 UNK         0.1400 
     81 CB         -0.2663  -25.3749  -49.8570 C.3       14 UNK        -0.1800 
     82 C          -2.6586  -24.5741  -50.4510 C.2       14 UNK         0.5000 
     83 O          -3.8433  -24.3936  -50.1570 O.2       14 UNK        -0.5000 
     84 N          -2.0821  -24.0351  -51.5291 N.am      15 UNK        -0.5000 
     85 CA         -2.7394  -23.2280  -52.5486 C.3       15 UNK         0.1400 
     86 CB         -3.2328  -24.1632  -53.6656 C.3       15 UNK        -0.1800 
     87 C          -1.7363  -22.2001  -53.0906 C.2       15 UNK         0.5000 
     88 O          -0.5285  -22.3526  -52.8868 O.2       15 UNK        -0.5000 
     89 N          -2.2422  -21.1832  -53.7964 N.am      16 UNK        -0.5000 
     90 CA         -1.4523  -20.1202  -54.4162 C.3       16 UNK         0.1400 
     91 CB         -2.3236  -18.8554  -54.5317 C.3       16 UNK        -0.1800 
     92 C          -0.9227  -20.5967  -55.7803 C.2       16 UNK         0.5000 
     93 O          -1.4231  -20.1681  -56.8195 O.2       16 UNK        -0.5000 
     94 N           0.0357  -21.5343  -55.7485 N.am      17 UNK        -0.5000 
     95 CA          0.5997  -22.2486  -56.9025 C.3       17 UNK         0.1400 
     96 CB          1.4208  -21.2955  -57.7965 C.3       17 UNK        -0.1800 
     97 C          -0.4896  -23.0258  -57.6738 C.2       17 UNK         0.5000 
     98 O          -0.6227  -22.8831  -58.8898 O.2       17 UNK        -0.5000 
     99 N          -1.2758  -23.7993  -56.9104 N.am      18 UNK        -0.5000 
    100 CA        -2.4403  -24.6044  -57.3054 C.3       18 UNK         0.1400 
    101 CB        -2.1098  -25.5707  -58.4619 C.3       18 UNK        -0.1800 
    102 C         -3.7280  -23.7967  -57.5769 C.2       18 UNK         0.5000 
    103 O         -4.7773  -24.4125  -57.7710 O.2       18 UNK        -0.5000 
    104 N         -3.6620  -22.4586  -57.5554 N.am      19 UNK        -0.5000 
    105 CA        -4.8238  -21.5778  -57.6734 C.3       19 UNK         0.1400 
    106 CB        -4.4090  -20.2859  -58.3944 C.3       19 UNK        -0.1800 
    107 C         -5.4076  -21.2523  -56.2879 C.2       19 UNK         0.5000 
    108 O         -4.7069  -21.3521  -55.2751 O.2       19 UNK        -0.5000 
    109 N         -6.6830  -20.8431  -56.2778 N.am      20 UNK        -0.5000 
    110 CA        -7.4934  -20.3606  -55.1489 C.3       20 UNK         0.1400 
    111 CB        -6.8889  -19.0796  -54.5460 C.3       20 UNK        -0.1800 
    112 C         -7.8143  -21.4023  -54.0555 C.2       20 UNK         0.5000 
    113 O         -8.9493  -21.4266  -53.5787 O.2       20 UNK        -0.5000 
    114 N         -6.8360  -22.2481  -53.7029 N.am      21 UNK        -0.5000 
    115 CA        -6.9093  -23.3603  -52.7481 C.3       21 UNK         0.1400 
    116 CB        -7.7675  -24.5048  -53.3246 C.3       21 UNK        -0.1800 
    117 C         -7.3539  -22.9148  -51.3396 C.2       21 UNK         0.5000 
    118 O         -8.3287  -23.4391  -50.7966 O.2       21 UNK        -0.5000 
    119 N         -6.6328  -21.9294  -50.7896 N.am      22 UNK        -0.5000 
    120 CA        -6.8794  -21.3508  -49.4576 C.3       22 UNK         0.1400 
    121 C         -6.6806  -22.3272  -48.2640 C.2       22 UNK         0.5000 
    122 N         -5.9214  -23.4059  -48.3973 N.am      22 UNK        -0.7600 
    123 O         -7.2171  -22.0871  -47.1863 O.2       22 UNK        -0.5000 
    124 C124       -6.0426  -20.0680  -49.2198 C.3       23 UNK        -0.0398 
    125 S125       -6.4964  -18.7027  -50.3406 S.3       23 UNK        -0.2404 
    126 C126       -5.0930  -18.6596  -51.4978 C.3       23 UNK        -0.0205 
    127 H127        3.1273  -16.8922  -47.3635 H         1 UNK         0.0600 
    128 H128        3.7399  -15.5366  -48.3183 H         1 UNK         0.0600 
    129 H129        2.1822  -16.2700  -48.7182 H         1 UNK         0.0600 
    130 H130        0.4514  -15.0640  -48.0200 H         1 UNK         0.3000 
    131 H131       -0.0113  -14.4145  -45.3912 H         1 UNK         0.0600 
    132 H132       -2.0740  -13.3087  -46.1466 H         1 UNK         0.0800 
    133 H133       -1.4539  -13.1152  -47.7634 H         1 UNK         0.0800 
    134 H134       -1.1524  -14.9142  -49.4815 H         1 UNK         0.0800 
    135 H135       -2.8722  -14.6013  -49.4854 H         1 UNK         0.0800 
    136 H136       -4.3758  -16.3029  -50.3199 H         1 UNK         0.1150 
    137 H137       -2.8930  -20.2261  -51.1872 H         1 UNK         0.1150 
    138 H138       -0.3389  -17.3207  -49.3378 H         1 UNK         0.1150 
    139 H139       -0.8151  -20.9440  -50.0664 H         1 UNK         0.0800 
    140 H140        0.0320  -20.0055  -51.2645 H         1 UNK         0.0800 
    141 H141       -0.8319  -19.2139  -47.5395 H         1 UNK         0.0800 
    142 H142        0.7319  -19.0270  -46.8413 H         1 UNK         0.0800 
    143 H143        0.7526  -21.7693  -47.3751 H         1 UNK         0.0600 
    144 H144        0.6690  -20.2230  -45.0041 H         1 UNK         0.3000 
    145 H145        0.9662  -23.0137  -42.7480 H         1 UNK         0.0600 
    146 H146        2.8873  -21.5973  -42.0491 H         1 UNK         0.0600 
    147 H147        3.2471  -22.4560  -43.5396 H         1 UNK         0.0600 
    148 H148        2.8462  -20.7459  -43.5910 H         1 UNK         0.0600 
    149 H149        0.7438  -20.1943  -42.3031 H         1 UNK         0.3000 
    150 H150       -2.8290  -20.1050  -42.0647 H         1 UNK         0.0600 
    151 H151       -2.0643  -20.8759  -39.8184 H         1 UNK         0.0600 
    152 H152       -2.2863  -19.1328  -39.8496 H         1 UNK         0.0600 
    153 H153       -0.6635  -19.8162  -39.9157 H         1 UNK         0.0600 
    154 H154       -0.9402  -18.0461  -41.6754 H         1 UNK         0.3000 
    155 H155       -0.6676  -16.9648  -45.0954 H         1 UNK         0.0600 
    156 H156       -2.0307  -15.9897  -42.5296 H         1 UNK         0.0600 
    157 H157       -2.5588  -15.7901  -44.1868 H         1 UNK         0.0600 
    158 H158       -1.1737  -14.8893  -43.5878 H         1 UNK         0.0600 
    159 H159        0.7268  -16.0641  -42.8224 H         1 UNK         0.3000 
    160 H160        3.4319  -18.4212  -42.8635 H         1 UNK         0.0600 
    161 H161        3.3396  -15.4291  -43.4841 H         1 UNK         0.0600 
    162 H162        4.0736  -16.6623  -44.4957 H         1 UNK         0.0600 
    163 H163        4.7416  -16.3243  -42.9056 H         1 UNK         0.0600 
    164 H164        2.6828  -16.1646  -41.2119 H         1 UNK         0.3000 
    165 H165        0.9194  -18.0657  -38.7720 H         1 UNK         0.0600 
    166 H166        2.6168  -17.0383  -37.2812 H         1 UNK         0.0600 
    167 H167        3.3252  -18.3774  -38.1699 H         1 UNK         0.0600 
    168 H168        3.6766  -16.7229  -38.6556 H         1 UNK         0.0600 
    169 H169        1.6740  -15.3039  -38.9676 H         1 UNK         0.3000 
    170 H170       -1.0578  -14.1946  -40.9443 H         1 UNK         0.0600 
    171 H171       -2.0794  -14.3556  -38.6719 H         1 UNK         0.0600 
    172 H172       -0.5743  -13.8128  -37.9395 H         1 UNK         0.0600 
    173 H173       -1.4918  -12.7312  -38.9886 H         1 UNK         0.0600 
    174 H174        1.0366  -12.8308  -39.5401 H         1 UNK         0.3000 
    175 H175        2.6537  -11.7371  -40.9359 H         1 UNK         0.0600 
    176 H176        4.1650  -14.4282  -40.8262 H         1 UNK         0.0600 
    177 H177        4.7903  -12.8767  -40.2803 H         1 UNK         0.0600 
    178 H178        3.4683  -13.6293  -39.4214 H         1 UNK         0.0600 
    179 H179        2.9068  -13.1356  -43.3857 H         1 UNK         0.3000 
    180 H180        5.5717  -11.0726  -44.6853 H         1 UNK         0.0600 
    181 H181        5.0457  -14.0855  -44.6637 H         1 UNK         0.0600 
    182 H182        6.5358  -13.2921  -44.1787 H         1 UNK         0.0600 
    183 H183        6.0070  -13.2125  -45.8528 H         1 UNK         0.0600 
    184 H184        3.3857  -12.6297  -45.8234 H         1 UNK         0.3000 
    185 H185        1.2660   -9.8864  -46.3889 H         1 UNK         0.0600 
    186 H186        2.9847   -9.1414  -48.0366 H         1 UNK         0.0600 
    187 H187        3.2745  -10.8098  -48.5143 H         1 UNK         0.0600 
    188 H188        1.7109  -10.0548  -48.8278 H         1 UNK         0.0600 
    189 H189        1.6097  -12.4266  -47.7283 H         1 UNK         0.3000 
    190 H190       -1.9503  -20.9097  -45.2593 H         1 UNK         0.3000 
    191 H191       -4.0660  -21.8403  -46.8747 H         1 UNK         0.0600 
    192 H192       -3.8991  -21.6657  -43.8245 H         1 UNK         0.0600 
    193 H193       -5.3741  -21.7707  -44.7748 H         1 UNK         0.0600 
    194 H194       -4.3531  -20.3491  -44.9069 H         1 UNK         0.0600 
    195 H195       -1.6105  -23.7752  -45.5108 H         1 UNK         0.3000 
    196 H196       -3.2160  -26.2352  -45.3448 H         1 UNK         0.0600 
    197 H197       -1.0644  -27.3061  -44.9040 H         1 UNK         0.0600 
    198 H198       -1.1696  -25.8597  -43.9115 H         1 UNK         0.0600 
    199 H199       -0.1787  -25.8637  -45.3715 H         1 UNK         0.0600 
    200 H200       -2.0333  -24.2824  -47.9005 H         1 UNK         0.3000 
    201 H201       -2.0855  -26.5183  -49.8468 H         1 UNK         0.0600 
    202 H202        0.3032  -26.0403  -49.2078 H         1 UNK         0.0600 
    203 H203        0.0888  -24.3586  -49.6792 H         1 UNK         0.0600 
    204 H204       -0.0164  -25.6476  -50.8830 H         1 UNK         0.0600 
    205 H205       -1.0852  -24.1437  -51.6660 H         1 UNK         0.3000 
    206 H206       -3.5818  -22.6865  -52.1136 H         1 UNK         0.0600 
    207 H207       -2.4033  -24.7045  -54.1205 H         1 UNK         0.0600 
    208 H208       -3.9327  -24.9051  -53.2814 H         1 UNK         0.0600 
    209 H209       -3.7444  -23.6140  -54.4543 H         1 UNK         0.0600 
    210 H210       -3.2245  -21.1947  -54.0575 H         1 UNK         0.3000 
    211 H211       -0.5945  -19.8783  -53.7851 H         1 UNK         0.0600 
    212 H212       -3.2232  -19.0330  -55.1220 H         1 UNK         0.0600 
    213 H213       -1.7723  -18.0447  -55.0092 H         1 UNK         0.0600 
    214 H214       -2.6346  -18.4984  -53.5512 H         1 UNK         0.0600 
    215 H215        0.3401  -21.8537  -54.8356 H         1 UNK         0.3000 
    216 H216        1.2869  -22.9954  -56.5022 H         1 UNK         0.0600 
    217 H217        1.9264  -21.8467  -58.5902 H         1 UNK         0.0600 
    218 H218        2.1885  -20.7794  -57.2203 H         1 UNK         0.0600 
    219 H219        0.7952  -20.5402  -58.2730 H         1 UNK         0.0600 
    220 H220       -1.0707  -23.8135  -55.9220 H         1 UNK         0.3000 
    221 H221       -2.6669  -25.2259  -56.4388 H         1 UNK         0.0600 
    222 H222       -1.9728  -25.0463  -59.4077 H         1 UNK         0.0600 
    223 H223       -1.2034  -26.1401  -58.2562 H         1 UNK         0.0600 
    224 H224       -2.9165  -26.2897  -58.6089 H         1 UNK         0.0600 
    225 H225       -2.7781  -22.0072  -57.3614 H         1 UNK         0.3000 
    226 H226       -5.5948  -22.0662  -58.2731 H         1 UNK         0.0600 
    227 H227       -3.8962  -20.5012  -59.3320 H         1 UNK         0.0600 
    228 H228       -5.2813  -19.6770  -58.6343 H         1 UNK         0.0600 
    229 H229       -3.7483  -19.6723  -57.7827 H         1 UNK         0.0600 
    230 H230       -7.1686  -20.8330  -57.1640 H         1 UNK         0.3000 
    231 H231       -8.4550  -20.0824  -55.5836 H         1 UNK         0.0600 
    232 H232       -6.8709  -18.2737  -55.2796 H         1 UNK         0.0600 
    233 H233       -5.8672  -19.2359  -54.2049 H         1 UNK         0.0600 
    234 H234       -7.4728  -18.7303  -53.6933 H         1 UNK         0.0600 
    235 H235       -5.9430  -22.1091  -54.1692 H         1 UNK         0.3000 
    236 H236       -5.8956  -23.7421  -52.6339 H         1 UNK         0.0600 
    237 H237       -8.8082  -24.2062  -53.4546 H         1 UNK         0.0600 
    238 H238       -7.3885  -24.8297  -54.2936 H         1 UNK         0.0600 
    239 H239       -7.7552  -25.3726  -52.6641 H         1 UNK         0.0600 
    240 H240       -5.8667  -21.5379  -51.3122 H         1 UNK         0.3000 
    241 H241       -7.9330  -21.0654  -49.4318 H         1 UNK         0.0600 
    242 H242       -5.4106  -23.6176  -49.2478 H         1 UNK         0.3800 
    243 H243       -5.7556  -23.9722  -47.5731 H         1 UNK         0.3800 
    244 H244       -6.1949  -19.6940  -48.2054 H         1 UNK         0.0800 
    245 H245       -4.9772  -20.2889  -49.2951 H         1 UNK         0.0800 
    246 H246       -5.3024  -17.9148  -52.2665 H         1 UNK         0.0800 
    247 H247       -5.0205  -19.6186  -52.0115 H         1 UNK         0.0800 
@<TRIPOS>BOND
     1    1    2 1    
     2    1  127 1    
     3    1  128 1    
     4    1  129 1    
     5    2    3 2    
     6    2    4 am   BACKBONE|DICT|INTERRES
     7    4    5 1    
     8    4  130 1    
     9    5    6 1    
    10    5   65 1    
    11    5  131 1    
    12    6    7 1    
    13    6  132 1    
    14    6  133 1    
    15    7    8 1    
    16    8    9 1    
    17    8  134 1    
    18    8  135 1    
    19    9   10 ar   
    20    9   14 ar   
    21   10   11 ar   
    22   10  136 1    
    23   11   12 ar   
    24   11  126 1    
    25   12   13 ar   
    26   12  137 1    
    27   13   14 ar   
    28   13   15 1    
    29   14  138 1    
    30   15   16 1    
    31   15  139 1    
    32   15  140 1    
    33   16   17 1    
    34   17   18 1    
    35   17  141 1    
    36   17  142 1    
    37   18   19 1    
    38   18   67 1    
    39   18  143 1    
    40   19   20 am   BACKBONE|DICT|INTERRES
    41   19  144 1    
    42   20   21 2    
    43   20   22 1    
    44   22   23 1    
    45   22   24 1    
    46   22  145 1    
    47   23  146 1    
    48   23  147 1    
    49   23  148 1    
    50   24   25 am   BACKBONE|DICT|INTERRES
    51   24  149 1    
    52   25   26 2    
    53   25   27 1    
    54   27   28 1    
    55   27   29 1    
    56   27  150 1    
    57   28  151 1    
    58   28  152 1    
    59   28  153 1    
    60   29   30 am   BACKBONE|DICT|INTERRES
    61   29  154 1    
    62   30   31 2    
    63   30   32 1    
    64   32   33 1    
    65   32   34 1    
    66   32  155 1    
    67   33  156 1    
    68   33  157 1    
    69   33  158 1    
    70   34   35 am   BACKBONE|DICT|INTERRES
    71   34  159 1    
    72   35   36 2    
    73   35   37 1    
    74   37   38 1    
    75   37   39 1    
    76   37  160 1    
    77   38  161 1    
    78   38  162 1    
    79   38  163 1    
    80   39   40 am   BACKBONE|DICT|INTERRES
    81   39  164 1    
    82   40   41 2    
    83   40   42 1    
    84   42   43 1    
    85   42   44 1    
    86   42  165 1    
    87   43  166 1    
    88   43  167 1    
    89   43  168 1    
    90   44   45 am   BACKBONE|DICT|INTERRES
    91   44  169 1    
    92   45   46 2    
    93   45   47 1    
    94   47   48 1    
    95   47   49 1    
    96   47  170 1    
    97   48  171 1    
    98   48  172 1    
    99   48  173 1    
   100   49   50 am   BACKBONE|DICT|INTERRES
   101   49  174 1    
   102   50   51 2    
   103   50   52 1    
   104   52   53 1    
   105   52   54 1    
   106   52  175 1    
   107   53  176 1    
   108   53  177 1    
   109   53  178 1    
   110   54   55 am   BACKBONE|DICT|INTERRES
   111   54  179 1    
   112   55   56 2    
   113   55   57 1    
   114   57   58 1    
   115   57   59 1    
   116   57  180 1    
   117   58  181 1    
   118   58  182 1    
   119   58  183 1    
   120   59   60 am   BACKBONE|DICT|INTERRES
   121   59  184 1    
   122   60   61 2    
   123   60   62 1    
   124   62   63 1    
   125   62   64 1    
   126   62  185 1    
   127   63  186 1    
   128   63  187 1    
   129   63  188 1    
   130   64   65 am   BACKBONE|DICT|INTERRES
   131   64  189 1    
   132   65   66 2    
   133   67   68 2    
   134   67   69 am   BACKBONE|DICT|INTERRES
   135   69   70 1    
   136   69  190 1    
   137   70   71 1    
   138   70   72 1    
   139   70  191 1    
   140   71  192 1    
   141   71  193 1    
   142   71  194 1    
   143   72   73 2    
   144   72   74 am   BACKBONE|DICT|INTERRES
   145   74   75 1    
   146   74  195 1    
   147   75   76 1    
   148   75   77 1    
   149   75  196 1    
   150   76  197 1    
   151   76  198 1    
   152   76  199 1    
   153   77   78 2    
   154   77   79 am   BACKBONE|DICT|INTERRES
   155   79   80 1    
   156   79  200 1    
   157   80   81 1    
   158   80   82 1    
   159   80  201 1    
   160   81  202 1    
   161   81  203 1    
   162   81  204 1    
   163   82   83 2    
   164   82   84 am   BACKBONE|DICT|INTERRES
   165   84   85 1    
   166   84  205 1    
   167   85   86 1    
   168   85   87 1    
   169   85  206 1    
   170   86  207 1    
   171   86  208 1    
   172   86  209 1    
   173   87   88 2    
   174   87   89 am   BACKBONE|DICT|INTERRES
   175   89   90 1    
   176   89  210 1    
   177   90   91 1    
   178   90   92 1    
   179   90  211 1    
   180   91  212 1    
   181   91  213 1    
   182   91  214 1    
   183   92   93 2    
   184   92   94 am   BACKBONE|DICT|INTERRES
   185   94   95 1    
   186   94  215 1    
   187   95   96 1    
   188   95   97 1    
   189   95  216 1    
   190   96  217 1    
   191   96  218 1    
   192   96  219 1    
   193   97   98 2    
   194   97   99 am   BACKBONE|DICT|INTERRES
   195   99  100 1    
   196   99  220 1    
   197  100  101 1    
   198  100  102 1    
   199  100  221 1    
   200  101  222 1    
   201  101  223 1    
   202  101  224 1    
   203  102  103 2    
   204  102  104 am   BACKBONE|DICT|INTERRES
   205  104  105 1    
   206  104  225 1    
   207  105  106 1    
   208  105  107 1    
   209  105  226 1    
   210  106  227 1    
   211  106  228 1    
   212  106  229 1    
   213  107  108 2    
   214  107  109 am   BACKBONE|DICT|INTERRES
   215  109  110 1    
   216  109  230 1    
   217  110  111 1    
   218  110  112 1    
   219  110  231 1    
   220  111  232 1    
   221  111  233 1    
   222  111  234 1    
   223  112  113 2    
   224  112  114 am   BACKBONE|DICT|INTERRES
   225  114  115 1    
   226  114  235 1    
   227  115  116 1    
   228  115  117 1    
   229  115  236 1    
   230  116  237 1    
   231  116  238 1    
   232  116  239 1    
   233  117  118 2    
   234  117  119 am   BACKBONE|DICT|INTERRES
   235  119  120 1    
   236  119  240 1    
   237  120  121 1    
   238  120  124 1    
   239  120  241 1    
   240  121  122 am   BACKBONE|DICT|INTERRES
   241  121  123 2    
   242  122  242 1    
   243  122  243 1    
   244  124  125 1    
   245  124  244 1    
   246  124  245 1    
   247  125  126 1    
   248  126  246 1    
   249  126  247 1    
@<TRIPOS>SUBSTRUCTURE
     1 UNK         1 GROUP             0       ****    0 ROOT    
