@<TRIPOS>MOLECULE
3R540
247   249    1
SMALL
USER_CHARGES


@<TRIPOS>ATOM
      1 CA          5.7130  -11.7112  -46.4752 C.3       0 UNK        -0.1800 
      2 C           6.8345  -12.6110  -46.9937 C.2       0 UNK         0.5000 
      3 O           7.9546  -12.1299  -47.1549 O.2       0 UNK        -0.5000 
      4 N           6.6068  -13.9012  -47.2861 N.am      1 UNK        -0.5000 
      5 CA          5.3790  -14.6945  -47.1293 C.3       1 UNK         0.1400 
      6 C6          4.1610  -14.0997  -47.8954 C.3       23 UNK        -0.0398 
      7 S7          3.0300  -15.3813  -48.5247 S.3       23 UNK        -0.2404 
      8 C8          3.6601  -15.6224  -50.2159 C.3       23 UNK        -0.0205 
      9 C9          3.0005  -16.8267  -50.8688 C.ar      23 UNK        -0.0193 
     10 C10         2.1106  -16.6732  -51.9355 C.ar      23 UNK        -0.1150 
     11 C11         1.4851  -17.7882  -52.5055 C.ar      23 UNK        -0.0193 
     12 C12         1.7453  -19.0606  -51.9853 C.ar      23 UNK        -0.1150 
     13 C13         2.6218  -19.2261  -50.9088 C.ar      23 UNK        -0.0193 
     14 C14         3.2712  -18.1059  -50.3814 C.ar      23 UNK        -0.1150 
     15 C15         2.8286  -20.6117  -50.3023 C.3       23 UNK        -0.0205 
     16 S16         2.9133  -20.6093  -48.4750 S.3       23 UNK        -0.2404 
     17 C17         1.3671  -19.7460  -48.0215 C.3       23 UNK        -0.0398 
     18 CA          0.3341  -20.6710  -47.3456 C.3       11 UNK         0.1400 
     19 N          -0.6811  -19.8999  -46.6288 N.am      11 UNK        -0.5000 
     20 C          -1.6085  -20.4242  -45.8182 C.2       10 UNK         0.5000 
     21 O          -1.7089  -21.6253  -45.5772 O.2       10 UNK        -0.5000 
     22 CA         -2.6149  -19.4448  -45.1997 C.3       10 UNK         0.1400 
     23 CB         -2.0079  -18.7452  -43.9752 C.3       10 UNK        -0.1800 
     24 N          -3.0723  -18.4507  -46.1686 N.am      10 UNK        -0.5000 
     25 C          -3.8850  -18.7228  -47.1987 C.2       9 UNK         0.5000 
     26 O          -4.3725  -19.8310  -47.4265 O.2       9 UNK        -0.5000 
     27 CA         -4.1644  -17.5645  -48.1680 C.3       9 UNK         0.1400 
     28 CB         -5.2703  -16.6457  -47.6306 C.3       9 UNK        -0.1800 
     29 N          -2.9685  -16.7831  -48.4777 N.am      9 UNK        -0.5000 
     30 C          -1.9220  -17.2587  -49.1699 C.2       8 UNK         0.5000 
     31 O          -1.8579  -18.4072  -49.6057 O.2       8 UNK        -0.5000 
     32 CA         -0.7262  -16.3095  -49.3634 C.3       8 UNK         0.1400 
     33 CB         -0.9388  -15.4142  -50.5924 C.3       8 UNK        -0.1800 
     34 N          -0.4657  -15.4537  -48.2076 N.am      8 UNK        -0.5000 
     35 C          -0.2250  -15.8737  -46.9599 C.2       7 UNK         0.5000 
     36 O          -0.2316  -17.0590  -46.6222 O.2       7 UNK        -0.5000 
     37 CA          0.0595  -14.7934  -45.8993 C.3       7 UNK         0.1400 
     38 CB          0.1290  -13.3508  -46.4482 C.3       7 UNK        -0.1800 
     39 N          -0.8792  -14.8682  -44.7768 N.am      7 UNK        -0.5000 
     40 C          -2.2181  -14.7950  -44.8427 C.2       6 UNK         0.5000 
     41 O          -2.8348  -14.6858  -45.9043 O.2       6 UNK        -0.5000 
     42 CA         -3.0101  -14.8683  -43.5170 C.3       6 UNK         0.1400 
     43 CB         -4.3787  -15.5495  -43.7040 C.3       6 UNK        -0.1800 
     44 N          -2.2871  -15.5482  -42.4374 N.am      6 UNK        -0.5000 
     45 C          -1.4055  -14.9735  -41.6102 C.2       5 UNK         0.5000 
     46 O          -1.0954  -13.7826  -41.6823 O.2       5 UNK        -0.5000 
     47 CA         -0.7661  -15.8725  -40.5323 C.3       5 UNK         0.1400 
     48 CB         -0.6674  -17.3540  -40.9481 C.3       5 UNK        -0.1800 
     49 N           0.5772  -15.3842  -40.2457 N.am      5 UNK        -0.5000 
     50 C           1.0528  -15.0259  -39.0471 C.2       4 UNK         0.5000 
     51 O           0.4106  -15.1210  -38.0001 O.2       4 UNK        -0.5000 
     52 CA          2.4953  -14.4752  -38.9984 C.3       4 UNK         0.1400 
     53 CB          3.4531  -15.5297  -38.4219 C.3       4 UNK        -0.1800 
     54 N           2.9966  -14.0552  -40.3088 N.am      4 UNK        -0.5000 
     55 C           2.5991  -12.9579  -40.9670 C.2       3 UNK         0.5000 
     56 O           1.8634  -12.1005  -40.4774 O.2       3 UNK        -0.5000 
     57 CA          3.0898  -12.7945  -42.4207 C.3       3 UNK         0.1400 
     58 CB          4.2017  -11.7367  -42.4965 C.3       3 UNK        -0.1800 
     59 N           3.5702  -14.0290  -43.0537 N.am      3 UNK        -0.5000 
     60 C           2.8441  -15.1252  -43.3072 C.2       2 UNK         0.5000 
     61 O           1.6663  -15.2494  -42.9676 O.2       2 UNK        -0.5000 
     62 CA          3.5538  -16.2533  -44.0883 C.3       2 UNK         0.1400 
     63 CB          2.6658  -17.4998  -44.2638 C.3       2 UNK        -0.1800 
     64 N           4.0113  -15.8079  -45.4089 N.am      2 UNK        -0.5000 
     65 C           5.0832  -15.0412  -45.6483 C.2       1 UNK         0.5000 
     66 O           5.8195  -14.6250  -44.7493 O.2       1 UNK        -0.5000 
     67 C          -0.2926  -21.6678  -48.3423 C.2       11 UNK         0.5000 
     68 O           0.0884  -22.8372  -48.3442 O.2       11 UNK        -0.5000 
     69 N          -1.2751  -21.2121  -49.1322 N.am      12 UNK        -0.5000 
     70 CA         -2.0148  -22.0460  -50.0806 C.3       12 UNK         0.1400 
     71 CB         -2.8834  -21.1467  -50.9668 C.3       12 UNK        -0.1800 
     72 C          -2.8622  -23.1383  -49.3973 C.2       12 UNK         0.5000 
     73 O          -2.9652  -24.2486  -49.9259 O.2       12 UNK        -0.5000 
     74 N          -3.4220  -22.8201  -48.2205 N.am      13 UNK        -0.5000 
     75 CA         -4.1382  -23.7699  -47.3711 C.3       13 UNK         0.1400 
     76 CB         -4.9213  -23.0171  -46.2852 C.3       13 UNK        -0.1800 
     77 C          -3.1924  -24.8150  -46.7512 C.2       13 UNK         0.5000 
     78 O          -3.5056  -26.0044  -46.7844 O.2       13 UNK        -0.5000 
     79 N          -2.0362  -24.3669  -46.2397 N.am      14 UNK        -0.5000 
     80 CA         -0.9784  -25.2124  -45.6762 C.3       14 UNK         0.1400 
     81 CB          0.0845  -24.3287  -45.0063 C.3       14 UNK        -0.1800 
     82 C          -0.3314  -26.1459  -46.7170 C.2       14 UNK         0.5000 
     83 O          -0.0068  -27.2884  -46.3920 O.2       14 UNK        -0.5000 
     84 N          -0.2023  -25.6606  -47.9592 N.am      15 UNK        -0.5000 
     85 CA          0.2273  -26.4260  -49.1320 C.3       15 UNK         0.1400 
     86 CB          0.5971  -25.4439  -50.2554 C.3       15 UNK        -0.1800 
     87 C          -0.8262  -27.4393  -49.6298 C.2       15 UNK         0.5000 
     88 O          -0.5055  -28.2578  -50.4925 O.2       15 UNK        -0.5000 
     89 N          -2.0525  -27.3650  -49.0897 N.am      16 UNK        -0.5000 
     90 CA         -3.2199  -28.1965  -49.3891 C.3       16 UNK         0.1400 
     91 CB         -2.9639  -29.6707  -49.0108 C.3       16 UNK        -0.1800 
     92 C          -3.7430  -28.0174  -50.8280 C.2       16 UNK         0.5000 
     93 O          -4.2982  -28.9584  -51.3988 O.2       16 UNK        -0.5000 
     94 N          -3.5773  -26.8092  -51.3849 N.am      17 UNK        -0.5000 
     95 CA         -4.1477  -26.4205  -52.6721 C.3       17 UNK         0.1400 
     96 CB         -3.3308  -25.2627  -53.2725 C.3       17 UNK        -0.1800 
     97 C          -5.6285  -26.0533  -52.4830 C.2       17 UNK         0.5000 
     98 O          -6.5033  -26.7481  -53.0004 O.2       17 UNK        -0.5000 
     99 N          -5.8577  -24.9977  -51.6954 N.am      18 UNK        -0.5000 
    100 CA        -7.1285  -24.4248  -51.2561 C.3       18 UNK         0.1400 
    101 CB        -8.1034  -24.1705  -52.4268 C.3       18 UNK        -0.1800 
    102 C         -6.7966  -23.0944  -50.5682 C.2       18 UNK         0.5000 
    103 O         -5.7422  -22.5145  -50.8406 O.2       18 UNK        -0.5000 
    104 N         -7.7022  -22.6067  -49.7133 N.am      19 UNK        -0.5000 
    105 CA        -7.5964  -21.2866  -49.0925 C.3       19 UNK         0.1400 
    106 CB        -8.7051  -21.1209  -48.0419 C.3       19 UNK        -0.1800 
    107 C         -7.6568  -20.1800  -50.1627 C.2       19 UNK         0.5000 
    108 O         -8.6908  -20.0199  -50.8142 O.2       19 UNK        -0.5000 
    109 N         -6.5287  -19.4807  -50.3398 N.am      20 UNK        -0.5000 
    110 CA        -6.2860  -18.4401  -51.3444 C.3       20 UNK         0.1400 
    111 CB        -7.2024  -17.2190  -51.1197 C.3       20 UNK        -0.1800 
    112 C         -6.3045  -18.9632  -52.7959 C.2       20 UNK         0.5000 
    113 O         -6.7447  -18.2492  -53.7002 O.2       20 UNK        -0.5000 
    114 N         -5.7538  -20.1707  -53.0137 N.am      21 UNK        -0.5000 
    115 CA        -5.5412  -20.7708  -54.3423 C.3       21 UNK         0.1400 
    116 CB        -4.9517  -22.1810  -54.1910 C.3       21 UNK        -0.1800 
    117 C         -4.6406  -19.9353  -55.2795 C.2       21 UNK         0.5000 
    118 O         -4.6982  -20.1185  -56.4961 O.2       21 UNK        -0.5000 
    119 N         -3.8476  -19.0249  -54.6986 N.am      22 UNK        -0.5000 
    120 CA        -3.0643  -17.9882  -55.3877 C.3       22 UNK         0.1400 
    121 C         -3.9136  -16.9902  -56.2336 C.2       22 UNK         0.5000 
    122 N         -5.2080  -16.8296  -55.9765 N.am      22 UNK        -0.7600 
    123 O         -3.3840  -16.3472  -57.1356 O.2       22 UNK        -0.5000 
    124 C124       -2.1821  -17.1873  -54.3939 C.3       23 UNK        -0.0398 
    125 S125       -1.1422  -18.2251  -53.3071 S.3       23 UNK        -0.2404 
    126 C126        0.5339  -17.6146  -53.6833 C.3       23 UNK        -0.0205 
    127 H127        5.1121  -11.3401  -47.3051 H         1 UNK         0.0600 
    128 H128        6.1323  -10.8490  -45.9564 H         1 UNK         0.0600 
    129 H129        5.0601  -12.2220  -45.7712 H         1 UNK         0.0600 
    130 H130        7.3986  -14.4423  -47.6037 H         1 UNK         0.3000 
    131 H131        5.6317  -15.6470  -47.5980 H         1 UNK         0.0600 
    132 H132        3.5881  -13.4146  -47.2688 H         1 UNK         0.0800 
    133 H133        4.4981  -13.5076  -48.7475 H         1 UNK         0.0800 
    134 H134        3.4849  -14.7178  -50.8003 H         1 UNK         0.0800 
    135 H135        4.7399  -15.7759  -50.1884 H         1 UNK         0.0800 
    136 H136        1.9026  -15.6844  -52.3192 H         1 UNK         0.1150 
    137 H137        1.2451  -19.9198  -52.4099 H         1 UNK         0.1150 
    138 H138        3.9567  -18.2192  -49.5535 H         1 UNK         0.1150 
    139 H139        2.0234  -21.2832  -50.6054 H         1 UNK         0.0800 
    140 H140        3.7524  -21.0344  -50.6984 H         1 UNK         0.0800 
    141 H141        0.9239  -19.2410  -48.8804 H         1 UNK         0.0800 
    142 H142        1.6529  -18.9496  -47.3327 H         1 UNK         0.0800 
    143 H143        0.8592  -21.2588  -46.5895 H         1 UNK         0.0600 
    144 H144       -0.6449  -18.8890  -46.7359 H         1 UNK         0.3000 
    145 H145       -3.4778  -20.0249  -44.8654 H         1 UNK         0.0600 
    146 H146       -1.5711  -19.4704  -43.2871 H         1 UNK         0.0600 
    147 H147       -1.2214  -18.0427  -44.2536 H         1 UNK         0.0600 
    148 H148       -2.7718  -18.2032  -43.4217 H         1 UNK         0.0600 
    149 H149       -2.6615  -17.5298  -46.1113 H         1 UNK         0.3000 
    150 H150       -4.5148  -18.0044  -49.0985 H         1 UNK         0.0600 
    151 H151       -5.5113  -15.8590  -48.3455 H         1 UNK         0.0600 
    152 H152       -4.9807  -16.1693  -46.6941 H         1 UNK         0.0600 
    153 H153       -6.1866  -17.2074  -47.4439 H         1 UNK         0.0600 
    154 H154       -2.9186  -15.8475  -48.0960 H         1 UNK         0.3000 
    155 H155        0.1615  -16.9229  -49.5307 H         1 UNK         0.0600 
    156 H156       -1.1280  -16.0095  -51.4839 H         1 UNK         0.0600 
    157 H157       -0.0572  -14.8050  -50.7925 H         1 UNK         0.0600 
    158 H158       -1.7890  -14.7438  -50.4615 H         1 UNK         0.0600 
    159 H159       -0.4529  -14.4602  -48.3834 H         1 UNK         0.3000 
    160 H160        1.0454  -15.0312  -45.5080 H         1 UNK         0.0600 
    161 H161        0.8848  -13.2586  -47.2292 H         1 UNK         0.0600 
    162 H162        0.4047  -12.6520  -45.6582 H         1 UNK         0.0600 
    163 H163       -0.8246  -13.0193  -46.8608 H         1 UNK         0.0600 
    164 H164       -0.4487  -14.9786  -43.8672 H         1 UNK         0.3000 
    165 H165       -3.2008  -13.8367  -43.2140 H         1 UNK         0.0600 
    166 H166       -4.9199  -15.6171  -42.7602 H         1 UNK         0.0600 
    167 H167       -5.0071  -14.9815  -44.3911 H         1 UNK         0.0600 
    168 H168       -4.2822  -16.5562  -44.1099 H         1 UNK         0.0600 
    169 H169       -2.4779  -16.5321  -42.3236 H         1 UNK         0.3000 
    170 H170       -1.3978  -15.7998  -39.6450 H         1 UNK         0.0600 
    171 H171       -0.1357  -17.9351  -40.1943 H         1 UNK         0.0600 
    172 H172       -1.6527  -17.8076  -41.0564 H         1 UNK         0.0600 
    173 H173       -0.1321  -17.4718  -41.8916 H         1 UNK         0.0600 
    174 H174        1.1448  -15.2115  -41.0697 H         1 UNK         0.3000 
    175 H175        2.4955  -13.6100  -38.3321 H         1 UNK         0.0600 
    176 H176        3.4968  -16.4199  -39.0507 H         1 UNK         0.0600 
    177 H177        4.4646  -15.1345  -38.3264 H         1 UNK         0.0600 
    178 H178        3.1343  -15.8457  -37.4277 H         1 UNK         0.0600 
    179 H179        3.6174  -14.6939  -40.7829 H         1 UNK         0.3000 
    180 H180        2.2382  -12.4385  -43.0043 H         1 UNK         0.0600 
    181 H181        4.4765  -11.5248  -43.5293 H         1 UNK         0.0600 
    182 H182        5.0998  -12.0606  -41.9691 H         1 UNK         0.0600 
    183 H183        3.8797  -10.7949  -42.0500 H         1 UNK         0.0600 
    184 H184        4.5255  -14.0203  -43.3986 H         1 UNK         0.3000 
    185 H185        4.4239  -16.5516  -43.4998 H         1 UNK         0.0600 
    186 H186        1.7711  -17.2850  -44.8471 H         1 UNK         0.0600 
    187 H187        3.2060  -18.3020  -44.7670 H         1 UNK         0.0600 
    188 H188        2.3391  -17.8869  -43.2978 H         1 UNK         0.0600 
    189 H189        3.4505  -16.1017  -46.1972 H         1 UNK         0.3000 
    190 H190       -1.5216  -20.2256  -49.1111 H         1 UNK         0.3000 
    191 H191       -1.2877  -22.5480  -50.7217 H         1 UNK         0.0600 
    192 H192       -3.6233  -20.5996  -50.3820 H         1 UNK         0.0600 
    193 H193       -3.4146  -21.7413  -51.7062 H         1 UNK         0.0600 
    194 H194       -2.2772  -20.4211  -51.5084 H         1 UNK         0.0600 
    195 H195       -3.3153  -21.8789  -47.8655 H         1 UNK         0.3000 
    196 H196       -4.8598  -24.3016  -47.9954 H         1 UNK         0.0600 
    197 H197       -5.4773  -23.7114  -45.6541 H         1 UNK         0.0600 
    198 H198       -5.6432  -22.3294  -46.7239 H         1 UNK         0.0600 
    199 H199       -4.2639  -22.4388  -45.6365 H         1 UNK         0.0600 
    200 H200       -1.8748  -23.3628  -46.2033 H         1 UNK         0.3000 
    201 H201       -1.4315  -25.8407  -44.9068 H         1 UNK         0.0600 
    202 H202       -0.3511  -23.7221  -44.2121 H         1 UNK         0.0600 
    203 H203        0.5557  -23.6544  -45.7217 H         1 UNK         0.0600 
    204 H204        0.8720  -24.9354  -44.5578 H         1 UNK         0.0600 
    205 H205       -0.4030  -24.6760  -48.1149 H         1 UNK         0.3000 
    206 H206        1.1216  -26.9913  -48.8627 H         1 UNK         0.0600 
    207 H207        1.3816  -24.7569  -49.9375 H         1 UNK         0.0600 
    208 H208        0.9666  -25.9725  -51.1349 H         1 UNK         0.0600 
    209 H209       -0.2628  -24.8503  -50.5668 H         1 UNK         0.0600 
    210 H210       -2.2132  -26.6521  -48.3889 H         1 UNK         0.3000 
    211 H211       -4.0182  -27.8325  -48.7415 H         1 UNK         0.0600 
    212 H212       -2.2318  -30.1388  -49.6692 H         1 UNK         0.0600 
    213 H213       -3.8817  -30.2561  -49.0761 H         1 UNK         0.0600 
    214 H214       -2.5990  -29.7564  -47.9872 H         1 UNK         0.0600 
    215 H215       -3.1544  -26.0696  -50.8325 H         1 UNK         0.3000 
    216 H216       -4.0898  -27.2627  -53.3651 H         1 UNK         0.0600 
    217 H217       -3.7431  -24.9558  -54.2342 H         1 UNK         0.0600 
    218 H218       -2.2971  -25.5632  -53.4441 H         1 UNK         0.0600 
    219 H219       -3.3155  -24.3857  -52.6251 H         1 UNK         0.0600 
    220 H220       -5.0600  -24.4857  -51.3342 H         1 UNK         0.3000 
    221 H221       -7.5832  -25.0989  -50.5284 H         1 UNK         0.0600 
    222 H222       -7.6403  -23.5946  -53.2273 H         1 UNK         0.0600 
    223 H223       -8.4733  -25.1014  -52.8545 H         1 UNK         0.0600 
    224 H224       -8.9804  -23.6137  -52.0943 H         1 UNK         0.0600 
    225 H225       -8.5627  -23.1113  -49.5591 H         1 UNK         0.3000 
    226 H226       -6.6348  -21.2287  -48.5782 H         1 UNK         0.0600 
    227 H227       -8.6196  -21.8734  -47.2577 H         1 UNK         0.0600 
    228 H228       -8.6421  -20.1434  -47.5623 H         1 UNK         0.0600 
    229 H229       -9.6983  -21.2070  -48.4844 H         1 UNK         0.0600 
    230 H230       -5.7322  -19.7416  -49.7752 H         1 UNK         0.3000 
    231 H231       -5.2618  -18.1004  -51.1919 H         1 UNK         0.0600 
    232 H232       -8.2443  -17.4442  -51.3485 H         1 UNK         0.0600 
    233 H233       -7.1532  -16.8720  -50.0879 H         1 UNK         0.0600 
    234 H234       -6.9038  -16.3846  -51.7554 H         1 UNK         0.0600 
    235 H235       -5.4710  -20.7293  -52.2176 H         1 UNK         0.3000 
    236 H236       -6.5205  -20.8578  -54.8169 H         1 UNK         0.0600 
    237 H237       -3.9132  -22.1519  -53.8630 H         1 UNK         0.0600 
    238 H238       -5.5136  -22.7807  -53.4796 H         1 UNK         0.0600 
    239 H239       -4.9710  -22.7106  -55.1442 H         1 UNK         0.0600 
    240 H240       -3.8363  -18.9818  -53.6916 H         1 UNK         0.3000 
    241 H241       -2.4021  -18.5043  -56.0850 H         1 UNK         0.0600 
    242 H242       -5.7446  -16.1823  -56.5320 H         1 UNK         0.3800 
    243 H243       -5.6653  -17.3500  -55.2362 H         1 UNK         0.3800 
    244 H244       -1.5499  -16.4889  -54.9443 H         1 UNK         0.0800 
    245 H245       -2.8094  -16.5721  -53.7461 H         1 UNK         0.0800 
    246 H246        0.4880  -16.5617  -53.9642 H         1 UNK         0.0800 
    247 H247        0.9255  -18.1499  -54.5491 H         1 UNK         0.0800 
@<TRIPOS>BOND
     1    1    2 1    
     2    1  127 1    
     3    1  128 1    
     4    1  129 1    
     5    2    3 2    
     6    2    4 am   BACKBONE|DICT|INTERRES
     7    4    5 1    
     8    4  130 1    
     9    5    6 1    
    10    5   65 1    
    11    5  131 1    
    12    6    7 1    
    13    6  132 1    
    14    6  133 1    
    15    7    8 1    
    16    8    9 1    
    17    8  134 1    
    18    8  135 1    
    19    9   10 ar   
    20    9   14 ar   
    21   10   11 ar   
    22   10  136 1    
    23   11   12 ar   
    24   11  126 1    
    25   12   13 ar   
    26   12  137 1    
    27   13   14 ar   
    28   13   15 1    
    29   14  138 1    
    30   15   16 1    
    31   15  139 1    
    32   15  140 1    
    33   16   17 1    
    34   17   18 1    
    35   17  141 1    
    36   17  142 1    
    37   18   19 1    
    38   18   67 1    
    39   18  143 1    
    40   19   20 am   BACKBONE|DICT|INTERRES
    41   19  144 1    
    42   20   21 2    
    43   20   22 1    
    44   22   23 1    
    45   22   24 1    
    46   22  145 1    
    47   23  146 1    
    48   23  147 1    
    49   23  148 1    
    50   24   25 am   BACKBONE|DICT|INTERRES
    51   24  149 1    
    52   25   26 2    
    53   25   27 1    
    54   27   28 1    
    55   27   29 1    
    56   27  150 1    
    57   28  151 1    
    58   28  152 1    
    59   28  153 1    
    60   29   30 am   BACKBONE|DICT|INTERRES
    61   29  154 1    
    62   30   31 2    
    63   30   32 1    
    64   32   33 1    
    65   32   34 1    
    66   32  155 1    
    67   33  156 1    
    68   33  157 1    
    69   33  158 1    
    70   34   35 am   BACKBONE|DICT|INTERRES
    71   34  159 1    
    72   35   36 2    
    73   35   37 1    
    74   37   38 1    
    75   37   39 1    
    76   37  160 1    
    77   38  161 1    
    78   38  162 1    
    79   38  163 1    
    80   39   40 am   BACKBONE|DICT|INTERRES
    81   39  164 1    
    82   40   41 2    
    83   40   42 1    
    84   42   43 1    
    85   42   44 1    
    86   42  165 1    
    87   43  166 1    
    88   43  167 1    
    89   43  168 1    
    90   44   45 am   BACKBONE|DICT|INTERRES
    91   44  169 1    
    92   45   46 2    
    93   45   47 1    
    94   47   48 1    
    95   47   49 1    
    96   47  170 1    
    97   48  171 1    
    98   48  172 1    
    99   48  173 1    
   100   49   50 am   BACKBONE|DICT|INTERRES
   101   49  174 1    
   102   50   51 2    
   103   50   52 1    
   104   52   53 1    
   105   52   54 1    
   106   52  175 1    
   107   53  176 1    
   108   53  177 1    
   109   53  178 1    
   110   54   55 am   BACKBONE|DICT|INTERRES
   111   54  179 1    
   112   55   56 2    
   113   55   57 1    
   114   57   58 1    
   115   57   59 1    
   116   57  180 1    
   117   58  181 1    
   118   58  182 1    
   119   58  183 1    
   120   59   60 am   BACKBONE|DICT|INTERRES
   121   59  184 1    
   122   60   61 2    
   123   60   62 1    
   124   62   63 1    
   125   62   64 1    
   126   62  185 1    
   127   63  186 1    
   128   63  187 1    
   129   63  188 1    
   130   64   65 am   BACKBONE|DICT|INTERRES
   131   64  189 1    
   132   65   66 2    
   133   67   68 2    
   134   67   69 am   BACKBONE|DICT|INTERRES
   135   69   70 1    
   136   69  190 1    
   137   70   71 1    
   138   70   72 1    
   139   70  191 1    
   140   71  192 1    
   141   71  193 1    
   142   71  194 1    
   143   72   73 2    
   144   72   74 am   BACKBONE|DICT|INTERRES
   145   74   75 1    
   146   74  195 1    
   147   75   76 1    
   148   75   77 1    
   149   75  196 1    
   150   76  197 1    
   151   76  198 1    
   152   76  199 1    
   153   77   78 2    
   154   77   79 am   BACKBONE|DICT|INTERRES
   155   79   80 1    
   156   79  200 1    
   157   80   81 1    
   158   80   82 1    
   159   80  201 1    
   160   81  202 1    
   161   81  203 1    
   162   81  204 1    
   163   82   83 2    
   164   82   84 am   BACKBONE|DICT|INTERRES
   165   84   85 1    
   166   84  205 1    
   167   85   86 1    
   168   85   87 1    
   169   85  206 1    
   170   86  207 1    
   171   86  208 1    
   172   86  209 1    
   173   87   88 2    
   174   87   89 am   BACKBONE|DICT|INTERRES
   175   89   90 1    
   176   89  210 1    
   177   90   91 1    
   178   90   92 1    
   179   90  211 1    
   180   91  212 1    
   181   91  213 1    
   182   91  214 1    
   183   92   93 2    
   184   92   94 am   BACKBONE|DICT|INTERRES
   185   94   95 1    
   186   94  215 1    
   187   95   96 1    
   188   95   97 1    
   189   95  216 1    
   190   96  217 1    
   191   96  218 1    
   192   96  219 1    
   193   97   98 2    
   194   97   99 am   BACKBONE|DICT|INTERRES
   195   99  100 1    
   196   99  220 1    
   197  100  101 1    
   198  100  102 1    
   199  100  221 1    
   200  101  222 1    
   201  101  223 1    
   202  101  224 1    
   203  102  103 2    
   204  102  104 am   BACKBONE|DICT|INTERRES
   205  104  105 1    
   206  104  225 1    
   207  105  106 1    
   208  105  107 1    
   209  105  226 1    
   210  106  227 1    
   211  106  228 1    
   212  106  229 1    
   213  107  108 2    
   214  107  109 am   BACKBONE|DICT|INTERRES
   215  109  110 1    
   216  109  230 1    
   217  110  111 1    
   218  110  112 1    
   219  110  231 1    
   220  111  232 1    
   221  111  233 1    
   222  111  234 1    
   223  112  113 2    
   224  112  114 am   BACKBONE|DICT|INTERRES
   225  114  115 1    
   226  114  235 1    
   227  115  116 1    
   228  115  117 1    
   229  115  236 1    
   230  116  237 1    
   231  116  238 1    
   232  116  239 1    
   233  117  118 2    
   234  117  119 am   BACKBONE|DICT|INTERRES
   235  119  120 1    
   236  119  240 1    
   237  120  121 1    
   238  120  124 1    
   239  120  241 1    
   240  121  122 am   BACKBONE|DICT|INTERRES
   241  121  123 2    
   242  122  242 1    
   243  122  243 1    
   244  124  125 1    
   245  124  244 1    
   246  124  245 1    
   247  125  126 1    
   248  126  246 1    
   249  126  247 1    
@<TRIPOS>SUBSTRUCTURE
     1 UNK         1 GROUP             0       ****    0 ROOT    
