@<TRIPOS>MOLECULE
3R540
247   249    1
SMALL
USER_CHARGES


@<TRIPOS>ATOM
      1 CA          2.0397  -10.7657  -46.9357 C.3       0 UNK        -0.1800 
      2 C           1.9842  -12.2834  -46.8479 C.2       0 UNK         0.5000 
      3 O           1.6295  -12.8207  -45.8008 O.2       0 UNK        -0.5000 
      4 N           2.3178  -12.9739  -47.9466 N.am      1 UNK        -0.5000 
      5 CA          2.3366  -14.4395  -48.0789 C.3       1 UNK         0.1400 
      6 C6          2.9084  -14.8875  -49.4496 C.3       23 UNK        -0.0398 
      7 S7          2.0722  -14.1180  -50.8859 S.3       23 UNK        -0.2404 
      8 C8          1.9475  -15.5036  -52.0619 C.3       23 UNK        -0.0205 
      9 C9          0.9821  -16.5870  -51.6024 C.ar      23 UNK        -0.0193 
     10 C10        -0.3825  -16.3080  -51.4722 C.ar      23 UNK        -0.1150 
     11 C11        -1.2761  -17.3078  -51.0780 C.ar      23 UNK        -0.0193 
     12 C12        -0.7949  -18.5913  -50.8124 C.ar      23 UNK        -0.1150 
     13 C13         0.5670  -18.8805  -50.9269 C.ar      23 UNK        -0.0193 
     14 C14         1.4505  -17.8761  -51.3294 C.ar      23 UNK        -0.1150 
     15 C15         1.0821  -20.2690  -50.5761 C.3       23 UNK        -0.0205 
     16 S16         1.9234  -20.3243  -48.9541 S.3       23 UNK        -0.2404 
     17 C17         0.8011  -19.3672  -47.8768 C.3       23 UNK        -0.0398 
     18 CA         -0.5022  -20.1158  -47.5372 C.3       11 UNK         0.1400 
     19 N          -0.2701  -21.3401  -46.7661 N.am      11 UNK        -0.5000 
     20 C          -1.2024  -22.2704  -46.5258 C.2       10 UNK         0.5000 
     21 O          -2.3601  -22.1866  -46.9312 O.2       10 UNK        -0.5000 
     22 CA         -0.7855  -23.4620  -45.6492 C.3       10 UNK         0.1400 
     23 CB          0.0635  -24.4576  -46.4529 C.3       10 UNK        -0.1800 
     24 N          -0.0536  -23.0288  -44.4583 N.am      10 UNK        -0.5000 
     25 C          -0.6103  -22.3469  -43.4467 C.2       9 UNK         0.5000 
     26 O          -1.8097  -22.0799  -43.3831 O.2       9 UNK        -0.5000 
     27 CA          0.3319  -21.8482  -42.3342 C.3       9 UNK         0.1400 
     28 CB          0.4688  -22.9074  -41.2305 C.3       9 UNK        -0.1800 
     29 N           1.6684  -21.4572  -42.7946 N.am      9 UNK        -0.5000 
     30 C           1.9297  -20.5200  -43.7149 C.2       8 UNK         0.5000 
     31 O           1.0603  -19.9132  -44.3419 O.2       8 UNK        -0.5000 
     32 CA          3.4113  -20.1747  -43.9297 C.3       8 UNK         0.1400 
     33 CB          3.6978  -19.6825  -45.3582 C.3       8 UNK        -0.1800 
     34 N           3.7906  -19.1249  -42.9932 N.am      8 UNK        -0.5000 
     35 C           4.1835  -19.3084  -41.7275 C.2       7 UNK         0.5000 
     36 O           4.3149  -20.4233  -41.2195 O.2       7 UNK        -0.5000 
     37 CA          4.4398  -18.0474  -40.8719 C.3       7 UNK         0.1400 
     38 CB          5.8013  -18.1037  -40.1495 C.3       7 UNK        -0.1800 
     39 N           4.2656  -16.7740  -41.5876 N.am      7 UNK        -0.5000 
     40 C           5.0208  -16.2578  -42.5718 C.2       6 UNK         0.5000 
     41 O           6.0274  -16.8070  -43.0192 O.2       6 UNK        -0.5000 
     42 CA          4.5603  -14.9249  -43.1986 C.3       6 UNK         0.1400 
     43 CB          4.0624  -15.1512  -44.6342 C.3       6 UNK        -0.1800 
     44 N           3.5037  -14.2551  -42.4382 N.am      6 UNK        -0.5000 
     45 C           3.7039  -13.5585  -41.3100 C.2       5 UNK         0.5000 
     46 O           4.8180  -13.3445  -40.8312 O.2       5 UNK        -0.5000 
     47 CA          2.4530  -13.0345  -40.5735 C.3       5 UNK         0.1400 
     48 CB          2.1828  -11.5712  -40.9563 C.3       5 UNK        -0.1800 
     49 N           1.2386  -13.8165  -40.8209 N.am      5 UNK        -0.5000 
     50 C           1.0698  -15.1196  -40.5519 C.2       4 UNK         0.5000 
     51 O           1.9301  -15.8220  -40.0216 O.2       4 UNK        -0.5000 
     52 CA         -0.2634  -15.7613  -40.9854 C.3       4 UNK         0.1400 
     53 CB         -1.1851  -15.9650  -39.7741 C.3       4 UNK        -0.1800 
     54 N          -0.9863  -15.0032  -42.0129 N.am      4 UNK        -0.5000 
     55 C          -0.5535  -14.7935  -43.2635 C.2       3 UNK         0.5000 
     56 O           0.5195  -15.2218  -43.6940 O.2       3 UNK        -0.5000 
     57 CA         -1.4523  -13.9062  -44.1376 C.3       3 UNK         0.1400 
     58 CB         -1.2227  -12.4236  -43.7997 C.3       3 UNK        -0.1800 
     59 N          -1.1547  -14.1123  -45.5519 N.am      3 UNK        -0.5000 
     60 C          -1.9717  -14.7061  -46.4320 C.2       2 UNK         0.5000 
     61 O          -3.0945  -15.1175  -46.1386 O.2       2 UNK        -0.5000 
     62 CA         -1.4957  -14.8392  -47.8946 C.3       2 UNK         0.1400 
     63 CB         -2.4023  -14.0207  -48.8282 C.3       2 UNK        -0.1800 
     64 N          -0.1171  -14.4068  -48.1125 N.am      2 UNK        -0.5000 
     65 C           0.9755  -15.1072  -47.7846 C.2       1 UNK         0.5000 
     66 O           0.9439  -16.2100  -47.2431 O.2       1 UNK        -0.5000 
     67 C          -1.5149  -19.1815  -46.8475 C.2       11 UNK         0.5000 
     68 O          -2.3925  -18.6409  -47.5213 O.2       11 UNK        -0.5000 
     69 N          -1.4325  -19.0898  -45.5131 N.am      12 UNK        -0.5000 
     70 CA         -2.3851  -18.3877  -44.6509 C.3       12 UNK         0.1400 
     71 CB         -1.8415  -18.3807  -43.2160 C.3       12 UNK        -0.1800 
     72 C          -3.8113  -18.9779  -44.6909 C.2       12 UNK         0.5000 
     73 O          -4.7724  -18.2576  -44.4229 O.2       12 UNK        -0.5000 
     74 N          -3.9266  -20.2621  -45.0543 N.am      13 UNK        -0.5000 
     75 CA         -5.1771  -20.9891  -45.2704 C.3       13 UNK         0.1400 
     76 CB         -5.0228  -22.4121  -44.7030 C.3       13 UNK        -0.1800 
     77 C          -5.5880  -21.0034  -46.7598 C.2       13 UNK         0.5000 
     78 O          -6.3146  -21.9068  -47.1754 O.2       13 UNK        -0.5000 
     79 N          -5.1106  -20.0199  -47.5404 N.am      14 UNK        -0.5000 
     80 CA         -5.3498  -19.8208  -48.9746 C.3       14 UNK         0.1400 
     81 CB         -6.8338  -19.5035  -49.2519 C.3       14 UNK        -0.1800 
     82 C          -4.8112  -20.9927  -49.8164 C.2       14 UNK         0.5000 
     83 O          -5.5474  -21.5961  -50.5993 O.2       14 UNK        -0.5000 
     84 N          -3.5322  -21.3223  -49.5848 N.am      15 UNK        -0.5000 
     85 CA         -2.7844  -22.4405  -50.1777 C.3       15 UNK         0.1400 
     86 CB         -2.6551  -22.2545  -51.7037 C.3       15 UNK        -0.1800 
     87 C          -3.3675  -23.8188  -49.7939 C.2       15 UNK         0.5000 
     88 O          -3.2582  -24.7706  -50.5657 O.2       15 UNK        -0.5000 
     89 N          -4.0036  -23.8771  -48.6143 N.am      16 UNK        -0.5000 
     90 CA         -4.7976  -24.9781  -48.0606 C.3       16 UNK         0.1400 
     91 CB         -3.8989  -26.1918  -47.7467 C.3       16 UNK        -0.1800 
     92 C          -6.0329  -25.3441  -48.9173 C.2       16 UNK         0.5000 
     93 O          -6.5475  -26.4568  -48.7894 O.2       16 UNK        -0.5000 
     94 N          -6.4867  -24.3944  -49.7528 N.am      17 UNK        -0.5000 
     95 CA         -7.5314  -24.4841  -50.7774 C.3       17 UNK         0.1400 
     96 CB         -8.8876  -24.8873  -50.1641 C.3       17 UNK        -0.1800 
     97 C          -7.1513  -25.3936  -51.9660 C.2       17 UNK         0.5000 
     98 O          -6.2404  -26.2183  -51.8735 O.2       17 UNK        -0.5000 
     99 N          -7.8624  -25.2054  -53.0867 N.am      18 UNK        -0.5000 
    100 CA        -7.8072  -25.9476  -54.3579 C.3       18 UNK         0.1400 
    101 CB        -8.1772  -27.4287  -54.1490 C.3       18 UNK        -0.1800 
    102 C         -6.4985  -25.8191  -55.1690 C.2       18 UNK         0.5000 
    103 O         -6.5612  -25.8299  -56.3990 O.2       18 UNK        -0.5000 
    104 N         -5.3479  -25.6961  -54.4947 N.am      19 UNK        -0.5000 
    105 CA        -4.0171  -25.5743  -55.0979 C.3       19 UNK         0.1400 
    106 CB        -2.9526  -25.7095  -53.9996 C.3       19 UNK        -0.1800 
    107 C         -3.8144  -24.2631  -55.8805 C.2       19 UNK         0.5000 
    108 O         -3.0802  -24.2578  -56.8691 O.2       19 UNK        -0.5000 
    109 N         -4.4796  -23.1892  -55.4261 N.am      20 UNK        -0.5000 
    110 CA        -4.5527  -21.8605  -56.0462 C.3       20 UNK         0.1400 
    111 CB        -5.3375  -21.9301  -57.3728 C.3       20 UNK        -0.1800 
    112 C         -3.1892  -21.1497  -56.1978 C.2       20 UNK         0.5000 
    113 O         -3.0140  -20.3434  -57.1147 O.2       20 UNK        -0.5000 
    114 N         -2.2556  -21.4199  -55.2708 N.am      21 UNK        -0.5000 
    115 CA        -0.9084  -20.8309  -55.2367 C.3       21 UNK         0.1400 
    116 CB        -0.0613  -21.5354  -54.1652 C.3       21 UNK        -0.1800 
    117 C         -0.8958  -19.3025  -55.0201 C.2       21 UNK         0.5000 
    118 O          0.1145  -18.6598  -55.3078 O.2       21 UNK        -0.5000 
    119 N         -2.0239  -18.7523  -54.5526 N.am      22 UNK        -0.5000 
    120 CA        -2.2960  -17.3124  -54.4522 C.3       22 UNK         0.1400 
    121 C         -2.3661  -16.5712  -55.8216 C.2       22 UNK         0.5000 
    122 N         -2.5440  -17.2586  -56.9455 N.am      22 UNK        -0.7600 
    123 O         -2.2611  -15.3486  -55.8628 O.2       22 UNK        -0.5000 
    124 C124       -3.5795  -17.0111  -53.6295 C.3       23 UNK        -0.0398 
    125 S125       -3.7686  -17.9752  -52.0884 S.3       23 UNK        -0.2404 
    126 C126       -2.7595  -17.0118  -50.9209 C.3       23 UNK        -0.0205 
    127 H127        2.3530  -10.4273  -47.9236 H         1 UNK         0.0600 
    128 H128        2.7441  -10.3743  -46.2018 H         1 UNK         0.0600 
    129 H129        1.0572  -10.3429  -46.7260 H         1 UNK         0.0600 
    130 H130        2.5801  -12.4696  -48.7821 H         1 UNK         0.3000 
    131 H131        3.0212  -14.8089  -47.3142 H         1 UNK         0.0600 
    132 H132        3.9642  -14.6193  -49.5036 H         1 UNK         0.0800 
    133 H133        2.8818  -15.9751  -49.5362 H         1 UNK         0.0800 
    134 H134        2.9432  -15.9143  -52.2366 H         1 UNK         0.0800 
    135 H135        1.6054  -15.1169  -53.0228 H         1 UNK         0.0800 
    136 H136       -0.7448  -15.3116  -51.6823 H         1 UNK         0.1150 
    137 H137       -1.4886  -19.3598  -50.5050 H         1 UNK         0.1150 
    138 H138        2.5044  -18.0992  -51.4182 H         1 UNK         0.1150 
    139 H139        0.2644  -20.9908  -50.5766 H         1 UNK         0.0800 
    140 H140        1.7777  -20.6029  -51.3472 H         1 UNK         0.0800 
    141 H141        0.5827  -18.4182  -48.3634 H         1 UNK         0.0800 
    142 H142        1.3342  -19.1047  -46.9637 H         1 UNK         0.0800 
    143 H143       -0.9597  -20.4205  -48.4780 H         1 UNK         0.0600 
    144 H144        0.6466  -21.4460  -46.3584 H         1 UNK         0.3000 
    145 H145       -1.6955  -23.9739  -45.3282 H         1 UNK         0.0600 
    146 H146        1.0032  -24.0151  -46.7859 H         1 UNK         0.0600 
    147 H147        0.3002  -25.3409  -45.8595 H         1 UNK         0.0600 
    148 H148       -0.4724  -24.7978  -47.3403 H         1 UNK         0.0600 
    149 H149        0.9382  -23.2132  -44.4297 H         1 UNK         0.3000 
    150 H150       -0.1288  -20.9612  -41.8951 H         1 UNK         0.0600 
    151 H151       -0.5092  -23.2018  -40.8474 H         1 UNK         0.0600 
    152 H152        1.0450  -22.5264  -40.3871 H         1 UNK         0.0600 
    153 H153        0.9633  -23.8081  -41.5964 H         1 UNK         0.0600 
    154 H154        2.4484  -21.8657  -42.2979 H         1 UNK         0.3000 
    155 H155        4.0117  -21.0699  -43.7539 H         1 UNK         0.0600 
    156 H156        3.3732  -20.4151  -46.0979 H         1 UNK         0.0600 
    157 H157        4.7653  -19.5211  -45.5086 H         1 UNK         0.0600 
    158 H158        3.1893  -18.7418  -45.5733 H         1 UNK         0.0600 
    159 H159        3.6776  -18.1764  -43.3165 H         1 UNK         0.3000 
    160 H160        3.6666  -18.0549  -40.1026 H         1 UNK         0.0600 
    161 H161        5.9603  -17.2153  -39.5383 H         1 UNK         0.0600 
    162 H162        6.6326  -18.1843  -40.8500 H         1 UNK         0.0600 
    163 H163        5.8545  -18.9668  -39.4849 H         1 UNK         0.0600 
    164 H164        3.4620  -16.2367  -41.2791 H         1 UNK         0.3000 
    165 H165        5.4328  -14.2697  -43.2428 H         1 UNK         0.0600 
    166 H166        3.1511  -15.7507  -44.6591 H         1 UNK         0.0600 
    167 H167        3.8515  -14.2000  -45.1210 H         1 UNK         0.0600 
    168 H168        4.8115  -15.6633  -45.2394 H         1 UNK         0.0600 
    169 H169        2.5569  -14.3815  -42.7747 H         1 UNK         0.3000 
    170 H170        2.6622  -13.0789  -39.5028 H         1 UNK         0.0600 
    171 H171        1.9372  -11.4720  -42.0147 H         1 UNK         0.0600 
    172 H172        1.3561  -11.1573  -40.3786 H         1 UNK         0.0600 
    173 H173        3.0567  -10.9480  -40.7621 H         1 UNK         0.0600 
    174 H174        0.4744  -13.3266  -41.2606 H         1 UNK         0.3000 
    175 H175       -0.0203  -16.7424  -41.3960 H         1 UNK         0.0600 
    176 H176       -1.4809  -15.0142  -39.3290 H         1 UNK         0.0600 
    177 H177       -2.0911  -16.5030  -40.0538 H         1 UNK         0.0600 
    178 H178       -0.6889  -16.5503  -38.9987 H         1 UNK         0.0600 
    179 H179       -1.8699  -14.6046  -41.7290 H         1 UNK         0.3000 
    180 H180       -2.4934  -14.1538  -43.9210 H         1 UNK         0.0600 
    181 H181       -0.1798  -12.1339  -43.9335 H         1 UNK         0.0600 
    182 H182       -1.4921  -12.2079  -42.7652 H         1 UNK         0.0600 
    183 H183       -1.8313  -11.7776  -44.4327 H         1 UNK         0.0600 
    184 H184       -0.2133  -13.8614  -45.8352 H         1 UNK         0.3000 
    185 H185       -1.5749  -15.8930  -48.1711 H         1 UNK         0.0600 
    186 H186       -2.0653  -14.0801  -49.8628 H         1 UNK         0.0600 
    187 H187       -3.4288  -14.3884  -48.7982 H         1 UNK         0.0600 
    188 H188       -2.4218  -12.9674  -48.5455 H         1 UNK         0.0600 
    189 H189        0.0117  -13.5008  -48.5385 H         1 UNK         0.3000 
    190 H190       -0.6417  -19.5313  -45.0489 H         1 UNK         0.3000 
    191 H191       -2.4421  -17.3564  -44.9975 H         1 UNK         0.0600 
    192 H192       -1.8292  -19.3819  -42.7860 H         1 UNK         0.0600 
    193 H193       -0.8236  -17.9927  -43.1883 H         1 UNK         0.0600 
    194 H194       -2.4531  -17.7510  -42.5689 H         1 UNK         0.0600 
    195 H195       -3.0820  -20.7800  -45.2604 H         1 UNK         0.3000 
    196 H196       -5.9857  -20.4999  -44.7240 H         1 UNK         0.0600 
    197 H197       -4.7330  -22.3861  -43.6523 H         1 UNK         0.0600 
    198 H198       -4.2660  -22.9828  -45.2411 H         1 UNK         0.0600 
    199 H199       -5.9596  -22.9669  -44.7650 H         1 UNK         0.0600 
    200 H200       -4.4667  -19.3607  -47.1208 H         1 UNK         0.3000 
    201 H201       -4.7698  -18.9435  -49.2622 H         1 UNK         0.0600 
    202 H202       -6.9846  -19.2477  -50.3013 H         1 UNK         0.0600 
    203 H203       -7.1722  -18.6541  -48.6588 H         1 UNK         0.0600 
    204 H204       -7.4825  -20.3505  -49.0268 H         1 UNK         0.0600 
    205 H205       -3.0572  -20.8224  -48.8464 H         1 UNK         0.3000 
    206 H206       -1.7815  -22.4027  -49.7511 H         1 UNK         0.0600 
    207 H207       -3.5970  -22.4498  -52.2171 H         1 UNK         0.0600 
    208 H208       -1.9115  -22.9376  -52.1149 H         1 UNK         0.0600 
    209 H209       -2.3489  -21.2385  -51.9509 H         1 UNK         0.0600 
    210 H210       -3.9628  -23.0441  -48.0390 H         1 UNK         0.3000 
    211 H211       -5.1933  -24.6105  -47.1130 H         1 UNK         0.0600 
    212 H212       -3.0424  -25.9009  -47.1384 H         1 UNK         0.0600 
    213 H213       -4.4475  -26.9521  -47.1899 H         1 UNK         0.0600 
    214 H214       -3.5224  -26.6614  -48.6559 H         1 UNK         0.0600 
    215 H215       -5.9763  -23.5186  -49.7675 H         1 UNK         0.3000 
    216 H216       -7.6316  -23.4715  -51.1713 H         1 UNK         0.0600 
    217 H217       -9.6937  -24.7780  -50.8902 H         1 UNK         0.0600 
    218 H218       -8.8938  -25.9256  -49.8317 H         1 UNK         0.0600 
    219 H219       -9.1362  -24.2586  -49.3089 H         1 UNK         0.0600 
    220 H220       -8.5595  -24.4737  -53.0702 H         1 UNK         0.3000 
    221 H221       -8.5885  -25.5069  -54.9792 H         1 UNK         0.0600 
    222 H222       -7.4347  -27.9537  -53.5475 H         1 UNK         0.0600 
    223 H223       -9.1426  -27.5279  -53.6527 H         1 UNK         0.0600 
    224 H224       -8.2483  -27.9506  -55.1042 H         1 UNK         0.0600 
    225 H225       -5.3955  -25.7699  -53.4815 H         1 UNK         0.3000 
    226 H226       -3.8910  -26.4010  -55.8000 H         1 UNK         0.0600 
    227 H227       -3.0404  -26.6630  -53.4785 H         1 UNK         0.0600 
    228 H228       -1.9468  -25.6579  -54.4186 H         1 UNK         0.0600 
    229 H229       -3.0412  -24.9156  -53.2583 H         1 UNK         0.0600 
    230 H230       -5.0468  -23.3175  -54.6003 H         1 UNK         0.3000 
    231 H231       -5.1316  -21.2413  -55.3596 H         1 UNK         0.0600 
    232 H232       -5.5345  -20.9325  -57.7669 H         1 UNK         0.0600 
    233 H233       -6.3023  -22.4185  -57.2347 H         1 UNK         0.0600 
    234 H234       -4.7899  -22.4818  -58.1375 H         1 UNK         0.0600 
    235 H235       -2.4753  -22.0951  -54.5545 H         1 UNK         0.3000 
    236 H236       -0.4484  -21.0223  -56.2084 H         1 UNK         0.0600 
    237 H237       -0.0994  -22.6197  -54.2714 H         1 UNK         0.0600 
    238 H238        0.9850  -21.2383  -54.2465 H         1 UNK         0.0600 
    239 H239       -0.3863  -21.2778  -53.1587 H         1 UNK         0.0600 
    240 H240       -2.7907  -19.3621  -54.3158 H         1 UNK         0.3000 
    241 H241       -1.4496  -16.8746  -53.9238 H         1 UNK         0.0600 
    242 H242       -2.5865  -16.7668  -57.8240 H         1 UNK         0.3800 
    243 H243       -2.6398  -18.2675  -56.9328 H         1 UNK         0.3800 
    244 H244       -3.6323  -15.9480  -53.3889 H         1 UNK         0.0800 
    245 H245       -4.4641  -17.2212  -54.2336 H         1 UNK         0.0800 
    246 H246       -2.9689  -15.9499  -51.0500 H         1 UNK         0.0800 
    247 H247       -3.0587  -17.2620  -49.9024 H         1 UNK         0.0800 
@<TRIPOS>BOND
     1    1    2 1    
     2    1  127 1    
     3    1  128 1    
     4    1  129 1    
     5    2    3 2    
     6    2    4 am   BACKBONE|DICT|INTERRES
     7    4    5 1    
     8    4  130 1    
     9    5    6 1    
    10    5   65 1    
    11    5  131 1    
    12    6    7 1    
    13    6  132 1    
    14    6  133 1    
    15    7    8 1    
    16    8    9 1    
    17    8  134 1    
    18    8  135 1    
    19    9   10 ar   
    20    9   14 ar   
    21   10   11 ar   
    22   10  136 1    
    23   11   12 ar   
    24   11  126 1    
    25   12   13 ar   
    26   12  137 1    
    27   13   14 ar   
    28   13   15 1    
    29   14  138 1    
    30   15   16 1    
    31   15  139 1    
    32   15  140 1    
    33   16   17 1    
    34   17   18 1    
    35   17  141 1    
    36   17  142 1    
    37   18   19 1    
    38   18   67 1    
    39   18  143 1    
    40   19   20 am   BACKBONE|DICT|INTERRES
    41   19  144 1    
    42   20   21 2    
    43   20   22 1    
    44   22   23 1    
    45   22   24 1    
    46   22  145 1    
    47   23  146 1    
    48   23  147 1    
    49   23  148 1    
    50   24   25 am   BACKBONE|DICT|INTERRES
    51   24  149 1    
    52   25   26 2    
    53   25   27 1    
    54   27   28 1    
    55   27   29 1    
    56   27  150 1    
    57   28  151 1    
    58   28  152 1    
    59   28  153 1    
    60   29   30 am   BACKBONE|DICT|INTERRES
    61   29  154 1    
    62   30   31 2    
    63   30   32 1    
    64   32   33 1    
    65   32   34 1    
    66   32  155 1    
    67   33  156 1    
    68   33  157 1    
    69   33  158 1    
    70   34   35 am   BACKBONE|DICT|INTERRES
    71   34  159 1    
    72   35   36 2    
    73   35   37 1    
    74   37   38 1    
    75   37   39 1    
    76   37  160 1    
    77   38  161 1    
    78   38  162 1    
    79   38  163 1    
    80   39   40 am   BACKBONE|DICT|INTERRES
    81   39  164 1    
    82   40   41 2    
    83   40   42 1    
    84   42   43 1    
    85   42   44 1    
    86   42  165 1    
    87   43  166 1    
    88   43  167 1    
    89   43  168 1    
    90   44   45 am   BACKBONE|DICT|INTERRES
    91   44  169 1    
    92   45   46 2    
    93   45   47 1    
    94   47   48 1    
    95   47   49 1    
    96   47  170 1    
    97   48  171 1    
    98   48  172 1    
    99   48  173 1    
   100   49   50 am   BACKBONE|DICT|INTERRES
   101   49  174 1    
   102   50   51 2    
   103   50   52 1    
   104   52   53 1    
   105   52   54 1    
   106   52  175 1    
   107   53  176 1    
   108   53  177 1    
   109   53  178 1    
   110   54   55 am   BACKBONE|DICT|INTERRES
   111   54  179 1    
   112   55   56 2    
   113   55   57 1    
   114   57   58 1    
   115   57   59 1    
   116   57  180 1    
   117   58  181 1    
   118   58  182 1    
   119   58  183 1    
   120   59   60 am   BACKBONE|DICT|INTERRES
   121   59  184 1    
   122   60   61 2    
   123   60   62 1    
   124   62   63 1    
   125   62   64 1    
   126   62  185 1    
   127   63  186 1    
   128   63  187 1    
   129   63  188 1    
   130   64   65 am   BACKBONE|DICT|INTERRES
   131   64  189 1    
   132   65   66 2    
   133   67   68 2    
   134   67   69 am   BACKBONE|DICT|INTERRES
   135   69   70 1    
   136   69  190 1    
   137   70   71 1    
   138   70   72 1    
   139   70  191 1    
   140   71  192 1    
   141   71  193 1    
   142   71  194 1    
   143   72   73 2    
   144   72   74 am   BACKBONE|DICT|INTERRES
   145   74   75 1    
   146   74  195 1    
   147   75   76 1    
   148   75   77 1    
   149   75  196 1    
   150   76  197 1    
   151   76  198 1    
   152   76  199 1    
   153   77   78 2    
   154   77   79 am   BACKBONE|DICT|INTERRES
   155   79   80 1    
   156   79  200 1    
   157   80   81 1    
   158   80   82 1    
   159   80  201 1    
   160   81  202 1    
   161   81  203 1    
   162   81  204 1    
   163   82   83 2    
   164   82   84 am   BACKBONE|DICT|INTERRES
   165   84   85 1    
   166   84  205 1    
   167   85   86 1    
   168   85   87 1    
   169   85  206 1    
   170   86  207 1    
   171   86  208 1    
   172   86  209 1    
   173   87   88 2    
   174   87   89 am   BACKBONE|DICT|INTERRES
   175   89   90 1    
   176   89  210 1    
   177   90   91 1    
   178   90   92 1    
   179   90  211 1    
   180   91  212 1    
   181   91  213 1    
   182   91  214 1    
   183   92   93 2    
   184   92   94 am   BACKBONE|DICT|INTERRES
   185   94   95 1    
   186   94  215 1    
   187   95   96 1    
   188   95   97 1    
   189   95  216 1    
   190   96  217 1    
   191   96  218 1    
   192   96  219 1    
   193   97   98 2    
   194   97   99 am   BACKBONE|DICT|INTERRES
   195   99  100 1    
   196   99  220 1    
   197  100  101 1    
   198  100  102 1    
   199  100  221 1    
   200  101  222 1    
   201  101  223 1    
   202  101  224 1    
   203  102  103 2    
   204  102  104 am   BACKBONE|DICT|INTERRES
   205  104  105 1    
   206  104  225 1    
   207  105  106 1    
   208  105  107 1    
   209  105  226 1    
   210  106  227 1    
   211  106  228 1    
   212  106  229 1    
   213  107  108 2    
   214  107  109 am   BACKBONE|DICT|INTERRES
   215  109  110 1    
   216  109  230 1    
   217  110  111 1    
   218  110  112 1    
   219  110  231 1    
   220  111  232 1    
   221  111  233 1    
   222  111  234 1    
   223  112  113 2    
   224  112  114 am   BACKBONE|DICT|INTERRES
   225  114  115 1    
   226  114  235 1    
   227  115  116 1    
   228  115  117 1    
   229  115  236 1    
   230  116  237 1    
   231  116  238 1    
   232  116  239 1    
   233  117  118 2    
   234  117  119 am   BACKBONE|DICT|INTERRES
   235  119  120 1    
   236  119  240 1    
   237  120  121 1    
   238  120  124 1    
   239  120  241 1    
   240  121  122 am   BACKBONE|DICT|INTERRES
   241  121  123 2    
   242  122  242 1    
   243  122  243 1    
   244  124  125 1    
   245  124  244 1    
   246  124  245 1    
   247  125  126 1    
   248  126  246 1    
   249  126  247 1    
@<TRIPOS>SUBSTRUCTURE
     1 UNK         1 GROUP             0       ****    0 ROOT    
