@<TRIPOS>MOLECULE
3R540
247   249    1
SMALL
USER_CHARGES


@<TRIPOS>ATOM
      1 CA          3.9644  -10.7020  -52.8260 C.3       0 UNK        -0.1800 
      2 C           3.5455  -10.6600  -51.3630 C.2       0 UNK         0.5000 
      3 O           3.0356   -9.6390  -50.9001 O.2       0 UNK        -0.5000 
      4 N           3.7678  -11.7593  -50.6337 N.am      1 UNK        -0.5000 
      5 CA          3.3631  -11.9436  -49.2371 C.3       1 UNK         0.1400 
      6 C6          4.1276  -13.1118  -48.5603 C.3       23 UNK        -0.0398 
      7 S7          4.1122  -14.6813  -49.4950 S.3       23 UNK        -0.2404 
      8 C8          2.8835  -15.6409  -48.5623 C.3       23 UNK        -0.0205 
      9 C9          2.5413  -16.9242  -49.2985 C.ar      23 UNK        -0.0193 
     10 C10         1.5559  -16.9158  -50.2894 C.ar      23 UNK        -0.1150 
     11 C11         1.2305  -18.0872  -50.9780 C.ar      23 UNK        -0.0193 
     12 C12         1.8998  -19.2740  -50.6681 C.ar      23 UNK        -0.1150 
     13 C13         2.8915  -19.2941  -49.6812 C.ar      23 UNK        -0.0193 
     14 C14         3.2075  -18.1157  -48.9984 C.ar      23 UNK        -0.1150 
     15 C15         3.6254  -20.5889  -49.3584 C.3       23 UNK        -0.0205 
     16 S16         3.1022  -21.3011  -47.7660 S.3       23 UNK        -0.2404 
     17 C17         1.3007  -21.4155  -48.0096 C.3       23 UNK        -0.0398 
     18 CA          0.6384  -22.5602  -47.2131 C.3       11 UNK         0.1400 
     19 N           0.9024  -22.4819  -45.7756 N.am      11 UNK        -0.5000 
     20 C           0.5940  -23.4216  -44.8739 C.2       10 UNK         0.5000 
     21 O           0.0669  -24.4932  -45.1767 O.2       10 UNK        -0.5000 
     22 CA          0.8436  -23.0827  -43.3889 C.3       10 UNK         0.1400 
     23 CB          1.3321  -24.3000  -42.5780 C.3       10 UNK        -0.1800 
     24 N           1.7025  -21.9098  -43.1797 N.am      10 UNK        -0.5000 
     25 C           3.0119  -21.7806  -43.4463 C.2       9 UNK         0.5000 
     26 O           3.7150  -22.6946  -43.8776 O.2       9 UNK        -0.5000 
     27 CA          3.6502  -20.3928  -43.2169 C.3       9 UNK         0.1400 
     28 CB          4.0848  -19.7731  -44.5546 C.3       9 UNK        -0.1800 
     29 N           2.7698  -19.4429  -42.5342 N.am      9 UNK        -0.5000 
     30 C           2.4907  -19.4450  -41.2245 C.2       8 UNK         0.5000 
     31 O           2.9976  -20.2251  -40.4180 O.2       8 UNK        -0.5000 
     32 CA          1.4320  -18.4312  -40.7452 C.3       8 UNK         0.1400 
     33 CB          2.0785  -17.0720  -40.4396 C.3       8 UNK        -0.1800 
     34 N           0.3342  -18.2493  -41.7010 N.am      8 UNK        -0.5000 
     35 C          -0.5212  -19.2154  -42.0666 C.2       7 UNK         0.5000 
     36 O          -0.4878  -20.3618  -41.6200 O.2       7 UNK        -0.5000 
     37 CA         -1.5520  -18.8674  -43.1528 C.3       7 UNK         0.1400 
     38 CB         -2.7400  -18.0891  -42.5701 C.3       7 UNK        -0.1800 
     39 N          -0.9637  -18.1220  -44.2636 N.am      7 UNK        -0.5000 
     40 C          -0.0696  -18.6239  -45.1256 C.2       6 UNK         0.5000 
     41 O           0.2866  -19.8008  -45.1230 O.2       6 UNK        -0.5000 
     42 CA          0.5488  -17.6467  -46.1422 C.3       6 UNK         0.1400 
     43 CB         -0.3772  -17.4792  -47.3555 C.3       6 UNK        -0.1800 
     44 N           0.8375  -16.3378  -45.5531 N.am      6 UNK        -0.5000 
     45 C           1.7007  -16.1315  -44.5476 C.2       5 UNK         0.5000 
     46 O           2.3982  -17.0153  -44.0537 O.2       5 UNK        -0.5000 
     47 CA          1.7462  -14.7156  -43.9500 C.3       5 UNK         0.1400 
     48 CB          2.6871  -13.8036  -44.7499 C.3       5 UNK        -0.1800 
     49 N           0.4126  -14.1194  -43.8805 N.am      5 UNK        -0.5000 
     50 C          -0.5404  -14.5098  -43.0220 C.2       4 UNK         0.5000 
     51 O          -0.3694  -15.3723  -42.1603 O.2       4 UNK        -0.5000 
     52 CA         -1.9281  -13.8613  -43.1877 C.3       4 UNK         0.1400 
     53 CB         -1.9817  -12.5054  -42.4684 C.3       4 UNK        -0.1800 
     54 N          -2.2961  -13.6796  -44.5934 N.am      4 UNK        -0.5000 
     55 C          -2.5317  -14.6841  -45.4501 C.2       3 UNK         0.5000 
     56 O          -2.5380  -15.8680  -45.1191 O.2       3 UNK        -0.5000 
     57 CA         -2.7424  -14.3107  -46.9317 C.3       3 UNK         0.1400 
     58 CB         -4.2372  -14.1373  -47.2368 C.3       3 UNK        -0.1800 
     59 N          -2.0179  -13.1016  -47.3381 N.am      3 UNK        -0.5000 
     60 C          -0.6849  -12.9696  -47.3122 C.2       2 UNK         0.5000 
     61 O           0.0783  -13.8668  -46.9484 O.2       2 UNK        -0.5000 
     62 CA         -0.1353  -11.5749  -47.6627 C.3       2 UNK         0.1400 
     63 CB         -0.3568  -10.6125  -46.4837 C.3       2 UNK        -0.1800 
     64 N           1.2932  -11.5869  -47.9793 N.am      2 UNK        -0.5000 
     65 C           1.8285  -12.0796  -49.1031 C.2       1 UNK         0.5000 
     66 O           1.1676  -12.6022  -50.0051 O.2       1 UNK        -0.5000 
     67 C          -0.8735  -22.5605  -47.4948 C.2       11 UNK         0.5000 
     68 O          -1.3246  -23.2864  -48.3784 O.2       11 UNK        -0.5000 
     69 N          -1.6325  -21.7748  -46.7151 N.am      12 UNK        -0.5000 
     70 CA         -3.0919  -21.7023  -46.7998 C.3       12 UNK         0.1400 
     71 CB         -3.6062  -20.5460  -45.9304 C.3       12 UNK        -0.1800 
     72 C          -3.7806  -23.0220  -46.4112 C.2       12 UNK         0.5000 
     73 O          -4.8086  -23.3586  -46.9966 O.2       12 UNK        -0.5000 
     74 N          -3.1838  -23.7536  -45.4598 N.am      13 UNK        -0.5000 
     75 CA         -3.6219  -25.0843  -45.0443 C.3       13 UNK         0.1400 
     76 CB         -3.0359  -25.4122  -43.6622 C.3       13 UNK        -0.1800 
     77 C          -3.2364  -26.1569  -46.0774 C.2       13 UNK         0.5000 
     78 O          -4.0545  -27.0269  -46.3744 O.2       13 UNK        -0.5000 
     79 N          -2.0158  -26.0596  -46.6258 N.am      14 UNK        -0.5000 
     80 CA         -1.4897  -26.9554  -47.6587 C.3       14 UNK         0.1400 
     81 CB          0.0078  -26.6805  -47.8626 C.3       14 UNK        -0.1800 
     82 C          -2.2530  -26.8467  -48.9923 C.2       14 UNK         0.5000 
     83 O          -2.5846  -27.8721  -49.5884 O.2       14 UNK        -0.5000 
     84 N          -2.5426  -25.6099  -49.4203 N.am      15 UNK        -0.5000 
     85 CA         -3.3572  -25.3061  -50.5993 C.3       15 UNK         0.1400 
     86 CB         -3.1293  -23.8400  -51.0028 C.3       15 UNK        -0.1800 
     87 C          -4.8594  -25.5562  -50.3692 C.2       15 UNK         0.5000 
     88 O          -5.6001  -25.7114  -51.3405 O.2       15 UNK        -0.5000 
     89 N          -5.2826  -25.5467  -49.0970 N.am      16 UNK        -0.5000 
     90 CA         -6.6370  -25.6924  -48.5492 C.3       16 UNK         0.1400 
     91 CB         -7.2631  -27.0438  -48.9395 C.3       16 UNK        -0.1800 
     92 C          -7.5805  -24.5197  -48.8787 C.2       16 UNK         0.5000 
     93 O          -8.2904  -24.0413  -47.9935 O.2       16 UNK        -0.5000 
     94 N          -7.5580  -24.0517  -50.1306 N.am      17 UNK        -0.5000 
     95 CA         -8.3644  -22.9588  -50.6708 C.3       17 UNK         0.1400 
     96 CB         -8.4913  -23.1584  -52.1925 C.3       17 UNK        -0.1800 
     97 C          -7.8090  -21.5656  -50.3036 C.2       17 UNK         0.5000 
     98 O          -7.6803  -20.7106  -51.1784 O.2       17 UNK        -0.5000 
     99 N          -7.4703  -21.3577  -49.0229 N.am      18 UNK        -0.5000 
    100 CA        -7.0611  -20.0856  -48.4079 C.3       18 UNK         0.1400 
    101 CB        -8.2873  -19.1609  -48.2634 C.3       18 UNK        -0.1800 
    102 C         -5.8716  -19.3821  -49.1049 C.2       18 UNK         0.5000 
    103 O         -5.8298  -18.1525  -49.1615 O.2       18 UNK        -0.5000 
    104 N         -4.9349  -20.1861  -49.6303 N.am      19 UNK        -0.5000 
    105 CA        -3.7355  -19.7849  -50.3783 C.3       19 UNK         0.1400 
    106 CB        -2.7985  -18.9042  -49.5238 C.3       19 UNK        -0.1800 
    107 C         -4.0272  -19.1678  -51.7650 C.2       19 UNK         0.5000 
    108 O         -3.1602  -18.4910  -52.3214 O.2       19 UNK        -0.5000 
    109 N         -5.2042  -19.4587  -52.3448 N.am      20 UNK        -0.5000 
    110 CA        -5.6078  -19.0232  -53.6902 C.3       20 UNK         0.1400 
    111 CB        -7.0913  -19.3500  -53.9168 C.3       20 UNK        -0.1800 
    112 C         -4.7519  -19.6042  -54.8363 C.2       20 UNK         0.5000 
    113 O         -4.8341  -19.1066  -55.9598 O.2       20 UNK        -0.5000 
    114 N         -3.9187  -20.6116  -54.5354 N.am      21 UNK        -0.5000 
    115 CA        -2.9276  -21.2182  -55.4291 C.3       21 UNK         0.1400 
    116 CB        -2.2109  -22.3483  -54.6733 C.3       21 UNK        -0.1800 
    117 C         -1.9005  -20.2216  -56.0108 C.2       21 UNK         0.5000 
    118 O         -1.3641  -20.4756  -57.0901 O.2       21 UNK        -0.5000 
    119 N         -1.6701  -19.1003  -55.3130 N.am      22 UNK        -0.5000 
    120 CA        -0.9034  -17.9485  -55.8161 C.3       22 UNK         0.1400 
    121 C         -1.6449  -17.0969  -56.8929 C.2       22 UNK         0.5000 
    122 N         -2.9280  -17.3040  -57.1656 N.am      22 UNK        -0.7600 
    123 O         -1.0336  -16.2283  -57.5094 O.2       22 UNK        -0.5000 
    124 C124       -0.3995  -17.0499  -54.6584 C.3       23 UNK        -0.0398 
    125 S125        0.9410  -17.8304  -53.6984 S.3       23 UNK        -0.2404 
    126 C126        0.1710  -18.0599  -52.0677 C.3       23 UNK        -0.0205 
    127 H127        4.4087  -11.6613  -53.0929 H         1 UNK         0.0600 
    128 H128        3.0993  -10.5378  -53.4685 H         1 UNK         0.0600 
    129 H129        4.6958   -9.9200  -53.0301 H         1 UNK         0.0600 
    130 H130        4.1560  -12.5812  -51.0748 H         1 UNK         0.3000 
    131 H131        3.6469  -11.0327  -48.7049 H         1 UNK         0.0600 
    132 H132        3.7695  -13.2793  -47.5449 H         1 UNK         0.0800 
    133 H133        5.1736  -12.8239  -48.4466 H         1 UNK         0.0800 
    134 H134        1.9792  -15.0473  -48.4237 H         1 UNK         0.0800 
    135 H135        3.2663  -15.8619  -47.5647 H         1 UNK         0.0800 
    136 H136        1.0485  -15.9915  -50.5290 H         1 UNK         0.1150 
    137 H137        1.6547  -20.1790  -51.2060 H         1 UNK         0.1150 
    138 H138        3.9725  -18.1279  -48.2346 H         1 UNK         0.1150 
    139 H139        3.4719  -21.3265  -50.1476 H         1 UNK         0.0800 
    140 H140        4.6989  -20.3977  -49.3249 H         1 UNK         0.0800 
    141 H141        1.1038  -21.5545  -49.0741 H         1 UNK         0.0800 
    142 H142        0.8694  -20.4505  -47.7407 H         1 UNK         0.0800 
    143 H143        1.0460  -23.5067  -47.5729 H         1 UNK         0.0600 
    144 H144        1.2377  -21.5877  -45.4363 H         1 UNK         0.3000 
    145 H145       -0.1313  -22.8019  -42.9886 H         1 UNK         0.0600 
    146 H146        1.4971  -24.0372  -41.5331 H         1 UNK         0.0600 
    147 H147        0.5939  -25.1025  -42.5969 H         1 UNK         0.0600 
    148 H148        2.2621  -24.7075  -42.9747 H         1 UNK         0.0600 
    149 H149        1.2198  -21.0932  -42.8254 H         1 UNK         0.3000 
    150 H150        4.5418  -20.5427  -42.6049 H         1 UNK         0.0600 
    151 H151        4.7599  -20.4354  -45.0978 H         1 UNK         0.0600 
    152 H152        4.6101  -18.8304  -44.4006 H         1 UNK         0.0600 
    153 H153        3.2281  -19.5751  -45.1998 H         1 UNK         0.0600 
    154 H154        2.3697  -18.7085  -43.1120 H         1 UNK         0.3000 
    155 H155        1.0019  -18.8170  -39.8186 H         1 UNK         0.0600 
    156 H156        2.5281  -16.6310  -41.3292 H         1 UNK         0.0600 
    157 H157        2.8652  -17.1738  -39.6911 H         1 UNK         0.0600 
    158 H158        1.3464  -16.3652  -40.0486 H         1 UNK         0.0600 
    159 H159        0.2133  -17.3175  -42.0845 H         1 UNK         0.3000 
    160 H160       -1.9292  -19.8114  -43.5458 H         1 UNK         0.0600 
    161 H161       -3.5056  -17.9183  -43.3272 H         1 UNK         0.0600 
    162 H162       -2.4358  -17.1185  -42.1788 H         1 UNK         0.0600 
    163 H163       -3.2065  -18.6417  -41.7537 H         1 UNK         0.0600 
    164 H164       -1.2833  -17.1669  -44.3934 H         1 UNK         0.3000 
    165 H165        1.4958  -18.0669  -46.4869 H         1 UNK         0.0600 
    166 H166       -0.0780  -16.6367  -47.9777 H         1 UNK         0.0600 
    167 H167       -0.3497  -18.3708  -47.9811 H         1 UNK         0.0600 
    168 H168       -1.4143  -17.3197  -47.0617 H         1 UNK         0.0600 
    169 H169        0.3473  -15.5374  -45.9399 H         1 UNK         0.3000 
    170 H170        2.1402  -14.7941  -42.9348 H         1 UNK         0.0600 
    171 H171        3.6918  -14.2257  -44.7970 H         1 UNK         0.0600 
    172 H172        2.3417  -13.6664  -45.7727 H         1 UNK         0.0600 
    173 H173        2.7681  -12.8194  -44.2887 H         1 UNK         0.0600 
    174 H174        0.1759  -13.4580  -44.6050 H         1 UNK         0.3000 
    175 H175       -2.6631  -14.5238  -42.7255 H         1 UNK         0.0600 
    176 H176       -2.9815  -12.0735  -42.5161 H         1 UNK         0.0600 
    177 H177       -1.7255  -12.6135  -41.4136 H         1 UNK         0.0600 
    178 H178       -1.2847  -11.7884  -42.9041 H         1 UNK         0.0600 
    179 H179       -2.3238  -12.7331  -44.9415 H         1 UNK         0.3000 
    180 H180       -2.3674  -15.1388  -47.5357 H         1 UNK         0.0600 
    181 H181       -4.6689  -13.3047  -46.6800 H         1 UNK         0.0600 
    182 H182       -4.7957  -15.0361  -46.9710 H         1 UNK         0.0600 
    183 H183       -4.4048  -13.9562  -48.2986 H         1 UNK         0.0600 
    184 H184       -2.5830  -12.3192  -47.6354 H         1 UNK         0.3000 
    185 H185       -0.6785  -11.1997  -48.5326 H         1 UNK         0.0600 
    186 H186        0.1627  -10.9486  -45.5852 H         1 UNK         0.0600 
    187 H187        0.0008   -9.6103  -46.7212 H         1 UNK         0.0600 
    188 H188       -1.4153  -10.5227  -46.2367 H         1 UNK         0.0600 
    189 H189        1.9027  -11.1913  -47.2790 H         1 UNK         0.3000 
    190 H190       -1.1730  -21.2005  -46.0187 H         1 UNK         0.3000 
    191 H191       -3.3490  -21.4969  -47.8387 H         1 UNK         0.0600 
    192 H192       -3.4874  -20.7615  -44.8692 H         1 UNK         0.0600 
    193 H193       -4.6681  -20.3738  -46.1043 H         1 UNK         0.0600 
    194 H194       -3.0864  -19.6128  -46.1486 H         1 UNK         0.0600 
    195 H195       -2.3237  -23.4134  -45.0582 H         1 UNK         0.3000 
    196 H196       -4.7107  -25.0794  -44.9557 H         1 UNK         0.0600 
    197 H197       -3.3819  -26.3868  -43.3156 H         1 UNK         0.0600 
    198 H198       -3.3429  -24.6760  -42.9192 H         1 UNK         0.0600 
    199 H199       -1.9462  -25.4395  -43.6765 H         1 UNK         0.0600 
    200 H200       -1.3800  -25.3489  -46.2787 H         1 UNK         0.3000 
    201 H201       -1.5984  -27.9796  -47.2959 H         1 UNK         0.0600 
    202 H202        0.5618  -26.7996  -46.9312 H         1 UNK         0.0600 
    203 H203        0.1854  -25.6702  -48.2307 H         1 UNK         0.0600 
    204 H204        0.4360  -27.3734  -48.5878 H         1 UNK         0.0600 
    205 H205       -2.1726  -24.8109  -48.9083 H         1 UNK         0.3000 
    206 H206       -3.0339  -25.9454  -51.4233 H         1 UNK         0.0600 
    207 H207       -2.0786  -23.6494  -51.2224 H         1 UNK         0.0600 
    208 H208       -3.7007  -23.5842  -51.8959 H         1 UNK         0.0600 
    209 H209       -3.4347  -23.1574  -50.2091 H         1 UNK         0.0600 
    210 H210       -4.5805  -25.3548  -48.3960 H         1 UNK         0.3000 
    211 H211       -6.5107  -25.6931  -47.4653 H         1 UNK         0.0600 
    212 H212       -7.4451  -27.1175  -50.0119 H         1 UNK         0.0600 
    213 H213       -8.2205  -27.1866  -48.4372 H         1 UNK         0.0600 
    214 H214       -6.6170  -27.8728  -48.6503 H         1 UNK         0.0600 
    215 H215       -6.9293  -24.5170  -50.7800 H         1 UNK         0.3000 
    216 H216       -9.3671  -23.0215  -50.2433 H         1 UNK         0.0600 
    217 H217       -9.1390  -22.4016  -52.6372 H         1 UNK         0.0600 
    218 H218       -8.9242  -24.1308  -52.4277 H         1 UNK         0.0600 
    219 H219       -7.5214  -23.0951  -52.6876 H         1 UNK         0.0600 
    220 H220       -7.5982  -22.1374  -48.3859 H         1 UNK         0.3000 
    221 H221       -6.7175  -20.3333  -47.4032 H         1 UNK         0.0600 
    222 H222       -8.6628  -18.8371  -49.2349 H         1 UNK         0.0600 
    223 H223       -9.1009  -19.6636  -47.7404 H         1 UNK         0.0600 
    224 H224       -8.0416  -18.2657  -47.6909 H         1 UNK         0.0600 
    225 H225       -5.0948  -21.1804  -49.5553 H         1 UNK         0.3000 
    226 H226       -3.1959  -20.7100  -50.5836 H         1 UNK         0.0600 
    227 H227       -2.6013  -19.3545  -48.5531 H         1 UNK         0.0600 
    228 H228       -1.8339  -18.7707  -50.0130 H         1 UNK         0.0600 
    229 H229       -3.2127  -17.9103  -49.3539 H         1 UNK         0.0600 
    230 H230       -5.8983  -19.9855  -51.8235 H         1 UNK         0.3000 
    231 H231       -5.4934  -17.9381  -53.7309 H         1 UNK         0.0600 
    232 H232       -7.7203  -18.8630  -53.1714 H         1 UNK         0.0600 
    233 H233       -7.2777  -20.4235  -53.8676 H         1 UNK         0.0600 
    234 H234       -7.4264  -19.0036  -54.8953 H         1 UNK         0.0600 
    235 H235       -3.9324  -20.9536  -53.5872 H         1 UNK         0.3000 
    236 H236       -3.4688  -21.6546  -56.2709 H         1 UNK         0.0600 
    237 H237       -1.4737  -22.8391  -55.3102 H         1 UNK         0.0600 
    238 H238       -1.6866  -21.9739  -53.7930 H         1 UNK         0.0600 
    239 H239       -2.9148  -23.1138  -54.3464 H         1 UNK         0.0600 
    240 H240       -2.1483  -18.9690  -54.4314 H         1 UNK         0.3000 
    241 H241       -0.0233  -18.3417  -56.3287 H         1 UNK         0.0600 
    242 H242       -3.4729  -18.0149  -56.6862 H         1 UNK         0.3800 
    243 H243       -3.3732  -16.7402  -57.8720 H         1 UNK         0.3800 
    244 H244        0.0107  -16.1137  -55.0417 H         1 UNK         0.0800 
    245 H245       -1.2286  -16.7662  -54.0084 H         1 UNK         0.0800 
    246 H246       -0.5403  -17.2576  -51.8658 H         1 UNK         0.0800 
    247 H247       -0.4010  -18.9887  -52.0671 H         1 UNK         0.0800 
@<TRIPOS>BOND
     1    1    2 1    
     2    1  127 1    
     3    1  128 1    
     4    1  129 1    
     5    2    3 2    
     6    2    4 am   BACKBONE|DICT|INTERRES
     7    4    5 1    
     8    4  130 1    
     9    5    6 1    
    10    5   65 1    
    11    5  131 1    
    12    6    7 1    
    13    6  132 1    
    14    6  133 1    
    15    7    8 1    
    16    8    9 1    
    17    8  134 1    
    18    8  135 1    
    19    9   10 ar   
    20    9   14 ar   
    21   10   11 ar   
    22   10  136 1    
    23   11   12 ar   
    24   11  126 1    
    25   12   13 ar   
    26   12  137 1    
    27   13   14 ar   
    28   13   15 1    
    29   14  138 1    
    30   15   16 1    
    31   15  139 1    
    32   15  140 1    
    33   16   17 1    
    34   17   18 1    
    35   17  141 1    
    36   17  142 1    
    37   18   19 1    
    38   18   67 1    
    39   18  143 1    
    40   19   20 am   BACKBONE|DICT|INTERRES
    41   19  144 1    
    42   20   21 2    
    43   20   22 1    
    44   22   23 1    
    45   22   24 1    
    46   22  145 1    
    47   23  146 1    
    48   23  147 1    
    49   23  148 1    
    50   24   25 am   BACKBONE|DICT|INTERRES
    51   24  149 1    
    52   25   26 2    
    53   25   27 1    
    54   27   28 1    
    55   27   29 1    
    56   27  150 1    
    57   28  151 1    
    58   28  152 1    
    59   28  153 1    
    60   29   30 am   BACKBONE|DICT|INTERRES
    61   29  154 1    
    62   30   31 2    
    63   30   32 1    
    64   32   33 1    
    65   32   34 1    
    66   32  155 1    
    67   33  156 1    
    68   33  157 1    
    69   33  158 1    
    70   34   35 am   BACKBONE|DICT|INTERRES
    71   34  159 1    
    72   35   36 2    
    73   35   37 1    
    74   37   38 1    
    75   37   39 1    
    76   37  160 1    
    77   38  161 1    
    78   38  162 1    
    79   38  163 1    
    80   39   40 am   BACKBONE|DICT|INTERRES
    81   39  164 1    
    82   40   41 2    
    83   40   42 1    
    84   42   43 1    
    85   42   44 1    
    86   42  165 1    
    87   43  166 1    
    88   43  167 1    
    89   43  168 1    
    90   44   45 am   BACKBONE|DICT|INTERRES
    91   44  169 1    
    92   45   46 2    
    93   45   47 1    
    94   47   48 1    
    95   47   49 1    
    96   47  170 1    
    97   48  171 1    
    98   48  172 1    
    99   48  173 1    
   100   49   50 am   BACKBONE|DICT|INTERRES
   101   49  174 1    
   102   50   51 2    
   103   50   52 1    
   104   52   53 1    
   105   52   54 1    
   106   52  175 1    
   107   53  176 1    
   108   53  177 1    
   109   53  178 1    
   110   54   55 am   BACKBONE|DICT|INTERRES
   111   54  179 1    
   112   55   56 2    
   113   55   57 1    
   114   57   58 1    
   115   57   59 1    
   116   57  180 1    
   117   58  181 1    
   118   58  182 1    
   119   58  183 1    
   120   59   60 am   BACKBONE|DICT|INTERRES
   121   59  184 1    
   122   60   61 2    
   123   60   62 1    
   124   62   63 1    
   125   62   64 1    
   126   62  185 1    
   127   63  186 1    
   128   63  187 1    
   129   63  188 1    
   130   64   65 am   BACKBONE|DICT|INTERRES
   131   64  189 1    
   132   65   66 2    
   133   67   68 2    
   134   67   69 am   BACKBONE|DICT|INTERRES
   135   69   70 1    
   136   69  190 1    
   137   70   71 1    
   138   70   72 1    
   139   70  191 1    
   140   71  192 1    
   141   71  193 1    
   142   71  194 1    
   143   72   73 2    
   144   72   74 am   BACKBONE|DICT|INTERRES
   145   74   75 1    
   146   74  195 1    
   147   75   76 1    
   148   75   77 1    
   149   75  196 1    
   150   76  197 1    
   151   76  198 1    
   152   76  199 1    
   153   77   78 2    
   154   77   79 am   BACKBONE|DICT|INTERRES
   155   79   80 1    
   156   79  200 1    
   157   80   81 1    
   158   80   82 1    
   159   80  201 1    
   160   81  202 1    
   161   81  203 1    
   162   81  204 1    
   163   82   83 2    
   164   82   84 am   BACKBONE|DICT|INTERRES
   165   84   85 1    
   166   84  205 1    
   167   85   86 1    
   168   85   87 1    
   169   85  206 1    
   170   86  207 1    
   171   86  208 1    
   172   86  209 1    
   173   87   88 2    
   174   87   89 am   BACKBONE|DICT|INTERRES
   175   89   90 1    
   176   89  210 1    
   177   90   91 1    
   178   90   92 1    
   179   90  211 1    
   180   91  212 1    
   181   91  213 1    
   182   91  214 1    
   183   92   93 2    
   184   92   94 am   BACKBONE|DICT|INTERRES
   185   94   95 1    
   186   94  215 1    
   187   95   96 1    
   188   95   97 1    
   189   95  216 1    
   190   96  217 1    
   191   96  218 1    
   192   96  219 1    
   193   97   98 2    
   194   97   99 am   BACKBONE|DICT|INTERRES
   195   99  100 1    
   196   99  220 1    
   197  100  101 1    
   198  100  102 1    
   199  100  221 1    
   200  101  222 1    
   201  101  223 1    
   202  101  224 1    
   203  102  103 2    
   204  102  104 am   BACKBONE|DICT|INTERRES
   205  104  105 1    
   206  104  225 1    
   207  105  106 1    
   208  105  107 1    
   209  105  226 1    
   210  106  227 1    
   211  106  228 1    
   212  106  229 1    
   213  107  108 2    
   214  107  109 am   BACKBONE|DICT|INTERRES
   215  109  110 1    
   216  109  230 1    
   217  110  111 1    
   218  110  112 1    
   219  110  231 1    
   220  111  232 1    
   221  111  233 1    
   222  111  234 1    
   223  112  113 2    
   224  112  114 am   BACKBONE|DICT|INTERRES
   225  114  115 1    
   226  114  235 1    
   227  115  116 1    
   228  115  117 1    
   229  115  236 1    
   230  116  237 1    
   231  116  238 1    
   232  116  239 1    
   233  117  118 2    
   234  117  119 am   BACKBONE|DICT|INTERRES
   235  119  120 1    
   236  119  240 1    
   237  120  121 1    
   238  120  124 1    
   239  120  241 1    
   240  121  122 am   BACKBONE|DICT|INTERRES
   241  121  123 2    
   242  122  242 1    
   243  122  243 1    
   244  124  125 1    
   245  124  244 1    
   246  124  245 1    
   247  125  126 1    
   248  126  246 1    
   249  126  247 1    
@<TRIPOS>SUBSTRUCTURE
     1 UNK         1 GROUP             0       ****    0 ROOT    
