@<TRIPOS>MOLECULE
3R540
247   249    1
SMALL
USER_CHARGES


@<TRIPOS>ATOM
      1 CA          3.7571   -9.7025  -50.4629 C.3       0 UNK        -0.1800 
      2 C           3.3282  -10.6386  -49.3428 C.2       0 UNK         0.5000 
      3 O           3.3189  -10.2382  -48.1788 O.2       0 UNK        -0.5000 
      4 N           2.9532  -11.8781  -49.6881 N.am      1 UNK        -0.5000 
      5 CA          2.5604  -12.9455  -48.7537 C.3       1 UNK         0.1400 
      6 C6          2.3794  -14.3063  -49.4657 C.3       23 UNK        -0.0398 
      7 S7          3.9288  -14.8923  -50.2312 S.3       23 UNK        -0.2404 
      8 C8          3.3046  -16.1006  -51.4436 C.3       23 UNK        -0.0205 
      9 C9          2.4749  -17.1968  -50.7903 C.ar      23 UNK        -0.0193 
     10 C10         1.1011  -17.2779  -51.0370 C.ar      23 UNK        -0.1150 
     11 C11         0.3302  -18.2731  -50.4313 C.ar      23 UNK        -0.0193 
     12 C12         0.9430  -19.1870  -49.5740 C.ar      23 UNK        -0.1150 
     13 C13         2.3112  -19.1063  -49.2995 C.ar      23 UNK        -0.0193 
     14 C14         3.0753  -18.1162  -49.9236 C.ar      23 UNK        -0.1150 
     15 C15         2.9418  -20.0377  -48.2733 C.3       23 UNK        -0.0205 
     16 S16         2.6216  -21.7905  -48.6346 S.3       23 UNK        -0.2404 
     17 C17         2.6128  -22.5144  -46.9504 C.3       23 UNK        -0.0398 
     18 CA          1.3236  -23.2517  -46.4639 C.3       11 UNK         0.1400 
     19 N           0.6768  -22.6126  -45.3098 N.am      11 UNK        -0.5000 
     20 C          -0.1277  -23.2785  -44.4650 C.2       10 UNK         0.5000 
     21 O          -0.3942  -24.4756  -44.5822 O.2       10 UNK        -0.5000 
     22 CA         -0.7653  -22.4839  -43.3125 C.3       10 UNK         0.1400 
     23 CB          0.2682  -22.1785  -42.2183 C.3       10 UNK        -0.1800 
     24 N          -1.4134  -21.2495  -43.7541 N.am      10 UNK        -0.5000 
     25 C          -2.4618  -21.2038  -44.5891 C.2       9 UNK         0.5000 
     26 O          -2.9941  -22.2010  -45.0743 O.2       9 UNK        -0.5000 
     27 CA         -2.9881  -19.8116  -44.9800 C.3       9 UNK         0.1400 
     28 CB         -3.9130  -19.2510  -43.8901 C.3       9 UNK        -0.1800 
     29 N          -1.9201  -18.8539  -45.2617 N.am      9 UNK        -0.5000 
     30 C          -1.0050  -19.0042  -46.2292 C.2       8 UNK         0.5000 
     31 O          -0.9828  -19.9582  -47.0042 O.2       8 UNK        -0.5000 
     32 CA          0.1172  -17.9539  -46.2867 C.3       8 UNK         0.1400 
     33 CB         -0.3828  -16.6198  -46.8597 C.3       8 UNK        -0.1800 
     34 N           0.7358  -17.7485  -44.9786 N.am      8 UNK        -0.5000 
     35 C           1.3597  -18.7039  -44.2724 C.2       7 UNK         0.5000 
     36 O           1.5514  -19.8509  -44.6804 O.2       7 UNK        -0.5000 
     37 CA          1.7974  -18.3251  -42.8484 C.3       7 UNK         0.1400 
     38 CB          3.1722  -17.6402  -42.8611 C.3       7 UNK        -0.1800 
     39 N           0.8152  -17.4584  -42.1956 N.am      7 UNK        -0.5000 
     40 C          -0.3814  -17.8734  -41.7560 C.2       6 UNK         0.5000 
     41 O          -0.7642  -19.0412  -41.8207 O.2       6 UNK        -0.5000 
     42 CA         -1.3226  -16.7968  -41.1836 C.3       6 UNK         0.1400 
     43 CB         -0.9651  -16.4834  -39.7231 C.3       6 UNK        -0.1800 
     44 N          -1.3071  -15.5588  -41.9646 N.am      6 UNK        -0.5000 
     45 C          -1.7651  -15.4547  -43.2198 C.2       5 UNK         0.5000 
     46 O          -2.2880  -16.3844  -43.8324 O.2       5 UNK        -0.5000 
     47 CA         -1.5744  -14.0995  -43.9279 C.3       5 UNK         0.1400 
     48 CB         -2.7829  -13.1881  -43.6691 C.3       5 UNK        -0.1800 
     49 N          -0.3449  -13.3826  -43.5754 N.am      5 UNK        -0.5000 
     50 C           0.9015  -13.8721  -43.6549 C.2       4 UNK         0.5000 
     51 O           1.1583  -15.0441  -43.9336 O.2       4 UNK        -0.5000 
     52 CA          2.0359  -12.8649  -43.4066 C.3       4 UNK         0.1400 
     53 CB          3.4311  -13.4524  -43.6856 C.3       4 UNK        -0.1800 
     54 N           1.8243  -11.7101  -44.2731 N.am      4 UNK        -0.5000 
     55 C           1.7644  -10.4306  -43.8830 C.2       3 UNK         0.5000 
     56 O           1.9203  -10.0667  -42.7168 O.2       3 UNK        -0.5000 
     57 CA          1.4759   -9.3720  -44.9691 C.3       3 UNK         0.1400 
     58 CB          2.7507   -8.5805  -45.2986 C.3       3 UNK        -0.1800 
     59 N           0.9355   -9.9447  -46.2051 N.am      3 UNK        -0.5000 
     60 C          -0.3164  -10.4095  -46.3408 C.2       2 UNK         0.5000 
     61 O          -1.1688  -10.3222  -45.4571 O.2       2 UNK        -0.5000 
     62 CA         -0.6756  -11.1204  -47.6638 C.3       2 UNK         0.1400 
     63 CB         -1.4362  -10.1663  -48.5966 C.3       2 UNK        -0.1800 
     64 N           0.4801  -11.6648  -48.3821 N.am      2 UNK        -0.5000 
     65 C           1.3107  -12.6069  -47.9119 C.2       1 UNK         0.5000 
     66 O           1.1487  -13.1656  -46.8286 O.2       1 UNK        -0.5000 
     67 C           0.2965  -23.6383  -47.5530 C.2       11 UNK         0.5000 
     68 O           0.4392  -24.7057  -48.1506 O.2       11 UNK        -0.5000 
     69 N          -0.7472  -22.8151  -47.7490 N.am      12 UNK        -0.5000 
     70 CA         -1.8716  -23.1217  -48.6348 C.3       12 UNK         0.1400 
     71 CB         -2.8103  -21.9121  -48.7492 C.3       12 UNK        -0.1800 
     72 C          -2.6388  -24.3748  -48.1795 C.2       12 UNK         0.5000 
     73 O          -2.8662  -25.2676  -48.9940 O.2       12 UNK        -0.5000 
     74 N          -2.9633  -24.4537  -46.8804 N.am      13 UNK        -0.5000 
     75 CA         -3.6162  -25.6066  -46.2586 C.3       13 UNK         0.1400 
     76 CB         -3.9718  -25.2830  -44.8001 C.3       13 UNK        -0.1800 
     77 C          -2.7748  -26.8927  -46.3434 C.2       13 UNK         0.5000 
     78 O          -3.3259  -27.9510  -46.6462 O.2       13 UNK        -0.5000 
     79 N          -1.4562  -26.7764  -46.1271 N.am      14 UNK        -0.5000 
     80 CA         -0.4922  -27.8719  -46.2678 C.3       14 UNK         0.1400 
     81 CB          0.8788  -27.4218  -45.7420 C.3       14 UNK        -0.1800 
     82 C          -0.3774  -28.3940  -47.7143 C.2       14 UNK         0.5000 
     83 O          -0.2397  -29.6009  -47.9159 O.2       14 UNK        -0.5000 
     84 N          -0.4717  -27.4833  -48.6923 N.am      15 UNK        -0.5000 
     85 CA         -0.5067  -27.7849  -50.1252 C.3       15 UNK         0.1400 
     86 CB         -0.0884  -26.5251  -50.9016 C.3       15 UNK        -0.1800 
     87 C          -1.8810  -28.2883  -50.6179 C.2       15 UNK         0.5000 
     88 O          -1.9780  -28.7233  -51.7663 O.2       15 UNK        -0.5000 
     89 N          -2.9111  -28.2046  -49.7617 N.am      16 UNK        -0.5000 
     90 CA         -4.3266  -28.4850  -50.0256 C.3       16 UNK         0.1400 
     91 CB         -4.5491  -29.9795  -50.3385 C.3       16 UNK        -0.1800 
     92 C          -4.9320  -27.5383  -51.0857 C.2       16 UNK         0.5000 
     93 O          -5.7498  -27.9615  -51.9054 O.2       16 UNK        -0.5000 
     94 N          -4.5121  -26.2699  -51.0441 N.am      17 UNK        -0.5000 
     95 CA         -4.9542  -25.1835  -51.9104 C.3       17 UNK         0.1400 
     96 CB         -3.7069  -24.5387  -52.5397 C.3       17 UNK        -0.1800 
     97 C          -5.7294  -24.1397  -51.0903 C.2       17 UNK         0.5000 
     98 O          -5.6440  -24.1184  -49.8599 O.2       17 UNK        -0.5000 
     99 N          -6.4518  -23.2613  -51.7927 N.am      18 UNK        -0.5000 
    100 CA        -7.0418  -22.0564  -51.2164 C.3       18 UNK         0.1400 
    101 CB        -8.2362  -21.6178  -52.0784 C.3       18 UNK        -0.1800 
    102 C         -5.9818  -20.9455  -51.1751 C.2       18 UNK         0.5000 
    103 O         -5.2495  -20.7752  -52.1522 O.2       18 UNK        -0.5000 
    104 N         -5.9507  -20.1668  -50.0857 N.am      19 UNK        -0.5000 
    105 CA        -5.0392  -19.0269  -49.9231 C.3       19 UNK         0.1400 
    106 CB        -5.1494  -18.4813  -48.4924 C.3       19 UNK        -0.1800 
    107 C         -5.2762  -17.9092  -50.9597 C.2       19 UNK         0.5000 
    108 O         -4.3353  -17.2158  -51.3439 O.2       19 UNK        -0.5000 
    109 N         -6.5238  -17.7928  -51.4337 N.am      20 UNK        -0.5000 
    110 CA        -6.9377  -16.8855  -52.5023 C.3       20 UNK         0.1400 
    111 CB        -8.4732  -16.8450  -52.5449 C.3       20 UNK        -0.1800 
    112 C         -6.3718  -17.2544  -53.8895 C.2       20 UNK         0.5000 
    113 O         -6.3184  -16.3815  -54.7567 O.2       20 UNK        -0.5000 
    114 N         -5.9709  -18.5202  -54.0899 N.am      21 UNK        -0.5000 
    115 CA        -5.3787  -18.9932  -55.3415 C.3       21 UNK         0.1400 
    116 CB        -5.5313  -20.5187  -55.4559 C.3       21 UNK        -0.1800 
    117 C         -3.9043  -18.5733  -55.4607 C.2       21 UNK         0.5000 
    118 O         -3.4974  -18.0899  -56.5183 O.2       21 UNK        -0.5000 
    119 N         -3.1379  -18.7542  -54.3771 N.am      22 UNK        -0.5000 
    120 CA        -1.7319  -18.3301  -54.2797 C.3       22 UNK         0.1400 
    121 C         -1.5385  -16.8234  -53.9481 C.2       22 UNK         0.5000 
    122 N         -2.4860  -16.1521  -53.3056 N.am      22 UNK        -0.7600 
    123 O         -0.5131  -16.2464  -54.2987 O.2       22 UNK        -0.5000 
    124 C124       -0.8872  -19.2488  -53.3562 C.3       23 UNK        -0.0398 
    125 S125       -1.6658  -19.6966  -51.7645 S.3       23 UNK        -0.2404 
    126 C126       -1.1712  -18.3362  -50.6592 C.3       23 UNK        -0.0205 
    127 H127        3.1129   -8.8236  -50.4841 H         1 UNK         0.0600 
    128 H128        3.7055  -10.1868  -51.4383 H         1 UNK         0.0600 
    129 H129        4.7827   -9.3711  -50.3012 H         1 UNK         0.0600 
    130 H130        2.9913  -12.1492  -50.6605 H         1 UNK         0.3000 
    131 H131        3.3793  -13.0531  -48.0388 H         1 UNK         0.0600 
    132 H132        2.0548  -15.0728  -48.7587 H         1 UNK         0.0800 
    133 H133        1.6008  -14.2388  -50.2277 H         1 UNK         0.0800 
    134 H134        2.7256  -15.5763  -52.2056 H         1 UNK         0.0800 
    135 H135        4.1514  -16.5535  -51.9609 H         1 UNK         0.0800 
    136 H136        0.6295  -16.5615  -51.6951 H         1 UNK         0.1150 
    137 H137        0.3468  -19.9542  -49.1026 H         1 UNK         0.1150 
    138 H138        4.1330  -18.0377  -49.7145 H         1 UNK         0.1150 
    139 H139        4.0204  -19.8845  -48.2162 H         1 UNK         0.0800 
    140 H140        2.5443  -19.7851  -47.2914 H         1 UNK         0.0800 
    141 H141        2.9141  -21.7606  -46.2223 H         1 UNK         0.0800 
    142 H142        3.4364  -23.2298  -46.9435 H         1 UNK         0.0800 
    143 H143        1.6865  -24.2098  -46.0842 H         1 UNK         0.0600 
    144 H144        0.8566  -21.6232  -45.1594 H         1 UNK         0.3000 
    145 H145       -1.5385  -23.1158  -42.8703 H         1 UNK         0.0600 
    146 H146       -0.1990  -21.7023  -41.3564 H         1 UNK         0.0600 
    147 H147        0.7430  -23.0944  -41.8643 H         1 UNK         0.0600 
    148 H148        1.0572  -21.5196  -42.5793 H         1 UNK         0.0600 
    149 H149       -1.0598  -20.3838  -43.3616 H         1 UNK         0.3000 
    150 H150       -3.5735  -19.9285  -45.8933 H         1 UNK         0.0600 
    151 H151       -4.7227  -19.9470  -43.6674 H         1 UNK         0.0600 
    152 H152       -4.3684  -18.3122  -44.2058 H         1 UNK         0.0600 
    153 H153       -3.3730  -19.0644  -42.9611 H         1 UNK         0.0600 
    154 H154       -1.8912  -18.0221  -44.6772 H         1 UNK         0.3000 
    155 H155        0.8935  -18.3234  -46.9517 H         1 UNK         0.0600 
    156 H156        0.4064  -15.8679  -46.8580 H         1 UNK         0.0600 
    157 H157       -0.7133  -16.7428  -47.8915 H         1 UNK         0.0600 
    158 H158       -1.2249  -16.2245  -46.2943 H         1 UNK         0.0600 
    159 H159        0.6779  -16.8158  -44.5798 H         1 UNK         0.3000 
    160 H160        1.8849  -19.2442  -42.2658 H         1 UNK         0.0600 
    161 H161        3.1671  -16.7293  -43.4597 H         1 UNK         0.0600 
    162 H162        3.9298  -18.3019  -43.2827 H         1 UNK         0.0600 
    163 H163        3.4932  -17.3787  -41.8528 H         1 UNK         0.0600 
    164 H164        1.0166  -16.4678  -42.2000 H         1 UNK         0.3000 
    165 H165       -2.3379  -17.1986  -41.2062 H         1 UNK         0.0600 
    166 H166       -1.6761  -15.7829  -39.2849 H         1 UNK         0.0600 
    167 H167       -0.9849  -17.3884  -39.1144 H         1 UNK         0.0600 
    168 H168        0.0319  -16.0500  -39.6347 H         1 UNK         0.0600 
    169 H169       -0.8886  -14.7471  -41.5351 H         1 UNK         0.3000 
    170 H170       -1.5269  -14.2961  -45.0000 H         1 UNK         0.0600 
    171 H171       -3.7147  -13.6874  -43.9385 H         1 UNK         0.0600 
    172 H172       -2.8541  -12.9030  -42.6188 H         1 UNK         0.0600 
    173 H173       -2.7238  -12.2754  -44.2620 H         1 UNK         0.0600 
    174 H174       -0.4522  -12.4022  -43.3588 H         1 UNK         0.3000 
    175 H175        1.9845  -12.5785  -42.3545 H         1 UNK         0.0600 
    176 H176        3.6376  -14.2988  -43.0299 H         1 UNK         0.0600 
    177 H177        3.5208  -13.8008  -44.7156 H         1 UNK         0.0600 
    178 H178        4.2115  -12.7111  -43.5138 H         1 UNK         0.0600 
    179 H179        1.6290  -11.9378  -45.2425 H         1 UNK         0.3000 
    180 H180        0.7405   -8.6751  -44.5617 H         1 UNK         0.0600 
    181 H181        3.5435   -9.2317  -45.6685 H         1 UNK         0.0600 
    182 H182        3.1333   -8.0704  -44.4137 H         1 UNK         0.0600 
    183 H183        2.5603   -7.8195  -46.0556 H         1 UNK         0.0600 
    184 H184        1.5921  -10.0599  -46.9700 H         1 UNK         0.3000 
    185 H185       -1.3338  -11.9552  -47.4139 H         1 UNK         0.0600 
    186 H186       -2.3221   -9.7621  -48.1049 H         1 UNK         0.0600 
    187 H187       -0.8156   -9.3224  -48.9007 H         1 UNK         0.0600 
    188 H188       -1.7726  -10.6792  -49.4978 H         1 UNK         0.0600 
    189 H189        0.6972  -11.2440  -49.2736 H         1 UNK         0.3000 
    190 H190       -0.7887  -21.9304  -47.2519 H         1 UNK         0.3000 
    191 H191       -1.4638  -23.3230  -49.6276 H         1 UNK         0.0600 
    192 H192       -3.2498  -21.6454  -47.7882 H         1 UNK         0.0600 
    193 H193       -3.6280  -22.1191  -49.4400 H         1 UNK         0.0600 
    194 H194       -2.2800  -21.0391  -49.1274 H         1 UNK         0.0600 
    195 H195       -2.7677  -23.6629  -46.2715 H         1 UNK         0.3000 
    196 H196       -4.5467  -25.7862  -46.8014 H         1 UNK         0.0600 
    197 H197       -4.4619  -26.1302  -44.3190 H         1 UNK         0.0600 
    198 H198       -4.6555  -24.4361  -44.7412 H         1 UNK         0.0600 
    199 H199       -3.0856  -25.0382  -44.2139 H         1 UNK         0.0600 
    200 H200       -1.0878  -25.8774  -45.8309 H         1 UNK         0.3000 
    201 H201       -0.8384  -28.6989  -45.6446 H         1 UNK         0.0600 
    202 H202        0.8162  -27.0939  -44.7042 H         1 UNK         0.0600 
    203 H203        1.2844  -26.5989  -46.3302 H         1 UNK         0.0600 
    204 H204        1.5993  -28.2395  -45.7826 H         1 UNK         0.0600 
    205 H205       -0.5237  -26.5013  -48.4401 H         1 UNK         0.3000 
    206 H206        0.2224  -28.5702  -50.3346 H         1 UNK         0.0600 
    207 H207        0.9032  -26.1869  -50.6001 H         1 UNK         0.0600 
    208 H208       -0.0537  -26.7170  -51.9746 H         1 UNK         0.0600 
    209 H209       -0.7855  -25.7026  -50.7381 H         1 UNK         0.0600 
    210 H210       -2.7181  -27.8124  -48.8491 H         1 UNK         0.3000 
    211 H211       -4.8520  -28.2656  -49.0951 H         1 UNK         0.0600 
    212 H212       -4.1104  -30.2655  -51.2946 H         1 UNK         0.0600 
    213 H213       -5.6132  -30.2133  -50.3856 H         1 UNK         0.0600 
    214 H214       -4.1127  -30.6122  -49.5656 H         1 UNK         0.0600 
    215 H215       -3.8941  -25.9847  -50.2845 H         1 UNK         0.3000 
    216 H216       -5.6042  -25.5578  -52.7037 H         1 UNK         0.0600 
    217 H217       -3.0430  -24.1239  -51.7795 H         1 UNK         0.0600 
    218 H218       -3.9778  -23.7268  -53.2158 H         1 UNK         0.0600 
    219 H219       -3.1372  -25.2669  -53.1173 H         1 UNK         0.0600 
    220 H220       -6.4350  -23.3077  -52.8011 H         1 UNK         0.3000 
    221 H221       -7.3984  -22.2615  -50.2046 H         1 UNK         0.0600 
    222 H222       -8.9960  -22.3982  -52.1236 H         1 UNK         0.0600 
    223 H223       -7.9348  -21.3846  -53.1006 H         1 UNK         0.0600 
    224 H224       -8.7107  -20.7268  -51.6652 H         1 UNK         0.0600 
    225 H225       -6.5837  -20.3552  -49.3216 H         1 UNK         0.3000 
    226 H226       -4.0229  -19.3951  -50.0642 H         1 UNK         0.0600 
    227 H227       -4.9262  -19.2558  -47.7592 H         1 UNK         0.0600 
    228 H228       -4.4407  -17.6680  -48.3298 H         1 UNK         0.0600 
    229 H229       -6.1480  -18.0962  -48.2827 H         1 UNK         0.0600 
    230 H230       -7.2340  -18.4037  -51.0594 H         1 UNK         0.3000 
    231 H231       -6.5746  -15.8853  -52.2566 H         1 UNK         0.0600 
    232 H232       -8.8952  -17.8253  -52.7702 H         1 UNK         0.0600 
    233 H233       -8.8254  -16.1523  -53.3106 H         1 UNK         0.0600 
    234 H234       -8.8864  -16.5109  -51.5930 H         1 UNK         0.0600 
    235 H235       -5.9916  -19.1800  -53.3219 H         1 UNK         0.3000 
    236 H236       -5.9248  -18.5462  -56.1752 H         1 UNK         0.0600 
    237 H237       -6.5720  -20.8224  -55.3431 H         1 UNK         0.0600 
    238 H238       -5.1949  -20.8667  -56.4331 H         1 UNK         0.0600 
    239 H239       -4.9429  -21.0472  -54.7061 H         1 UNK         0.0600 
    240 H240       -3.5405  -19.1584  -53.5424 H         1 UNK         0.3000 
    241 H241       -1.2951  -18.4462  -55.2739 H         1 UNK         0.0600 
    242 H242       -2.3494  -15.1725  -53.1181 H         1 UNK         0.3800 
    243 H243       -3.2772  -16.6310  -52.8886 H         1 UNK         0.3800 
    244 H244        0.1084  -18.8372  -53.1864 H         1 UNK         0.0800 
    245 H245       -0.7124  -20.1894  -53.8797 H         1 UNK         0.0800 
    246 H246       -1.5435  -17.3884  -51.0460 H         1 UNK         0.0800 
    247 H247       -1.6673  -18.4777  -49.6979 H         1 UNK         0.0800 
@<TRIPOS>BOND
     1    1    2 1    
     2    1  127 1    
     3    1  128 1    
     4    1  129 1    
     5    2    3 2    
     6    2    4 am   BACKBONE|DICT|INTERRES
     7    4    5 1    
     8    4  130 1    
     9    5    6 1    
    10    5   65 1    
    11    5  131 1    
    12    6    7 1    
    13    6  132 1    
    14    6  133 1    
    15    7    8 1    
    16    8    9 1    
    17    8  134 1    
    18    8  135 1    
    19    9   10 ar   
    20    9   14 ar   
    21   10   11 ar   
    22   10  136 1    
    23   11   12 ar   
    24   11  126 1    
    25   12   13 ar   
    26   12  137 1    
    27   13   14 ar   
    28   13   15 1    
    29   14  138 1    
    30   15   16 1    
    31   15  139 1    
    32   15  140 1    
    33   16   17 1    
    34   17   18 1    
    35   17  141 1    
    36   17  142 1    
    37   18   19 1    
    38   18   67 1    
    39   18  143 1    
    40   19   20 am   BACKBONE|DICT|INTERRES
    41   19  144 1    
    42   20   21 2    
    43   20   22 1    
    44   22   23 1    
    45   22   24 1    
    46   22  145 1    
    47   23  146 1    
    48   23  147 1    
    49   23  148 1    
    50   24   25 am   BACKBONE|DICT|INTERRES
    51   24  149 1    
    52   25   26 2    
    53   25   27 1    
    54   27   28 1    
    55   27   29 1    
    56   27  150 1    
    57   28  151 1    
    58   28  152 1    
    59   28  153 1    
    60   29   30 am   BACKBONE|DICT|INTERRES
    61   29  154 1    
    62   30   31 2    
    63   30   32 1    
    64   32   33 1    
    65   32   34 1    
    66   32  155 1    
    67   33  156 1    
    68   33  157 1    
    69   33  158 1    
    70   34   35 am   BACKBONE|DICT|INTERRES
    71   34  159 1    
    72   35   36 2    
    73   35   37 1    
    74   37   38 1    
    75   37   39 1    
    76   37  160 1    
    77   38  161 1    
    78   38  162 1    
    79   38  163 1    
    80   39   40 am   BACKBONE|DICT|INTERRES
    81   39  164 1    
    82   40   41 2    
    83   40   42 1    
    84   42   43 1    
    85   42   44 1    
    86   42  165 1    
    87   43  166 1    
    88   43  167 1    
    89   43  168 1    
    90   44   45 am   BACKBONE|DICT|INTERRES
    91   44  169 1    
    92   45   46 2    
    93   45   47 1    
    94   47   48 1    
    95   47   49 1    
    96   47  170 1    
    97   48  171 1    
    98   48  172 1    
    99   48  173 1    
   100   49   50 am   BACKBONE|DICT|INTERRES
   101   49  174 1    
   102   50   51 2    
   103   50   52 1    
   104   52   53 1    
   105   52   54 1    
   106   52  175 1    
   107   53  176 1    
   108   53  177 1    
   109   53  178 1    
   110   54   55 am   BACKBONE|DICT|INTERRES
   111   54  179 1    
   112   55   56 2    
   113   55   57 1    
   114   57   58 1    
   115   57   59 1    
   116   57  180 1    
   117   58  181 1    
   118   58  182 1    
   119   58  183 1    
   120   59   60 am   BACKBONE|DICT|INTERRES
   121   59  184 1    
   122   60   61 2    
   123   60   62 1    
   124   62   63 1    
   125   62   64 1    
   126   62  185 1    
   127   63  186 1    
   128   63  187 1    
   129   63  188 1    
   130   64   65 am   BACKBONE|DICT|INTERRES
   131   64  189 1    
   132   65   66 2    
   133   67   68 2    
   134   67   69 am   BACKBONE|DICT|INTERRES
   135   69   70 1    
   136   69  190 1    
   137   70   71 1    
   138   70   72 1    
   139   70  191 1    
   140   71  192 1    
   141   71  193 1    
   142   71  194 1    
   143   72   73 2    
   144   72   74 am   BACKBONE|DICT|INTERRES
   145   74   75 1    
   146   74  195 1    
   147   75   76 1    
   148   75   77 1    
   149   75  196 1    
   150   76  197 1    
   151   76  198 1    
   152   76  199 1    
   153   77   78 2    
   154   77   79 am   BACKBONE|DICT|INTERRES
   155   79   80 1    
   156   79  200 1    
   157   80   81 1    
   158   80   82 1    
   159   80  201 1    
   160   81  202 1    
   161   81  203 1    
   162   81  204 1    
   163   82   83 2    
   164   82   84 am   BACKBONE|DICT|INTERRES
   165   84   85 1    
   166   84  205 1    
   167   85   86 1    
   168   85   87 1    
   169   85  206 1    
   170   86  207 1    
   171   86  208 1    
   172   86  209 1    
   173   87   88 2    
   174   87   89 am   BACKBONE|DICT|INTERRES
   175   89   90 1    
   176   89  210 1    
   177   90   91 1    
   178   90   92 1    
   179   90  211 1    
   180   91  212 1    
   181   91  213 1    
   182   91  214 1    
   183   92   93 2    
   184   92   94 am   BACKBONE|DICT|INTERRES
   185   94   95 1    
   186   94  215 1    
   187   95   96 1    
   188   95   97 1    
   189   95  216 1    
   190   96  217 1    
   191   96  218 1    
   192   96  219 1    
   193   97   98 2    
   194   97   99 am   BACKBONE|DICT|INTERRES
   195   99  100 1    
   196   99  220 1    
   197  100  101 1    
   198  100  102 1    
   199  100  221 1    
   200  101  222 1    
   201  101  223 1    
   202  101  224 1    
   203  102  103 2    
   204  102  104 am   BACKBONE|DICT|INTERRES
   205  104  105 1    
   206  104  225 1    
   207  105  106 1    
   208  105  107 1    
   209  105  226 1    
   210  106  227 1    
   211  106  228 1    
   212  106  229 1    
   213  107  108 2    
   214  107  109 am   BACKBONE|DICT|INTERRES
   215  109  110 1    
   216  109  230 1    
   217  110  111 1    
   218  110  112 1    
   219  110  231 1    
   220  111  232 1    
   221  111  233 1    
   222  111  234 1    
   223  112  113 2    
   224  112  114 am   BACKBONE|DICT|INTERRES
   225  114  115 1    
   226  114  235 1    
   227  115  116 1    
   228  115  117 1    
   229  115  236 1    
   230  116  237 1    
   231  116  238 1    
   232  116  239 1    
   233  117  118 2    
   234  117  119 am   BACKBONE|DICT|INTERRES
   235  119  120 1    
   236  119  240 1    
   237  120  121 1    
   238  120  124 1    
   239  120  241 1    
   240  121  122 am   BACKBONE|DICT|INTERRES
   241  121  123 2    
   242  122  242 1    
   243  122  243 1    
   244  124  125 1    
   245  124  244 1    
   246  124  245 1    
   247  125  126 1    
   248  126  246 1    
   249  126  247 1    
@<TRIPOS>SUBSTRUCTURE
     1 UNK         1 GROUP             0       ****    0 ROOT    
