@<TRIPOS>MOLECULE
3R540
247   249    1
SMALL
USER_CHARGES


@<TRIPOS>ATOM
      1 CA         -3.2406  -10.5327  -50.7294 C.3       0 UNK        -0.1800 
      2 C          -2.6441  -11.0291  -49.4214 C.2       0 UNK         0.5000 
      3 O          -1.4442  -10.8751  -49.1951 O.2       0 UNK        -0.5000 
      4 N          -3.4745  -11.6076  -48.5441 N.am      1 UNK        -0.5000 
      5 CA         -3.0874  -12.1931  -47.2496 C.3       1 UNK         0.1400 
      6 C6         -4.2103  -13.0719  -46.6515 C.3       23 UNK        -0.0398 
      7 S7         -4.4613  -14.5771  -47.6484 S.3       23 UNK        -0.2404 
      8 C8         -3.4104  -15.7371  -46.7231 C.3       23 UNK        -0.0205 
      9 C9         -3.2754  -17.0593  -47.4560 C.ar      23 UNK        -0.0193 
     10 C10        -2.1991  -17.2736  -48.3192 C.ar      23 UNK        -0.1150 
     11 C11        -2.0760  -18.4728  -49.0262 C.ar      23 UNK        -0.0193 
     12 C12        -3.0561  -19.4600  -48.8581 C.ar      23 UNK        -0.1150 
     13 C13        -4.1373  -19.2643  -47.9904 C.ar      23 UNK        -0.0193 
     14 C14        -4.2329  -18.0618  -47.2848 C.ar      23 UNK        -0.1150 
     15 C15        -5.2620  -20.2905  -47.8760 C.3       23 UNK        -0.0205 
     16 S16        -4.7168  -22.0279  -47.9686 S.3       23 UNK        -0.2404 
     17 C17        -4.3485  -22.4004  -46.2244 C.3       23 UNK        -0.0398 
     18 CA         -3.4298  -23.6419  -46.0944 C.3       11 UNK         0.1400 
     19 N          -2.0254  -23.3254  -46.3720 N.am      11 UNK        -0.5000 
     20 C          -1.1151  -24.2139  -46.7970 C.2       10 UNK         0.5000 
     21 O          -1.3634  -25.3976  -47.0200 O.2       10 UNK        -0.5000 
     22 CA          0.3338  -23.7133  -46.9576 C.3       10 UNK         0.1400 
     23 CB          0.5372  -23.1139  -48.3547 C.3       10 UNK        -0.1800 
     24 N           0.7201  -22.7311  -45.9432 N.am      10 UNK        -0.5000 
     25 C           0.7694  -22.9846  -44.6259 C.2       9 UNK         0.5000 
     26 O           0.5693  -24.0998  -44.1489 O.2       9 UNK        -0.5000 
     27 CA          1.0179  -21.8003  -43.6683 C.3       9 UNK         0.1400 
     28 CB          2.5003  -21.7299  -43.2754 C.3       9 UNK        -0.1800 
     29 N           0.6097  -20.5058  -44.2116 N.am      9 UNK        -0.5000 
     30 C          -0.6149  -20.1929  -44.6593 C.2       8 UNK         0.5000 
     31 O          -1.5904  -20.9362  -44.5462 O.2       8 UNK        -0.5000 
     32 CA         -0.7625  -18.8581  -45.4145 C.3       8 UNK         0.1400 
     33 CB         -1.4264  -17.8135  -44.5065 C.3       8 UNK        -0.1800 
     34 N           0.4936  -18.3062  -45.9384 N.am      8 UNK        -0.5000 
     35 C           1.3529  -18.9166  -46.7700 C.2       7 UNK         0.5000 
     36 O           1.1870  -20.0550  -47.2070 O.2       7 UNK        -0.5000 
     37 CA          2.6433  -18.1558  -47.1302 C.3       7 UNK         0.1400 
     38 CB          2.5570  -17.5457  -48.5362 C.3       7 UNK        -0.1800 
     39 N           2.9657  -17.0989  -46.1709 N.am      7 UNK        -0.5000 
     40 C           3.5172  -17.3020  -44.9666 C.2       6 UNK         0.5000 
     41 O           3.8150  -18.4143  -44.5306 O.2       6 UNK        -0.5000 
     42 CA          3.7643  -16.0509  -44.1023 C.3       6 UNK         0.1400 
     43 CB          5.1493  -15.4567  -44.3994 C.3       6 UNK        -0.1800 
     44 N           2.7456  -15.0192  -44.3079 N.am      6 UNK        -0.5000 
     45 C           1.4965  -15.0899  -43.8270 C.2       5 UNK         0.5000 
     46 O           1.0944  -16.0045  -43.1093 O.2       5 UNK        -0.5000 
     47 CA          0.5290  -13.9608  -44.2323 C.3       5 UNK         0.1400 
     48 CB          0.6248  -12.8039  -43.2253 C.3       5 UNK        -0.1800 
     49 N           0.7594  -13.4405  -45.5833 N.am      5 UNK        -0.5000 
     50 C           0.7004  -14.1495  -46.7189 C.2       4 UNK         0.5000 
     51 O           0.4415  -15.3526  -46.7424 O.2       4 UNK        -0.5000 
     52 CA          0.9970  -13.4120  -48.0440 C.3       4 UNK         0.1400 
     53 CB          0.1296  -13.9387  -49.2030 C.3       4 UNK        -0.1800 
     54 N           0.8542  -11.9545  -47.9617 N.am      4 UNK        -0.5000 
     55 C           1.7692  -11.1053  -47.4718 C.2       3 UNK         0.5000 
     56 O           2.8295  -11.4709  -46.9648 O.2       3 UNK        -0.5000 
     57 CA          1.4291   -9.6064  -47.5218 C.3       3 UNK         0.1400 
     58 CB          1.6917   -9.0434  -48.9273 C.3       3 UNK        -0.1800 
     59 N           0.0290   -9.3774  -47.1675 N.am      3 UNK        -0.5000 
     60 C          -0.4027   -8.8855  -45.9970 C.2       2 UNK         0.5000 
     61 O           0.3446   -8.5082  -45.0939 O.2       2 UNK        -0.5000 
     62 CA         -1.9318   -8.8155  -45.7900 C.3       2 UNK         0.1400 
     63 CB         -2.4742   -7.4498  -46.2376 C.3       2 UNK        -0.1800 
     64 N          -2.6440   -9.8725  -46.5102 N.am      2 UNK        -0.5000 
     65 C          -2.5512  -11.1769  -46.2174 C.2       1 UNK         0.5000 
     66 O          -2.0152  -11.5980  -45.1938 O.2       1 UNK        -0.5000 
     67 C          -3.6077  -24.3267  -44.7234 C.2       11 UNK         0.5000 
     68 O          -4.5934  -25.0428  -44.5408 O.2       11 UNK        -0.5000 
     69 N          -2.6691  -24.1158  -43.7885 N.am      12 UNK        -0.5000 
     70 CA         -2.6080  -24.8477  -42.5204 C.3       12 UNK         0.1400 
     71 CB         -1.7473  -24.0697  -41.5127 C.3       12 UNK        -0.1800 
     72 C          -2.0709  -26.2782  -42.7246 C.2       12 UNK         0.5000 
     73 O          -2.5691  -27.2164  -42.1008 O.2       12 UNK        -0.5000 
     74 N          -1.0765  -26.4114  -43.6106 N.am      13 UNK        -0.5000 
     75 CA         -0.5117  -27.6689  -44.0908 C.3       13 UNK         0.1400 
     76 CB          0.8803  -27.3688  -44.6784 C.3       13 UNK        -0.1800 
     77 C          -1.4187  -28.3610  -45.1322 C.2       13 UNK         0.5000 
     78 O          -2.5007  -27.8718  -45.4632 O.2       13 UNK        -0.5000 
     79 N          -0.9412  -29.4982  -45.6525 N.am      14 UNK        -0.5000 
     80 CA         -1.5977  -30.2784  -46.7053 C.3       14 UNK         0.1400 
     81 CB         -1.0814  -31.7249  -46.6302 C.3       14 UNK        -0.1800 
     82 C          -1.3953  -29.7030  -48.1250 C.2       14 UNK         0.5000 
     83 O          -1.9991  -30.2172  -49.0674 O.2       14 UNK        -0.5000 
     84 N          -0.5404  -28.6779  -48.2679 N.am      15 UNK        -0.5000 
     85 CA         -0.1969  -28.0334  -49.5396 C.3       15 UNK         0.1400 
     86 CB          0.9749  -27.0655  -49.3156 C.3       15 UNK        -0.1800 
     87 C          -1.3826  -27.3135  -50.2125 C.2       15 UNK         0.5000 
     88 O          -1.4729  -27.3236  -51.4408 O.2       15 UNK        -0.5000 
     89 N          -2.2738  -26.7369  -49.3947 N.am      16 UNK        -0.5000 
     90 CA         -3.5015  -26.0357  -49.7659 C.3       16 UNK         0.1400 
     91 CB         -4.5230  -27.0094  -50.3977 C.3       16 UNK        -0.1800 
     92 C          -3.2191  -24.7693  -50.5999 C.2       16 UNK         0.5000 
     93 O          -2.6554  -23.8202  -50.0578 O.2       16 UNK        -0.5000 
     94 N          -3.6347  -24.7731  -51.8748 N.am      17 UNK        -0.5000 
     95 CA         -3.7494  -23.6257  -52.7803 C.3       17 UNK         0.1400 
     96 CB         -2.4089  -22.8782  -52.9729 C.3       17 UNK        -0.1800 
     97 C          -4.9404  -22.7355  -52.3667 C.2       17 UNK         0.5000 
     98 O          -5.9996  -23.2744  -52.0355 O.2       17 UNK        -0.5000 
     99 N          -4.7814  -21.4108  -52.4257 N.am      18 UNK        -0.5000 
    100 CA        -5.8082  -20.4215  -52.1152 C.3       18 UNK         0.1400 
    101 CB        -6.7380  -20.2318  -53.3291 C.3       18 UNK        -0.1800 
    102 C         -5.1296  -19.1052  -51.7157 C.2       18 UNK         0.5000 
    103 O         -3.9163  -18.9687  -51.8952 O.2       18 UNK        -0.5000 
    104 N         -5.9315  -18.1704  -51.1865 N.am      19 UNK        -0.5000 
    105 CA        -5.5373  -16.8591  -50.6637 C.3       19 UNK         0.1400 
    106 CB        -6.8038  -16.0628  -50.3105 C.3       19 UNK        -0.1800 
    107 C         -4.6207  -16.0626  -51.6117 C.2       19 UNK         0.5000 
    108 O         -5.0884  -15.5460  -52.6281 O.2       19 UNK        -0.5000 
    109 N         -3.3269  -16.0268  -51.2626 N.am      20 UNK        -0.5000 
    110 CA        -2.2142  -15.4085  -51.9927 C.3       20 UNK         0.1400 
    111 CB        -2.3940  -13.8801  -52.0659 C.3       20 UNK        -0.1800 
    112 C         -1.9141  -16.0425  -53.3721 C.2       20 UNK         0.5000 
    113 O         -1.1910  -15.4414  -54.1675 O.2       20 UNK        -0.5000 
    114 N         -2.4299  -17.2536  -53.6256 N.am      21 UNK        -0.5000 
    115 CA        -2.2249  -18.0206  -54.8590 C.3       21 UNK         0.1400 
    116 CB        -3.5473  -18.7067  -55.2397 C.3       21 UNK        -0.1800 
    117 C         -1.0951  -19.0617  -54.7210 C.2       21 UNK         0.5000 
    118 O         -0.8301  -19.7951  -55.6741 O.2       21 UNK        -0.5000 
    119 N         -0.4631  -19.1215  -53.5422 N.am      22 UNK        -0.5000 
    120 CA         0.6043  -20.0669  -53.1720 C.3       22 UNK         0.1400 
    121 C          1.9369  -19.9168  -53.9660 C.2       22 UNK         0.5000 
    122 N          2.1759  -18.8167  -54.6696 N.am      22 UNK        -0.7600 
    123 O          2.7705  -20.8179  -53.9411 O.2       22 UNK        -0.5000 
    124 C124        0.8929  -20.0306  -51.6484 C.3       23 UNK        -0.0398 
    125 S125       -0.5887  -20.3066  -50.6199 S.3       23 UNK        -0.2404 
    126 C126       -0.8912  -18.6262  -49.9791 C.3       23 UNK        -0.0205 
    127 H127       -3.2412   -9.4431  -50.7505 H         1 UNK         0.0600 
    128 H128       -4.2650  -10.8806  -50.8641 H         1 UNK         0.0600 
    129 H129       -2.6476  -10.8894  -51.5714 H         1 UNK         0.0600 
    130 H130       -4.4509  -11.7042  -48.7847 H         1 UNK         0.3000 
    131 H131       -2.2371  -12.8476  -47.4420 H         1 UNK         0.0600 
    132 H132       -3.9844  -13.3705  -45.6258 H         1 UNK         0.0800 
    133 H133       -5.1486  -12.5174  -46.6025 H         1 UNK         0.0800 
    134 H134       -3.8320  -15.9018  -45.7303 H         1 UNK         0.0800 
    135 H135       -2.4248  -15.2931  -46.5736 H         1 UNK         0.0800 
    136 H136       -1.4543  -16.4994  -48.4408 H         1 UNK         0.1150 
    137 H137       -3.0026  -20.3759  -49.4274 H         1 UNK         0.1150 
    138 H138       -5.0744  -17.8870  -46.6292 H         1 UNK         0.1150 
    139 H139       -5.8272  -20.1432  -46.9544 H         1 UNK         0.0800 
    140 H140       -5.9605  -20.1103  -48.6933 H         1 UNK         0.0800 
    141 H141       -5.3088  -22.5634  -45.7312 H         1 UNK         0.0800 
    142 H142       -3.9020  -21.5286  -45.7441 H         1 UNK         0.0800 
    143 H143       -3.7596  -24.3788  -46.8295 H         1 UNK         0.0600 
    144 H144       -1.7323  -22.3794  -46.1640 H         1 UNK         0.3000 
    145 H145        0.9978  -24.5735  -46.8548 H         1 UNK         0.0600 
    146 H146        1.5737  -22.8174  -48.5155 H         1 UNK         0.0600 
    147 H147        0.2732  -23.8298  -49.1343 H         1 UNK         0.0600 
    148 H148       -0.0898  -22.2337  -48.4967 H         1 UNK         0.0600 
    149 H149        0.8908  -21.7855  -46.2743 H         1 UNK         0.3000 
    150 H150        0.4292  -21.9778  -42.7666 H         1 UNK         0.0600 
    151 H151        2.8361  -22.6736  -42.8432 H         1 UNK         0.0600 
    152 H152        2.6756  -20.9518  -42.5321 H         1 UNK         0.0600 
    153 H153        3.1342  -21.5177  -44.1375 H         1 UNK         0.0600 
    154 H154        1.3462  -19.8298  -44.3566 H         1 UNK         0.3000 
    155 H155       -1.4139  -19.0463  -46.2678 H         1 UNK         0.0600 
    156 H156       -1.4496  -16.8319  -44.9772 H         1 UNK         0.0600 
    157 H157       -0.8980  -17.7131  -43.5583 H         1 UNK         0.0600 
    158 H158       -2.4555  -18.0952  -44.2803 H         1 UNK         0.0600 
    159 H159        0.6937  -17.3463  -45.6897 H         1 UNK         0.3000 
    160 H160        3.4588  -18.8823  -47.1310 H         1 UNK         0.0600 
    161 H161        1.7375  -16.8321  -48.6176 H         1 UNK         0.0600 
    162 H162        2.3999  -18.3225  -49.2847 H         1 UNK         0.0600 
    163 H163        3.4795  -17.0281  -48.7993 H         1 UNK         0.0600 
    164 H164        2.6933  -16.1616  -46.4273 H         1 UNK         0.3000 
    165 H165        3.7441  -16.3593  -43.0547 H         1 UNK         0.0600 
    166 H166        5.3628  -14.6096  -43.7473 H         1 UNK         0.0600 
    167 H167        5.9342  -16.1966  -44.2367 H         1 UNK         0.0600 
    168 H168        5.2295  -15.1146  -45.4320 H         1 UNK         0.0600 
    169 H169        3.0015  -14.2239  -44.8750 H         1 UNK         0.3000 
    170 H170       -0.4852  -14.3643  -44.2023 H         1 UNK         0.0600 
    171 H171        0.4325  -13.1530  -42.2099 H         1 UNK         0.0600 
    172 H172        1.6140  -12.3444  -43.2331 H         1 UNK         0.0600 
    173 H173       -0.1054  -12.0247  -43.4407 H         1 UNK         0.0600 
    174 H174        0.9860  -12.4597  -45.6539 H         1 UNK         0.3000 
    175 H175        2.0362  -13.6366  -48.2920 H         1 UNK         0.0600 
    176 H176       -0.9351  -13.8339  -49.0002 H         1 UNK         0.0600 
    177 H177        0.3446  -13.4066  -50.1299 H         1 UNK         0.0600 
    178 H178        0.3221  -14.9952  -49.3898 H         1 UNK         0.0600 
    179 H179        0.0122  -11.5677  -48.3827 H         1 UNK         0.3000 
    180 H180        2.0904   -9.0898  -46.8230 H         1 UNK         0.0600 
    181 H181        1.0590   -9.5176  -49.6789 H         1 UNK         0.0600 
    182 H182        2.7296   -9.2005  -49.2237 H         1 UNK         0.0600 
    183 H183        1.5027   -7.9704  -48.9611 H         1 UNK         0.0600 
    184 H184       -0.6556   -9.6951  -47.8458 H         1 UNK         0.3000 
    185 H185       -2.1305   -8.9315  -44.7224 H         1 UNK         0.0600 
    186 H186       -1.9794   -6.6390  -45.7013 H         1 UNK         0.0600 
    187 H187       -2.3160   -7.2829  -47.3038 H         1 UNK         0.0600 
    188 H188       -3.5427   -7.3651  -46.0386 H         1 UNK         0.0600 
    189 H189       -3.1096   -9.6081  -47.3659 H         1 UNK         0.3000 
    190 H190       -1.8955  -23.5048  -44.0081 H         1 UNK         0.3000 
    191 H191       -3.6174  -24.9217  -42.1098 H         1 UNK         0.0600 
    192 H192       -0.7054  -24.0103  -41.8257 H         1 UNK         0.0600 
    193 H193       -1.7647  -24.5544  -40.5359 H         1 UNK         0.0600 
    194 H194       -2.1170  -23.0530  -41.3784 H         1 UNK         0.0600 
    195 H195       -0.6966  -25.5702  -44.0320 H         1 UNK         0.3000 
    196 H196       -0.3956  -28.3459  -43.2422 H         1 UNK         0.0600 
    197 H197        1.4095  -28.2814  -44.9534 H         1 UNK         0.0600 
    198 H198        1.5066  -26.8454  -43.9555 H         1 UNK         0.0600 
    199 H199        0.8121  -26.7438  -45.5695 H         1 UNK         0.0600 
    200 H200       -0.0503  -29.8486  -45.3305 H         1 UNK         0.3000 
    201 H201       -2.6728  -30.2933  -46.5138 H         1 UNK         0.0600 
    202 H202       -1.2713  -32.1614  -45.6494 H         1 UNK         0.0600 
    203 H203       -0.0090  -31.7798  -46.8215 H         1 UNK         0.0600 
    204 H204       -1.5786  -32.3586  -47.3658 H         1 UNK         0.0600 
    205 H205       -0.1043  -28.3054  -47.4387 H         1 UNK         0.3000 
    206 H206        0.1385  -28.8148  -50.2247 H         1 UNK         0.0600 
    207 H207        1.8567  -27.5909  -48.9487 H         1 UNK         0.0600 
    208 H208        1.2558  -26.5685  -50.2451 H         1 UNK         0.0600 
    209 H209        0.7216  -26.2907  -48.5933 H         1 UNK         0.0600 
    210 H210       -2.0331  -26.6774  -48.4095 H         1 UNK         0.3000 
    211 H211       -3.9364  -25.6824  -48.8305 H         1 UNK         0.0600 
    212 H212       -4.1622  -27.4488  -51.3279 H         1 UNK         0.0600 
    213 H213       -5.4659  -26.5039  -50.6108 H         1 UNK         0.0600 
    214 H214       -4.7473  -27.8292  -49.7151 H         1 UNK         0.0600 
    215 H215       -4.0815  -25.6165  -52.2047 H         1 UNK         0.3000 
    216 H216       -4.0194  -24.0452  -53.7503 H         1 UNK         0.0600 
    217 H217       -2.4684  -22.1674  -53.7980 H         1 UNK         0.0600 
    218 H218       -1.6024  -23.5732  -53.2065 H         1 UNK         0.0600 
    219 H219       -2.1182  -22.3216  -52.0831 H         1 UNK         0.0600 
    220 H220       -3.8682  -21.0152  -52.6114 H         1 UNK         0.3000 
    221 H221       -6.3899  -20.7670  -51.2580 H         1 UNK         0.0600 
    222 H222       -6.1912  -19.8817  -54.2048 H         1 UNK         0.0600 
    223 H223       -7.2338  -21.1646  -53.5978 H         1 UNK         0.0600 
    224 H224       -7.5213  -19.5029  -53.1192 H         1 UNK         0.0600 
    225 H225       -6.9162  -18.3793  -51.1169 H         1 UNK         0.3000 
    226 H226       -4.9944  -17.0340  -49.7362 H         1 UNK         0.0600 
    227 H227       -7.3804  -16.5638  -49.5327 H         1 UNK         0.0600 
    228 H228       -6.5495  -15.0708  -49.9352 H         1 UNK         0.0600 
    229 H229       -7.4511  -15.9290  -51.1780 H         1 UNK         0.0600 
    230 H230       -3.0664  -16.5273  -50.4237 H         1 UNK         0.3000 
    231 H231       -1.3267  -15.5941  -51.3873 H         1 UNK         0.0600 
    232 H232       -1.4919  -13.3938  -52.4386 H         1 UNK         0.0600 
    233 H233       -2.5981  -13.4693  -51.0782 H         1 UNK         0.0600 
    234 H234       -3.2154  -13.5973  -52.7246 H         1 UNK         0.0600 
    235 H235       -3.0012  -17.7078  -52.9152 H         1 UNK         0.3000 
    236 H236       -1.9509  -17.3467  -55.6730 H         1 UNK         0.0600 
    237 H237       -3.8019  -19.5021  -54.5401 H         1 UNK         0.0600 
    238 H238       -4.3736  -17.9958  -55.2589 H         1 UNK         0.0600 
    239 H239       -3.4817  -19.1565  -56.2310 H         1 UNK         0.0600 
    240 H240       -0.7772  -18.5010  -52.8140 H         1 UNK         0.3000 
    241 H241        0.2281  -21.0638  -53.4095 H         1 UNK         0.0600 
    242 H242        1.4977  -18.0729  -54.7062 H         1 UNK         0.3800 
    243 H243        3.0401  -18.7332  -55.1818 H         1 UNK         0.3800 
    244 H244        1.6143  -20.8053  -51.3821 H         1 UNK         0.0800 
    245 H245        1.3569  -19.0824  -51.3735 H         1 UNK         0.0800 
    246 H246       -1.0382  -17.9555  -50.8235 H         1 UNK         0.0800 
    247 H247        0.0074  -18.2939  -49.4636 H         1 UNK         0.0800 
@<TRIPOS>BOND
     1    1    2 1    
     2    1  127 1    
     3    1  128 1    
     4    1  129 1    
     5    2    3 2    
     6    2    4 am   BACKBONE|DICT|INTERRES
     7    4    5 1    
     8    4  130 1    
     9    5    6 1    
    10    5   65 1    
    11    5  131 1    
    12    6    7 1    
    13    6  132 1    
    14    6  133 1    
    15    7    8 1    
    16    8    9 1    
    17    8  134 1    
    18    8  135 1    
    19    9   10 ar   
    20    9   14 ar   
    21   10   11 ar   
    22   10  136 1    
    23   11   12 ar   
    24   11  126 1    
    25   12   13 ar   
    26   12  137 1    
    27   13   14 ar   
    28   13   15 1    
    29   14  138 1    
    30   15   16 1    
    31   15  139 1    
    32   15  140 1    
    33   16   17 1    
    34   17   18 1    
    35   17  141 1    
    36   17  142 1    
    37   18   19 1    
    38   18   67 1    
    39   18  143 1    
    40   19   20 am   BACKBONE|DICT|INTERRES
    41   19  144 1    
    42   20   21 2    
    43   20   22 1    
    44   22   23 1    
    45   22   24 1    
    46   22  145 1    
    47   23  146 1    
    48   23  147 1    
    49   23  148 1    
    50   24   25 am   BACKBONE|DICT|INTERRES
    51   24  149 1    
    52   25   26 2    
    53   25   27 1    
    54   27   28 1    
    55   27   29 1    
    56   27  150 1    
    57   28  151 1    
    58   28  152 1    
    59   28  153 1    
    60   29   30 am   BACKBONE|DICT|INTERRES
    61   29  154 1    
    62   30   31 2    
    63   30   32 1    
    64   32   33 1    
    65   32   34 1    
    66   32  155 1    
    67   33  156 1    
    68   33  157 1    
    69   33  158 1    
    70   34   35 am   BACKBONE|DICT|INTERRES
    71   34  159 1    
    72   35   36 2    
    73   35   37 1    
    74   37   38 1    
    75   37   39 1    
    76   37  160 1    
    77   38  161 1    
    78   38  162 1    
    79   38  163 1    
    80   39   40 am   BACKBONE|DICT|INTERRES
    81   39  164 1    
    82   40   41 2    
    83   40   42 1    
    84   42   43 1    
    85   42   44 1    
    86   42  165 1    
    87   43  166 1    
    88   43  167 1    
    89   43  168 1    
    90   44   45 am   BACKBONE|DICT|INTERRES
    91   44  169 1    
    92   45   46 2    
    93   45   47 1    
    94   47   48 1    
    95   47   49 1    
    96   47  170 1    
    97   48  171 1    
    98   48  172 1    
    99   48  173 1    
   100   49   50 am   BACKBONE|DICT|INTERRES
   101   49  174 1    
   102   50   51 2    
   103   50   52 1    
   104   52   53 1    
   105   52   54 1    
   106   52  175 1    
   107   53  176 1    
   108   53  177 1    
   109   53  178 1    
   110   54   55 am   BACKBONE|DICT|INTERRES
   111   54  179 1    
   112   55   56 2    
   113   55   57 1    
   114   57   58 1    
   115   57   59 1    
   116   57  180 1    
   117   58  181 1    
   118   58  182 1    
   119   58  183 1    
   120   59   60 am   BACKBONE|DICT|INTERRES
   121   59  184 1    
   122   60   61 2    
   123   60   62 1    
   124   62   63 1    
   125   62   64 1    
   126   62  185 1    
   127   63  186 1    
   128   63  187 1    
   129   63  188 1    
   130   64   65 am   BACKBONE|DICT|INTERRES
   131   64  189 1    
   132   65   66 2    
   133   67   68 2    
   134   67   69 am   BACKBONE|DICT|INTERRES
   135   69   70 1    
   136   69  190 1    
   137   70   71 1    
   138   70   72 1    
   139   70  191 1    
   140   71  192 1    
   141   71  193 1    
   142   71  194 1    
   143   72   73 2    
   144   72   74 am   BACKBONE|DICT|INTERRES
   145   74   75 1    
   146   74  195 1    
   147   75   76 1    
   148   75   77 1    
   149   75  196 1    
   150   76  197 1    
   151   76  198 1    
   152   76  199 1    
   153   77   78 2    
   154   77   79 am   BACKBONE|DICT|INTERRES
   155   79   80 1    
   156   79  200 1    
   157   80   81 1    
   158   80   82 1    
   159   80  201 1    
   160   81  202 1    
   161   81  203 1    
   162   81  204 1    
   163   82   83 2    
   164   82   84 am   BACKBONE|DICT|INTERRES
   165   84   85 1    
   166   84  205 1    
   167   85   86 1    
   168   85   87 1    
   169   85  206 1    
   170   86  207 1    
   171   86  208 1    
   172   86  209 1    
   173   87   88 2    
   174   87   89 am   BACKBONE|DICT|INTERRES
   175   89   90 1    
   176   89  210 1    
   177   90   91 1    
   178   90   92 1    
   179   90  211 1    
   180   91  212 1    
   181   91  213 1    
   182   91  214 1    
   183   92   93 2    
   184   92   94 am   BACKBONE|DICT|INTERRES
   185   94   95 1    
   186   94  215 1    
   187   95   96 1    
   188   95   97 1    
   189   95  216 1    
   190   96  217 1    
   191   96  218 1    
   192   96  219 1    
   193   97   98 2    
   194   97   99 am   BACKBONE|DICT|INTERRES
   195   99  100 1    
   196   99  220 1    
   197  100  101 1    
   198  100  102 1    
   199  100  221 1    
   200  101  222 1    
   201  101  223 1    
   202  101  224 1    
   203  102  103 2    
   204  102  104 am   BACKBONE|DICT|INTERRES
   205  104  105 1    
   206  104  225 1    
   207  105  106 1    
   208  105  107 1    
   209  105  226 1    
   210  106  227 1    
   211  106  228 1    
   212  106  229 1    
   213  107  108 2    
   214  107  109 am   BACKBONE|DICT|INTERRES
   215  109  110 1    
   216  109  230 1    
   217  110  111 1    
   218  110  112 1    
   219  110  231 1    
   220  111  232 1    
   221  111  233 1    
   222  111  234 1    
   223  112  113 2    
   224  112  114 am   BACKBONE|DICT|INTERRES
   225  114  115 1    
   226  114  235 1    
   227  115  116 1    
   228  115  117 1    
   229  115  236 1    
   230  116  237 1    
   231  116  238 1    
   232  116  239 1    
   233  117  118 2    
   234  117  119 am   BACKBONE|DICT|INTERRES
   235  119  120 1    
   236  119  240 1    
   237  120  121 1    
   238  120  124 1    
   239  120  241 1    
   240  121  122 am   BACKBONE|DICT|INTERRES
   241  121  123 2    
   242  122  242 1    
   243  122  243 1    
   244  124  125 1    
   245  124  244 1    
   246  124  245 1    
   247  125  126 1    
   248  126  246 1    
   249  126  247 1    
@<TRIPOS>SUBSTRUCTURE
     1 UNK         1 GROUP             0       ****    0 ROOT    
