@<TRIPOS>MOLECULE
3R540
247   249    1
SMALL
USER_CHARGES


@<TRIPOS>ATOM
      1 CA          2.7155  -15.4926  -47.2438 C.3       0 UNK        -0.1800 
      2 C           1.4090  -15.2477  -47.9827 C.2       0 UNK         0.5000 
      3 O           1.3642  -14.4000  -48.8732 O.2       0 UNK        -0.5000 
      4 N           0.3567  -15.9969  -47.6248 N.am      1 UNK        -0.5000 
      5 CA         -0.9719  -15.9946  -48.2620 C.3       1 UNK         0.1400 
      6 C6         -0.9490  -16.3711  -49.7717 C.3       23 UNK        -0.0398 
      7 S7         -0.3398  -18.0641  -50.0903 S.3       23 UNK        -0.2404 
      8 C8          1.4011  -17.7592  -50.5204 C.3       23 UNK        -0.0205 
      9 C9          1.9728  -18.8791  -51.3751 C.ar      23 UNK        -0.0193 
     10 C10         1.7184  -18.8959  -52.7497 C.ar      23 UNK        -0.1150 
     11 C11         2.2635  -19.8924  -53.5641 C.ar      23 UNK        -0.0193 
     12 C12         3.0752  -20.8747  -52.9894 C.ar      23 UNK        -0.1150 
     13 C13         3.3552  -20.8603  -51.6193 C.ar      23 UNK        -0.0193 
     14 C14         2.7902  -19.8661  -50.8126 C.ar      23 UNK        -0.1150 
     15 C15         4.3226  -21.8830  -51.0389 C.3       23 UNK        -0.0205 
     16 S16         3.4693  -23.3149  -50.3094 S.3       23 UNK        -0.2404 
     17 C17         3.5605  -22.9118  -48.5325 C.3       23 UNK        -0.0398 
     18 CA          2.3932  -23.5121  -47.7139 C.3       11 UNK         0.1400 
     19 N           2.7090  -23.5528  -46.2835 N.am      11 UNK        -0.5000 
     20 C           1.9639  -24.1615  -45.3497 C.2       10 UNK         0.5000 
     21 O           0.9418  -24.8009  -45.5954 O.2       10 UNK        -0.5000 
     22 CA          2.4153  -23.9857  -43.8885 C.3       10 UNK         0.1400 
     23 CB          3.4303  -25.0719  -43.5029 C.3       10 UNK        -0.1800 
     24 N           2.9861  -22.6642  -43.6088 N.am      10 UNK        -0.5000 
     25 C           2.3119  -21.5113  -43.7075 C.2       9 UNK         0.5000 
     26 O           1.1463  -21.4301  -44.1016 O.2       9 UNK        -0.5000 
     27 CA          3.0666  -20.2328  -43.3160 C.3       9 UNK         0.1400 
     28 CB          3.2720  -19.3152  -44.5316 C.3       9 UNK        -0.1800 
     29 N           2.2916  -19.5308  -42.2988 N.am      9 UNK        -0.5000 
     30 C           2.4268  -19.7330  -40.9814 C.2       8 UNK         0.5000 
     31 O           3.3139  -20.4286  -40.4848 O.2       8 UNK        -0.5000 
     32 CA          1.3935  -19.0621  -40.0569 C.3       8 UNK         0.1400 
     33 CB          1.9384  -17.7356  -39.5046 C.3       8 UNK        -0.1800 
     34 N           0.0966  -18.8306  -40.6997 N.am      8 UNK        -0.5000 
     35 C          -0.7710  -19.8059  -41.0115 C.2       7 UNK         0.5000 
     36 O          -0.5484  -20.9989  -40.8052 O.2       7 UNK        -0.5000 
     37 CA         -2.1120  -19.3982  -41.6433 C.3       7 UNK         0.1400 
     38 CB         -3.1598  -19.1376  -40.5500 C.3       7 UNK        -0.1800 
     39 N          -1.9939  -18.2037  -42.4807 N.am      7 UNK        -0.5000 
     40 C          -2.3573  -18.1376  -43.7703 C.2       6 UNK         0.5000 
     41 O          -2.8129  -19.0878  -44.4046 O.2       6 UNK        -0.5000 
     42 CA         -2.1953  -16.7779  -44.4803 C.3       6 UNK         0.1400 
     43 CB         -3.5175  -15.9976  -44.4528 C.3       6 UNK        -0.1800 
     44 N          -1.1441  -15.9574  -43.8834 N.am      6 UNK        -0.5000 
     45 C           0.1664  -16.2156  -43.9856 C.2       5 UNK         0.5000 
     46 O           0.6265  -17.0202  -44.7932 O.2       5 UNK        -0.5000 
     47 CA          1.1238  -15.4955  -43.0129 C.3       5 UNK         0.1400 
     48 CB          2.2391  -14.7473  -43.7563 C.3       5 UNK        -0.1800 
     49 N           0.4607  -14.5770  -42.0849 N.am      5 UNK        -0.5000 
     50 C          -0.3236  -14.9341  -41.0581 C.2       4 UNK         0.5000 
     51 O          -0.6008  -16.1047  -40.7939 O.2       4 UNK        -0.5000 
     52 CA         -0.9566  -13.7908  -40.2423 C.3       4 UNK         0.1400 
     53 CB         -0.0343  -13.3842  -39.0841 C.3       4 UNK        -0.1800 
     54 N          -1.2561  -12.6143  -41.0653 N.am      4 UNK        -0.5000 
     55 C          -2.1653  -12.5989  -42.0502 C.2       3 UNK         0.5000 
     56 O          -2.9030  -13.5552  -42.2951 O.2       3 UNK        -0.5000 
     57 CA         -2.2616  -11.3316  -42.9296 C.3       3 UNK         0.1400 
     58 CB         -1.0906  -10.3404  -42.7400 C.3       3 UNK        -0.1800 
     59 N          -2.4217  -11.6724  -44.3496 N.am      3 UNK        -0.5000 
     60 C          -1.5847  -12.4104  -45.0926 C.2       2 UNK         0.5000 
     61 O          -0.5088  -12.8581  -44.6877 O.2       2 UNK        -0.5000 
     62 CA         -2.0207  -12.6910  -46.5362 C.3       2 UNK         0.1400 
     63 CB         -1.6412  -11.5232  -47.4639 C.3       2 UNK        -0.1800 
     64 N          -1.3716  -13.9175  -46.9856 N.am      2 UNK        -0.5000 
     65 C          -1.7838  -14.7051  -47.9854 C.2       1 UNK         0.5000 
     66 O          -2.7903  -14.4666  -48.6539 O.2       1 UNK        -0.5000 
     67 C           1.0718  -22.7626  -47.9746 C.2       11 UNK         0.5000 
     68 O           0.2106  -23.2740  -48.6892 O.2       11 UNK        -0.5000 
     69 N           0.9174  -21.5921  -47.3388 N.am      12 UNK        -0.5000 
     70 CA         -0.2887  -20.7726  -47.4154 C.3       12 UNK         0.1400 
     71 CB         -0.0378  -19.4165  -46.7507 C.3       12 UNK        -0.1800 
     72 C          -1.5011  -21.4623  -46.7770 C.2       12 UNK         0.5000 
     73 O          -2.5803  -21.4378  -47.3648 O.2       12 UNK        -0.5000 
     74 N          -1.2922  -22.1008  -45.6176 N.am      13 UNK        -0.5000 
     75 CA         -2.3100  -22.8745  -44.9092 C.3       13 UNK         0.1400 
     76 CB         -1.7536  -23.3350  -43.5542 C.3       13 UNK        -0.1800 
     77 C          -2.8218  -24.0722  -45.7322 C.2       13 UNK         0.5000 
     78 O          -4.0321  -24.2893  -45.7960 O.2       13 UNK        -0.5000 
     79 N          -1.8985  -24.8011  -46.3760 N.am      14 UNK        -0.5000 
     80 CA         -2.1973  -25.9278  -47.2606 C.3       14 UNK         0.1400 
     81 CB         -0.9005  -26.6891  -47.5751 C.3       14 UNK        -0.1800 
     82 C          -2.9046  -25.5015  -48.5604 C.2       14 UNK         0.5000 
     83 O          -3.8427  -26.1750  -48.9883 O.2       14 UNK        -0.5000 
     84 N          -2.4530  -24.3912  -49.1593 N.am      15 UNK        -0.5000 
     85 CA         -2.9963  -23.8373  -50.4024 C.3       15 UNK         0.1400 
     86 CB         -1.9167  -22.9735  -51.0705 C.3       15 UNK        -0.1800 
     87 C          -4.3018  -23.0357  -50.2126 C.2       15 UNK         0.5000 
     88 O          -4.9283  -22.6754  -51.2086 O.2       15 UNK        -0.5000 
     89 N          -4.6838  -22.7736  -48.9545 N.am      16 UNK        -0.5000 
     90 CA         -5.8398  -21.9888  -48.5111 C.3       16 UNK         0.1400 
     91 CB         -7.1675  -22.6482  -48.9390 C.3       16 UNK        -0.1800 
     92 C          -5.7292  -20.4938  -48.8816 C.2       16 UNK         0.5000 
     93 O          -6.7138  -19.8734  -49.2884 O.2       16 UNK        -0.5000 
     94 N          -4.5216  -19.9444  -48.6900 N.am      17 UNK        -0.5000 
     95 CA         -4.1305  -18.5377  -48.7892 C.3       17 UNK         0.1400 
     96 CB         -4.5950  -17.7839  -47.5273 C.3       17 UNK        -0.1800 
     97 C          -4.5705  -17.8715  -50.1069 C.2       17 UNK         0.5000 
     98 O          -3.9776  -18.1453  -51.1477 O.2       17 UNK        -0.5000 
     99 N          -5.6044  -17.0219  -50.0524 N.am      18 UNK        -0.5000 
    100 CA        -6.1643  -16.2992  -51.1966 C.3       18 UNK         0.1400 
    101 CB        -7.2188  -15.3060  -50.6847 C.3       18 UNK        -0.1800 
    102 C         -6.7626  -17.2065  -52.2924 C.2       18 UNK         0.5000 
    103 O         -6.8852  -16.7633  -53.4348 O.2       18 UNK        -0.5000 
    104 N         -7.1149  -18.4509  -51.9406 N.am      19 UNK        -0.5000 
    105 CA        -7.6334  -19.4579  -52.8659 C.3       19 UNK         0.1400 
    106 CB        -8.5614  -20.4088  -52.0940 C.3       19 UNK        -0.1800 
    107 C         -6.5279  -20.2424  -53.6048 C.2       19 UNK         0.5000 
    108 O         -6.8654  -21.0810  -54.4426 O.2       19 UNK        -0.5000 
    109 N         -5.2457  -19.9849  -53.2979 N.am      20 UNK        -0.5000 
    110 CA        -4.0909  -20.6355  -53.9210 C.3       20 UNK         0.1400 
    111 CB        -2.8023  -20.1790  -53.2196 C.3       20 UNK        -0.1800 
    112 C         -4.0125  -20.3447  -55.4316 C.2       20 UNK         0.5000 
    113 O         -3.9710  -19.1770  -55.8265 O.2       20 UNK        -0.5000 
    114 N         -4.0068  -21.4088  -56.2448 N.am      21 UNK        -0.5000 
    115 CA        -3.9329  -21.3229  -57.7039 C.3       21 UNK         0.1400 
    116 CB        -4.4071  -22.6487  -58.3199 C.3       21 UNK        -0.1800 
    117 C         -2.5183  -20.9669  -58.1921 C.2       21 UNK         0.5000 
    118 O         -2.3774  -20.1207  -59.0757 O.2       21 UNK        -0.5000 
    119 N         -1.5059  -21.6150  -57.5963 N.am      22 UNK        -0.5000 
    120 CA        -0.0667  -21.4096  -57.8529 C.3       22 UNK         0.1400 
    121 C          0.4037  -21.7439  -59.3046 C.2       22 UNK         0.5000 
    122 N         -0.3358  -22.5365  -60.0710 N.am      22 UNK        -0.7600 
    123 O          1.4696  -21.3131  -59.7370 O.2       22 UNK        -0.5000 
    124 C124        0.4275  -20.0222  -57.3536 C.3       23 UNK        -0.0398 
    125 S125        0.2824  -19.8659  -55.5390 S.3       23 UNK        -0.2404 
    126 C126        2.0428  -19.8717  -55.0714 C.3       23 UNK        -0.0205 
    127 H127        3.0007  -14.6047  -46.6803 H         1 UNK         0.0600 
    128 H128        3.5105  -15.7140  -47.9556 H         1 UNK         0.0600 
    129 H129        2.6394  -16.3341  -46.5549 H         1 UNK         0.0600 
    130 H130        0.4622  -16.6284  -46.8370 H         1 UNK         0.3000 
    131 H131       -1.5389  -16.7757  -47.7598 H         1 UNK         0.0600 
    132 H132       -1.9560  -16.3356  -50.1889 H         1 UNK         0.0800 
    133 H133       -0.3764  -15.6475  -50.3518 H         1 UNK         0.0800 
    134 H134        1.9814  -17.6490  -49.6039 H         1 UNK         0.0800 
    135 H135        1.4956  -16.8164  -51.0609 H         1 UNK         0.0800 
    136 H136        1.1013  -18.1245  -53.1889 H         1 UNK         0.1150 
    137 H137        3.5195  -21.6361  -53.6152 H         1 UNK         0.1150 
    138 H138        3.0061  -19.8451  -49.7540 H         1 UNK         0.1150 
    139 H139        4.9871  -22.2474  -51.8238 H         1 UNK         0.0800 
    140 H140        4.9741  -21.4077  -50.3042 H         1 UNK         0.0800 
    141 H141        3.6190  -21.8312  -48.3915 H         1 UNK         0.0800 
    142 H142        4.5091  -23.3119  -48.1714 H         1 UNK         0.0800 
    143 H143        2.2506  -24.5475  -48.0321 H         1 UNK         0.0600 
    144 H144        3.5323  -23.0529  -45.9827 H         1 UNK         0.3000 
    145 H145        1.5333  -24.1055  -43.2562 H         1 UNK         0.0600 
    146 H146        3.6873  -25.0139  -42.4450 H         1 UNK         0.0600 
    147 H147        3.0229  -26.0678  -43.6824 H         1 UNK         0.0600 
    148 H148        4.3526  -24.9857  -44.0787 H         1 UNK         0.0600 
    149 H149        3.9376  -22.6488  -43.2704 H         1 UNK         0.3000 
    150 H150        4.0518  -20.4947  -42.9241 H         1 UNK         0.0600 
    151 H151        3.8700  -19.8095  -45.2979 H         1 UNK         0.0600 
    152 H152        3.7938  -18.4004  -44.2503 H         1 UNK         0.0600 
    153 H153        2.3269  -19.0279  -44.9890 H         1 UNK         0.0600 
    154 H154        1.4908  -19.0120  -42.6274 H         1 UNK         0.3000 
    155 H155        1.2322  -19.7327  -39.2100 H         1 UNK         0.0600 
    156 H156        2.1462  -17.0191  -40.2982 H         1 UNK         0.0600 
    157 H157        2.8686  -17.8948  -38.9578 H         1 UNK         0.0600 
    158 H158        1.2315  -17.2750  -38.8141 H         1 UNK         0.0600 
    159 H159       -0.1762  -17.8580  -40.8168 H         1 UNK         0.3000 
    160 H160       -2.4494  -20.2498  -42.2378 H         1 UNK         0.0600 
    161 H161       -2.8818  -18.2912  -39.9204 H         1 UNK         0.0600 
    162 H162       -3.2753  -20.0075  -39.9021 H         1 UNK         0.0600 
    163 H163       -4.1363  -18.9246  -40.9853 H         1 UNK         0.0600 
    164 H164       -1.6263  -17.3727  -42.0322 H         1 UNK         0.3000 
    165 H165       -1.9362  -16.9771  -45.5193 H         1 UNK         0.0600 
    166 H166       -3.4350  -15.0564  -44.9956 H         1 UNK         0.0600 
    167 H167       -4.3245  -16.5689  -44.9108 H         1 UNK         0.0600 
    168 H168       -3.8264  -15.7714  -43.4320 H         1 UNK         0.0600 
    169 H169       -1.4440  -15.2400  -43.2366 H         1 UNK         0.3000 
    170 H170        1.5986  -16.2788  -42.4211 H         1 UNK         0.0600 
    171 H171        2.8584  -15.4430  -44.3220 H         1 UNK         0.0600 
    172 H172        1.8410  -14.0113  -44.4545 H         1 UNK         0.0600 
    173 H173        2.8991  -14.2285  -43.0611 H         1 UNK         0.0600 
    174 H174        0.5715  -13.5928  -42.2837 H         1 UNK         0.3000 
    175 H175       -1.8931  -14.1629  -39.8213 H         1 UNK         0.0600 
    176 H176        0.9146  -12.9845  -39.4442 H         1 UNK         0.0600 
    177 H177       -0.5016  -12.6262  -38.4552 H         1 UNK         0.0600 
    178 H178        0.1911  -14.2403  -38.4464 H         1 UNK         0.0600 
    179 H179       -0.6877  -11.7936  -40.9137 H         1 UNK         0.3000 
    180 H180       -3.1787  -10.8236  -42.6287 H         1 UNK         0.0600 
    181 H181       -0.1248  -10.7987  -42.9560 H         1 UNK         0.0600 
    182 H182       -1.0580   -9.9538  -41.7209 H         1 UNK         0.0600 
    183 H183       -1.2000   -9.4799  -43.4002 H         1 UNK         0.0600 
    184 H184       -3.2910  -11.3704  -44.7664 H         1 UNK         0.3000 
    185 H185       -3.1033  -12.8338  -46.5481 H         1 UNK         0.0600 
    186 H186       -0.5616  -11.3701  -47.4912 H         1 UNK         0.0600 
    187 H187       -1.9791  -11.7012  -48.4849 H         1 UNK         0.0600 
    188 H188       -2.0983  -10.5911  -47.1299 H         1 UNK         0.0600 
    189 H189       -0.5571  -14.1774  -46.4437 H         1 UNK         0.3000 
    190 H190        1.6374  -21.2769  -46.7072 H         1 UNK         0.3000 
    191 H191       -0.5141  -20.6047  -48.4705 H         1 UNK         0.0600 
    192 H192       -0.9125  -18.7772  -46.8556 H         1 UNK         0.0600 
    193 H193        0.8093  -18.8997  -47.2014 H         1 UNK         0.0600 
    194 H194        0.1524  -19.5212  -45.6830 H         1 UNK         0.0600 
    195 H195       -0.3814  -22.0225  -45.1747 H         1 UNK         0.3000 
    196 H196       -3.1553  -22.2089  -44.7216 H         1 UNK         0.0600 
    197 H197       -2.5184  -23.8519  -42.9737 H         1 UNK         0.0600 
    198 H198       -1.4101  -22.4876  -42.9614 H         1 UNK         0.0600 
    199 H199       -0.9136  -24.0188  -43.6742 H         1 UNK         0.0600 
    200 H200       -0.9161  -24.5827  -46.2376 H         1 UNK         0.3000 
    201 H201       -2.8657  -26.6063  -46.7264 H         1 UNK         0.0600 
    202 H202       -0.4404  -27.0749  -46.6652 H         1 UNK         0.0600 
    203 H203       -0.1697  -26.0507  -48.0733 H         1 UNK         0.0600 
    204 H204       -1.0942  -27.5408  -48.2283 H         1 UNK         0.0600 
    205 H205       -1.6370  -23.9207  -48.7767 H         1 UNK         0.3000 
    206 H206       -3.2224  -24.6655  -51.0772 H         1 UNK         0.0600 
    207 H207       -0.9814  -23.5223  -51.1826 H         1 UNK         0.0600 
    208 H208       -2.2295  -22.6738  -52.0696 H         1 UNK         0.0600 
    209 H209       -1.7091  -22.0697  -50.4956 H         1 UNK         0.0600 
    210 H210       -4.0573  -23.0696  -48.2172 H         1 UNK         0.3000 
    211 H211       -5.8104  -22.0166  -47.4208 H         1 UNK         0.0600 
    212 H212       -7.2707  -22.6997  -50.0218 H         1 UNK         0.0600 
    213 H213       -8.0241  -22.0941  -48.5537 H         1 UNK         0.0600 
    214 H214       -7.2395  -23.6643  -48.5515 H         1 UNK         0.0600 
    215 H215       -3.7919  -20.5623  -48.3364 H         1 UNK         0.3000 
    216 H216       -3.0405  -18.5301  -48.7929 H         1 UNK         0.0600 
    217 H217       -4.2910  -16.7368  -47.5543 H         1 UNK         0.0600 
    218 H218       -4.1496  -18.2278  -46.6376 H         1 UNK         0.0600 
    219 H219       -5.6775  -17.8180  -47.4004 H         1 UNK         0.0600 
    220 H220       -6.0594  -16.8776  -49.1631 H         1 UNK         0.3000 
    221 H221       -5.3533  -15.7303  -51.6558 H         1 UNK         0.0600 
    222 H222       -8.0452  -15.8178  -50.1898 H         1 UNK         0.0600 
    223 H223       -6.7855  -14.6006  -49.9753 H         1 UNK         0.0600 
    224 H224       -7.6382  -14.7225  -51.5053 H         1 UNK         0.0600 
    225 H225       -6.9664  -18.7554  -50.9828 H         1 UNK         0.3000 
    226 H226       -8.2356  -18.9612  -53.6295 H         1 UNK         0.0600 
    227 H227       -8.0112  -20.9830  -51.3508 H         1 UNK         0.0600 
    228 H228       -9.3515  -19.8618  -51.5794 H         1 UNK         0.0600 
    229 H229       -9.0429  -21.1202  -52.7658 H         1 UNK         0.0600 
    230 H230       -5.0367  -19.2778  -52.6029 H         1 UNK         0.3000 
    231 H231       -4.1976  -21.7111  -53.7667 H         1 UNK         0.0600 
    232 H232       -1.9353  -20.7136  -53.6081 H         1 UNK         0.0600 
    233 H233       -2.8472  -20.3659  -52.1468 H         1 UNK         0.0600 
    234 H234       -2.6198  -19.1131  -53.3621 H         1 UNK         0.0600 
    235 H235       -4.0738  -22.3340  -55.8463 H         1 UNK         0.3000 
    236 H236       -4.6115  -20.5358  -58.0403 H         1 UNK         0.0600 
    237 H237       -5.4373  -22.8666  -58.0374 H         1 UNK         0.0600 
    238 H238       -4.3725  -22.6067  -59.4093 H         1 UNK         0.0600 
    239 H239       -3.7881  -23.4891  -58.0034 H         1 UNK         0.0600 
    240 H240       -1.7278  -22.2900  -56.8798 H         1 UNK         0.3000 
    241 H241        0.4411  -22.1608  -57.2468 H         1 UNK         0.0600 
    242 H242       -0.0226  -22.7587  -61.0031 H         1 UNK         0.3800 
    243 H243       -1.2071  -22.9114  -59.7320 H         1 UNK         0.3800 
    244 H244       -0.1394  -19.2175  -57.8227 H         1 UNK         0.0800 
    245 H245        1.4678  -19.8511  -57.6341 H         1 UNK         0.0800 
    246 H246        2.5255  -18.9845  -55.4835 H         1 UNK         0.0800 
    247 H247        2.5252  -20.7328  -55.5370 H         1 UNK         0.0800 
@<TRIPOS>BOND
     1    1    2 1    
     2    1  127 1    
     3    1  128 1    
     4    1  129 1    
     5    2    3 2    
     6    2    4 am   BACKBONE|DICT|INTERRES
     7    4    5 1    
     8    4  130 1    
     9    5    6 1    
    10    5   65 1    
    11    5  131 1    
    12    6    7 1    
    13    6  132 1    
    14    6  133 1    
    15    7    8 1    
    16    8    9 1    
    17    8  134 1    
    18    8  135 1    
    19    9   10 ar   
    20    9   14 ar   
    21   10   11 ar   
    22   10  136 1    
    23   11   12 ar   
    24   11  126 1    
    25   12   13 ar   
    26   12  137 1    
    27   13   14 ar   
    28   13   15 1    
    29   14  138 1    
    30   15   16 1    
    31   15  139 1    
    32   15  140 1    
    33   16   17 1    
    34   17   18 1    
    35   17  141 1    
    36   17  142 1    
    37   18   19 1    
    38   18   67 1    
    39   18  143 1    
    40   19   20 am   BACKBONE|DICT|INTERRES
    41   19  144 1    
    42   20   21 2    
    43   20   22 1    
    44   22   23 1    
    45   22   24 1    
    46   22  145 1    
    47   23  146 1    
    48   23  147 1    
    49   23  148 1    
    50   24   25 am   BACKBONE|DICT|INTERRES
    51   24  149 1    
    52   25   26 2    
    53   25   27 1    
    54   27   28 1    
    55   27   29 1    
    56   27  150 1    
    57   28  151 1    
    58   28  152 1    
    59   28  153 1    
    60   29   30 am   BACKBONE|DICT|INTERRES
    61   29  154 1    
    62   30   31 2    
    63   30   32 1    
    64   32   33 1    
    65   32   34 1    
    66   32  155 1    
    67   33  156 1    
    68   33  157 1    
    69   33  158 1    
    70   34   35 am   BACKBONE|DICT|INTERRES
    71   34  159 1    
    72   35   36 2    
    73   35   37 1    
    74   37   38 1    
    75   37   39 1    
    76   37  160 1    
    77   38  161 1    
    78   38  162 1    
    79   38  163 1    
    80   39   40 am   BACKBONE|DICT|INTERRES
    81   39  164 1    
    82   40   41 2    
    83   40   42 1    
    84   42   43 1    
    85   42   44 1    
    86   42  165 1    
    87   43  166 1    
    88   43  167 1    
    89   43  168 1    
    90   44   45 am   BACKBONE|DICT|INTERRES
    91   44  169 1    
    92   45   46 2    
    93   45   47 1    
    94   47   48 1    
    95   47   49 1    
    96   47  170 1    
    97   48  171 1    
    98   48  172 1    
    99   48  173 1    
   100   49   50 am   BACKBONE|DICT|INTERRES
   101   49  174 1    
   102   50   51 2    
   103   50   52 1    
   104   52   53 1    
   105   52   54 1    
   106   52  175 1    
   107   53  176 1    
   108   53  177 1    
   109   53  178 1    
   110   54   55 am   BACKBONE|DICT|INTERRES
   111   54  179 1    
   112   55   56 2    
   113   55   57 1    
   114   57   58 1    
   115   57   59 1    
   116   57  180 1    
   117   58  181 1    
   118   58  182 1    
   119   58  183 1    
   120   59   60 am   BACKBONE|DICT|INTERRES
   121   59  184 1    
   122   60   61 2    
   123   60   62 1    
   124   62   63 1    
   125   62   64 1    
   126   62  185 1    
   127   63  186 1    
   128   63  187 1    
   129   63  188 1    
   130   64   65 am   BACKBONE|DICT|INTERRES
   131   64  189 1    
   132   65   66 2    
   133   67   68 2    
   134   67   69 am   BACKBONE|DICT|INTERRES
   135   69   70 1    
   136   69  190 1    
   137   70   71 1    
   138   70   72 1    
   139   70  191 1    
   140   71  192 1    
   141   71  193 1    
   142   71  194 1    
   143   72   73 2    
   144   72   74 am   BACKBONE|DICT|INTERRES
   145   74   75 1    
   146   74  195 1    
   147   75   76 1    
   148   75   77 1    
   149   75  196 1    
   150   76  197 1    
   151   76  198 1    
   152   76  199 1    
   153   77   78 2    
   154   77   79 am   BACKBONE|DICT|INTERRES
   155   79   80 1    
   156   79  200 1    
   157   80   81 1    
   158   80   82 1    
   159   80  201 1    
   160   81  202 1    
   161   81  203 1    
   162   81  204 1    
   163   82   83 2    
   164   82   84 am   BACKBONE|DICT|INTERRES
   165   84   85 1    
   166   84  205 1    
   167   85   86 1    
   168   85   87 1    
   169   85  206 1    
   170   86  207 1    
   171   86  208 1    
   172   86  209 1    
   173   87   88 2    
   174   87   89 am   BACKBONE|DICT|INTERRES
   175   89   90 1    
   176   89  210 1    
   177   90   91 1    
   178   90   92 1    
   179   90  211 1    
   180   91  212 1    
   181   91  213 1    
   182   91  214 1    
   183   92   93 2    
   184   92   94 am   BACKBONE|DICT|INTERRES
   185   94   95 1    
   186   94  215 1    
   187   95   96 1    
   188   95   97 1    
   189   95  216 1    
   190   96  217 1    
   191   96  218 1    
   192   96  219 1    
   193   97   98 2    
   194   97   99 am   BACKBONE|DICT|INTERRES
   195   99  100 1    
   196   99  220 1    
   197  100  101 1    
   198  100  102 1    
   199  100  221 1    
   200  101  222 1    
   201  101  223 1    
   202  101  224 1    
   203  102  103 2    
   204  102  104 am   BACKBONE|DICT|INTERRES
   205  104  105 1    
   206  104  225 1    
   207  105  106 1    
   208  105  107 1    
   209  105  226 1    
   210  106  227 1    
   211  106  228 1    
   212  106  229 1    
   213  107  108 2    
   214  107  109 am   BACKBONE|DICT|INTERRES
   215  109  110 1    
   216  109  230 1    
   217  110  111 1    
   218  110  112 1    
   219  110  231 1    
   220  111  232 1    
   221  111  233 1    
   222  111  234 1    
   223  112  113 2    
   224  112  114 am   BACKBONE|DICT|INTERRES
   225  114  115 1    
   226  114  235 1    
   227  115  116 1    
   228  115  117 1    
   229  115  236 1    
   230  116  237 1    
   231  116  238 1    
   232  116  239 1    
   233  117  118 2    
   234  117  119 am   BACKBONE|DICT|INTERRES
   235  119  120 1    
   236  119  240 1    
   237  120  121 1    
   238  120  124 1    
   239  120  241 1    
   240  121  122 am   BACKBONE|DICT|INTERRES
   241  121  123 2    
   242  122  242 1    
   243  122  243 1    
   244  124  125 1    
   245  124  244 1    
   246  124  245 1    
   247  125  126 1    
   248  126  246 1    
   249  126  247 1    
@<TRIPOS>SUBSTRUCTURE
     1 UNK         1 GROUP             0       ****    0 ROOT    
