@<TRIPOS>MOLECULE
3R540
247   249    1
SMALL
USER_CHARGES


@<TRIPOS>ATOM
      1 CA         -5.9272  -12.8465  -46.9359 C.3       0 UNK        -0.1800 
      2 C          -4.4255  -13.0941  -46.9306 C.2       0 UNK         0.5000 
      3 O          -3.6578  -12.1982  -46.5799 O.2       0 UNK        -0.5000 
      4 N          -4.0045  -14.3069  -47.3127 N.am      1 UNK        -0.5000 
      5 CA         -2.5971  -14.7229  -47.3818 C.3       1 UNK         0.1400 
      6 C6         -2.4085  -15.9876  -48.2565 C.3       23 UNK        -0.0398 
      7 S7         -2.5538  -15.6039  -50.0277 S.3       23 UNK        -0.2404 
      8 C8         -0.8366  -15.1197  -50.3994 C.3       23 UNK        -0.0205 
      9 C9          0.0505  -16.3064  -50.7517 C.ar      23 UNK        -0.0193 
     10 C10         0.1588  -16.7098  -52.0850 C.ar      23 UNK        -0.1150 
     11 C11         1.0315  -17.7371  -52.4493 C.ar      23 UNK        -0.0193 
     12 C12         1.7796  -18.3860  -51.4642 C.ar      23 UNK        -0.1150 
     13 C13         1.6755  -18.0022  -50.1234 C.ar      23 UNK        -0.0193 
     14 C14         0.8132  -16.9567  -49.7733 C.ar      23 UNK        -0.1150 
     15 C15         2.5425  -18.6814  -49.0693 C.3       23 UNK        -0.0205 
     16 S16         1.6126  -19.8137  -47.9869 S.3       23 UNK        -0.2404 
     17 C17         0.9792  -21.0607  -49.1701 C.3       23 UNK        -0.0398 
     18 CA         -0.2281  -21.8787  -48.6460 C.3       11 UNK         0.1400 
     19 N           0.1231  -22.7126  -47.4922 N.am      11 UNK        -0.5000 
     20 C          -0.6935  -23.5951  -46.8982 C.2       10 UNK         0.5000 
     21 O          -1.8345  -23.8456  -47.2894 O.2       10 UNK        -0.5000 
     22 CA         -0.1788  -24.2651  -45.6109 C.3       10 UNK         0.1400 
     23 CB          0.4629  -25.6213  -45.9352 C.3       10 UNK        -0.1800 
     24 N           0.7660  -23.4521  -44.8348 N.am      10 UNK        -0.5000 
     25 C           0.5088  -22.2341  -44.3393 C.2       9 UNK         0.5000 
     26 O          -0.5250  -21.6036  -44.5734 O.2       9 UNK        -0.5000 
     27 CA          1.5995  -21.5952  -43.4668 C.3       9 UNK         0.1400 
     28 CB          2.4748  -20.6589  -44.3108 C.3       9 UNK        -0.1800 
     29 N           0.9940  -20.8372  -42.3734 N.am      9 UNK        -0.5000 
     30 C           0.4191  -21.3967  -41.2984 C.2       8 UNK         0.5000 
     31 O           0.4242  -22.6113  -41.0883 O.2       8 UNK        -0.5000 
     32 CA         -0.2927  -20.4526  -40.3021 C.3       8 UNK         0.1400 
     33 CB         -0.3079  -21.0041  -38.8609 C.3       8 UNK        -0.1800 
     34 N           0.2074  -19.0738  -40.3302 N.am      8 UNK        -0.5000 
     35 C           1.4449  -18.6511  -40.0358 C.2       7 UNK         0.5000 
     36 O           2.3582  -19.3796  -39.6427 O.2       7 UNK        -0.5000 
     37 CA          1.7103  -17.1537  -40.2724 C.3       7 UNK         0.1400 
     38 CB          2.4470  -16.5160  -39.0835 C.3       7 UNK        -0.1800 
     39 N           2.4829  -16.9221  -41.4916 N.am      7 UNK        -0.5000 
     40 C           2.1113  -17.2527  -42.7375 C.2       6 UNK         0.5000 
     41 O           1.0718  -17.8606  -43.0024 O.2       6 UNK        -0.5000 
     42 CA          3.0562  -16.8024  -43.8672 C.3       6 UNK         0.1400 
     43 CB          2.3622  -16.7197  -45.2396 C.3       6 UNK        -0.1800 
     44 N           3.6372  -15.4985  -43.5465 N.am      6 UNK        -0.5000 
     45 C           4.9135  -15.1434  -43.7414 C.2       5 UNK         0.5000 
     46 O           5.7670  -15.9060  -44.1962 O.2       5 UNK        -0.5000 
     47 CA          5.3189  -13.6953  -43.3880 C.3       5 UNK         0.1400 
     48 CB          5.5283  -12.8727  -44.6694 C.3       5 UNK        -0.1800 
     49 N           4.3527  -12.9936  -42.5405 N.am      5 UNK        -0.5000 
     50 C           4.1561  -13.2270  -41.2359 C.2       4 UNK         0.5000 
     51 O           4.8061  -14.0444  -40.5840 O.2       4 UNK        -0.5000 
     52 CA          3.0154  -12.4402  -40.5528 C.3       4 UNK         0.1400 
     53 CB          3.5685  -11.1754  -39.8790 C.3       4 UNK        -0.1800 
     54 N           1.9056  -12.0635  -41.4408 N.am      4 UNK        -0.5000 
     55 C           1.1760  -12.9214  -42.1667 C.2       3 UNK         0.5000 
     56 O           1.4107  -14.1294  -42.2158 O.2       3 UNK        -0.5000 
     57 CA          0.0359  -12.3273  -43.0147 C.3       3 UNK         0.1400 
     58 CB          0.6036  -11.5304  -44.2005 C.3       3 UNK        -0.1800 
     59 N          -0.8151  -13.3894  -43.5453 N.am      3 UNK        -0.5000 
     60 C          -1.7271  -14.0820  -42.8558 C.2       2 UNK         0.5000 
     61 O          -2.0946  -13.7729  -41.7205 O.2       2 UNK        -0.5000 
     62 CA         -2.3147  -15.3297  -43.5581 C.3       2 UNK         0.1400 
     63 CB         -3.4837  -15.9592  -42.7790 C.3       2 UNK        -0.1800 
     64 N          -2.7516  -15.0761  -44.9354 N.am      2 UNK        -0.5000 
     65 C          -1.9480  -14.9300  -45.9985 C.2       1 UNK         0.5000 
     66 O          -0.7202  -14.9510  -45.9215 O.2       1 UNK        -0.5000 
     67 C          -1.4530  -20.9742  -48.3826 C.2       11 UNK         0.5000 
     68 O          -2.2387  -20.7425  -49.2996 O.2       11 UNK        -0.5000 
     69 N          -1.5971  -20.5112  -47.1345 N.am      12 UNK        -0.5000 
     70 CA         -2.6745  -19.6491  -46.6720 C.3       12 UNK         0.1400 
     71 CB         -2.0756  -18.5633  -45.7628 C.3       12 UNK        -0.1800 
     72 C          -3.7287  -20.4561  -45.9028 C.2       12 UNK         0.5000 
     73 O          -4.9215  -20.2992  -46.1600 O.2       12 UNK        -0.5000 
     74 N          -3.2672  -21.2873  -44.9598 N.am      13 UNK        -0.5000 
     75 CA         -4.0992  -21.9791  -43.9784 C.3       13 UNK         0.1400 
     76 CB         -3.2070  -22.4630  -42.8244 C.3       13 UNK        -0.1800 
     77 C          -4.9119  -23.1500  -44.5534 C.2       13 UNK         0.5000 
     78 O          -5.9949  -23.4279  -44.0361 O.2       13 UNK        -0.5000 
     79 N          -4.3817  -23.8211  -45.5841 N.am      14 UNK        -0.5000 
     80 CA         -5.0053  -24.9897  -46.2024 C.3       14 UNK         0.1400 
     81 CB         -4.0668  -26.2030  -46.0804 C.3       14 UNK        -0.1800 
     82 C          -5.3669  -24.7092  -47.6657 C.2       14 UNK         0.5000 
     83 O          -6.5211  -24.9014  -48.0500 O.2       14 UNK        -0.5000 
     84 N          -4.3799  -24.2762  -48.4611 N.am      15 UNK        -0.5000 
     85 CA         -4.5250  -24.1168  -49.9081 C.3       15 UNK         0.1400 
     86 CB         -3.1410  -24.2144  -50.5633 C.3       15 UNK        -0.1800 
     87 C          -5.2219  -22.8103  -50.3264 C.2       15 UNK         0.5000 
     88 O          -5.8151  -22.7669  -51.4069 O.2       15 UNK        -0.5000 
     89 N          -5.1045  -21.7726  -49.4831 N.am      16 UNK        -0.5000 
     90 CA         -5.6209  -20.4084  -49.6604 C.3       16 UNK         0.1400 
     91 CB         -7.1479  -20.3973  -49.4472 C.3       16 UNK        -0.1800 
     92 C          -5.1992  -19.7582  -50.9986 C.2       16 UNK         0.5000 
     93 O          -6.0051  -19.0741  -51.6314 O.2       16 UNK        -0.5000 
     94 N          -3.9629  -20.0455  -51.4345 N.am      17 UNK        -0.5000 
     95 CA         -3.3118  -19.7275  -52.7155 C.3       17 UNK         0.1400 
     96 CB         -3.1281  -18.2099  -52.8766 C.3       17 UNK        -0.1800 
     97 C          -3.9748  -20.3387  -53.9719 C.2       17 UNK         0.5000 
     98 O          -3.2724  -20.6520  -54.9346 O.2       17 UNK        -0.5000 
     99 N          -5.3012  -20.5085  -53.9515 N.am      18 UNK        -0.5000 
    100 CA        -6.1291  -21.0390  -55.0296 C.3       18 UNK         0.1400 
    101 CB        -7.6101  -20.8757  -54.6555 C.3       18 UNK        -0.1800 
    102 C         -5.8084  -22.5021  -55.3701 C.2       18 UNK         0.5000 
    103 O         -5.5799  -22.8107  -56.5398 O.2       18 UNK        -0.5000 
    104 N         -5.7542  -23.3732  -54.3511 N.am      19 UNK        -0.5000 
    105 CA        -5.4471  -24.7982  -54.5288 C.3       19 UNK         0.1400 
    106 CB        -5.9303  -25.5909  -53.3084 C.3       19 UNK        -0.1800 
    107 C         -3.9506  -25.0552  -54.7906 C.2       19 UNK         0.5000 
    108 O         -3.6019  -26.0903  -55.3586 O.2       19 UNK        -0.5000 
    109 N         -3.0995  -24.0943  -54.4046 N.am      20 UNK        -0.5000 
    110 CA        -1.6738  -24.0555  -54.7351 C.3       20 UNK         0.1400 
    111 CB        -0.9504  -23.1622  -53.7137 C.3       20 UNK        -0.1800 
    112 C         -1.4160  -23.5611  -56.1746 C.2       20 UNK         0.5000 
    113 O         -0.2874  -23.6761  -56.6538 O.2       20 UNK        -0.5000 
    114 N         -2.4585  -23.0217  -56.8279 N.am      21 UNK        -0.5000 
    115 CA        -2.4787  -22.4365  -58.1694 C.3       21 UNK         0.1400 
    116 CB        -2.2247  -23.5164  -59.2420 C.3       21 UNK        -0.1800 
    117 C         -1.5475  -21.2143  -58.2986 C.2       21 UNK         0.5000 
    118 O         -0.9121  -21.0338  -59.3398 O.2       21 UNK        -0.5000 
    119 N         -1.4815  -20.4018  -57.2361 N.am      22 UNK        -0.5000 
    120 CA        -0.6141  -19.2187  -57.1384 C.3       22 UNK         0.1400 
    121 C         -1.3712  -17.8996  -56.8080 C.2       22 UNK         0.5000 
    122 N         -2.6888  -17.9122  -56.6436 N.am      22 UNK        -0.7600 
    123 O         -0.7577  -16.8384  -56.7355 O.2       22 UNK        -0.5000 
    124 C124        0.6101  -19.4934  -56.2251 C.3       23 UNK        -0.0398 
    125 S125        0.2518  -19.5324  -54.4304 S.3       23 UNK        -0.2404 
    126 C126        1.2250  -18.0861  -53.9148 C.3       23 UNK        -0.0205 
    127 H127       -6.1686  -12.0211  -47.6056 H         1 UNK         0.0600 
    128 H128       -6.4824  -13.7250  -47.2657 H         1 UNK         0.0600 
    129 H129       -6.2680  -12.5851  -45.9341 H         1 UNK         0.0600 
    130 H130       -4.6825  -14.9944  -47.6092 H         1 UNK         0.3000 
    131 H131       -2.0367  -13.9059  -47.8416 H         1 UNK         0.0600 
    132 H132       -3.1485  -16.7468  -48.0015 H         1 UNK         0.0800 
    133 H133       -1.4370  -16.4542  -48.0938 H         1 UNK         0.0800 
    134 H134       -0.4100  -14.5672  -49.5610 H         1 UNK         0.0800 
    135 H135       -0.8528  -14.4189  -51.2355 H         1 UNK         0.0800 
    136 H136       -0.4137  -16.1991  -52.8470 H         1 UNK         0.1150 
    137 H137        2.4619  -19.1751  -51.7480 H         1 UNK         0.1150 
    138 H138        0.7570  -16.6393  -48.7417 H         1 UNK         0.1150 
    139 H139        3.3589  -19.2325  -49.5387 H         1 UNK         0.0800 
    140 H140        3.0127  -17.9169  -48.4491 H         1 UNK         0.0800 
    141 H141        0.6975  -20.5689  -50.1016 H         1 UNK         0.0800 
    142 H142        1.7979  -21.7332  -49.4291 H         1 UNK         0.0800 
    143 H143       -0.5131  -22.5666  -49.4432 H         1 UNK         0.0600 
    144 H144        1.0321  -22.5504  -47.0847 H         1 UNK         0.3000 
    145 H145       -1.0489  -24.4455  -44.9763 H         1 UNK         0.0600 
    146 H146        0.7336  -26.1579  -45.0257 H         1 UNK         0.0600 
    147 H147       -0.2272  -26.2574  -46.4916 H         1 UNK         0.0600 
    148 H148        1.3637  -25.5062  -46.5395 H         1 UNK         0.0600 
    149 H149        1.6475  -23.8908  -44.6102 H         1 UNK         0.3000 
    150 H150        2.2315  -22.3791  -43.0442 H         1 UNK         0.0600 
    151 H151        2.9845  -21.2067  -45.1043 H         1 UNK         0.0600 
    152 H152        3.2404  -20.1769  -43.7030 H         1 UNK         0.0600 
    153 H153        1.8782  -19.8795  -44.7847 H         1 UNK         0.0600 
    154 H154        0.9137  -19.8345  -42.5082 H         1 UNK         0.3000 
    155 H155       -1.3287  -20.3984  -40.6384 H         1 UNK         0.0600 
    156 H156       -0.8229  -20.3233  -38.1832 H         1 UNK         0.0600 
    157 H157        0.7000  -21.1626  -38.4764 H         1 UNK         0.0600 
    158 H158       -0.8288  -21.9610  -38.8130 H         1 UNK         0.0600 
    159 H159       -0.4414  -18.3932  -40.7003 H         1 UNK         0.3000 
    160 H160        0.7538  -16.6387  -40.3855 H         1 UNK         0.0600 
    161 H161        3.4475  -16.9316  -38.9570 H         1 UNK         0.0600 
    162 H162        1.9020  -16.6795  -38.1530 H         1 UNK         0.0600 
    163 H163        2.5474  -15.4393  -39.2155 H         1 UNK         0.0600 
    164 H164        3.3544  -16.4260  -41.3762 H         1 UNK         0.3000 
    165 H165        3.8398  -17.5603  -43.9242 H         1 UNK         0.0600 
    166 H166        1.5716  -15.9704  -45.2336 H         1 UNK         0.0600 
    167 H167        3.0698  -16.4524  -46.0243 H         1 UNK         0.0600 
    168 H168        1.9108  -17.6701  -45.5231 H         1 UNK         0.0600 
    169 H169        2.9911  -14.8359  -43.1249 H         1 UNK         0.3000 
    170 H170        6.2707  -13.7449  -42.8550 H         1 UNK         0.0600 
    171 H171        6.2715  -13.3389  -45.3176 H         1 UNK         0.0600 
    172 H172        4.6049  -12.7801  -45.2426 H         1 UNK         0.0600 
    173 H173        5.8848  -11.8682  -44.4403 H         1 UNK         0.0600 
    174 H174        3.7675  -12.3081  -42.9943 H         1 UNK         0.3000 
    175 H175        2.6016  -13.0840  -39.7748 H         1 UNK         0.0600 
    176 H176        3.9626  -10.4696  -40.6112 H         1 UNK         0.0600 
    177 H177        2.7973  -10.6658  -39.3010 H         1 UNK         0.0600 
    178 H178        4.3784  -11.4208  -39.1905 H         1 UNK         0.0600 
    179 H179        1.6678  -11.0822  -41.4636 H         1 UNK         0.3000 
    180 H180       -0.5627  -11.6648  -42.3864 H         1 UNK         0.0600 
    181 H181        1.2309  -12.1533  -44.8401 H         1 UNK         0.0600 
    182 H182        1.2104  -10.6903  -43.8610 H         1 UNK         0.0600 
    183 H183       -0.1969  -11.1207  -44.8171 H         1 UNK         0.0600 
    184 H184       -0.5540  -13.7652  -44.4521 H         1 UNK         0.3000 
    185 H185       -1.5112  -16.0695  -43.5894 H         1 UNK         0.0600 
    186 H186       -4.3285  -15.2740  -42.6999 H         1 UNK         0.0600 
    187 H187       -3.8345  -16.8717  -43.2612 H         1 UNK         0.0600 
    188 H188       -3.1810  -16.2286  -41.7663 H         1 UNK         0.0600 
    189 H189       -3.7470  -14.9951  -45.0810 H         1 UNK         0.3000 
    190 H190       -0.9251  -20.7994  -46.4326 H         1 UNK         0.3000 
    191 H191       -3.1597  -19.1617  -47.5196 H         1 UNK         0.0600 
    192 H192       -2.8472  -17.8683  -45.4329 H         1 UNK         0.0600 
    193 H193       -1.3090  -17.9894  -46.2824 H         1 UNK         0.0600 
    194 H194       -1.6112  -18.9846  -44.8699 H         1 UNK         0.0600 
    195 H195       -2.2604  -21.3613  -44.8214 H         1 UNK         0.3000 
    196 H196       -4.8102  -21.2562  -43.5726 H         1 UNK         0.0600 
    197 H197       -3.7993  -22.9442  -42.0451 H         1 UNK         0.0600 
    198 H198       -2.6767  -21.6307  -42.3626 H         1 UNK         0.0600 
    199 H199       -2.4633  -23.1844  -43.1650 H         1 UNK         0.0600 
    200 H200       -3.4999  -23.5144  -45.9751 H         1 UNK         0.3000 
    201 H201       -5.9345  -25.2502  -45.6915 H         1 UNK         0.0600 
    202 H202       -3.8648  -26.4370  -45.0351 H         1 UNK         0.0600 
    203 H203       -3.1095  -26.0376  -46.5740 H         1 UNK         0.0600 
    204 H204       -4.5168  -27.0890  -46.5300 H         1 UNK         0.0600 
    205 H205       -3.4460  -24.1507  -48.0754 H         1 UNK         0.3000 
    206 H206       -5.1319  -24.9458  -50.2738 H         1 UNK         0.0600 
    207 H207       -2.6389  -25.1447  -50.2972 H         1 UNK         0.0600 
    208 H208       -3.2237  -24.1886  -51.6487 H         1 UNK         0.0600 
    209 H209       -2.4992  -23.3874  -50.2647 H         1 UNK         0.0600 
    210 H210       -4.5638  -21.9236  -48.6443 H         1 UNK         0.3000 
    211 H211       -5.1708  -19.8002  -48.8757 H         1 UNK         0.0600 
    212 H212       -7.6664  -20.9624  -50.2226 H         1 UNK         0.0600 
    213 H213       -7.5403  -19.3800  -49.4620 H         1 UNK         0.0600 
    214 H214       -7.4117  -20.8310  -48.4825 H         1 UNK         0.0600 
    215 H215       -3.3737  -20.5554  -50.7796 H         1 UNK         0.3000 
    216 H216       -2.3162  -20.1680  -52.6495 H         1 UNK         0.0600 
    217 H217       -4.0811  -17.6877  -52.9630 H         1 UNK         0.0600 
    218 H218       -2.5437  -17.9804  -53.7679 H         1 UNK         0.0600 
    219 H219       -2.5907  -17.7943  -52.0256 H         1 UNK         0.0600 
    220 H220       -5.7892  -20.1724  -53.1264 H         1 UNK         0.3000 
    221 H221       -5.9349  -20.4399  -55.9216 H         1 UNK         0.0600 
    222 H222       -7.8547  -21.4089  -53.7357 H         1 UNK         0.0600 
    223 H223       -7.8647  -19.8258  -54.5093 H         1 UNK         0.0600 
    224 H224       -8.2585  -21.2610  -55.4435 H         1 UNK         0.0600 
    225 H225       -5.9197  -23.0498  -53.4015 H         1 UNK         0.3000 
    226 H226       -5.9995  -25.1613  -55.3983 H         1 UNK         0.0600 
    227 H227       -6.9728  -25.3727  -53.0758 H         1 UNK         0.0600 
    228 H228       -5.8516  -26.6639  -53.4867 H         1 UNK         0.0600 
    229 H229       -5.3316  -25.3647  -52.4304 H         1 UNK         0.0600 
    230 H230       -3.4833  -23.2720  -53.9632 H         1 UNK         0.3000 
    231 H231       -1.2630  -25.0641  -54.6561 H         1 UNK         0.0600 
    232 H232       -1.3271  -22.1404  -53.7344 H         1 UNK         0.0600 
    233 H233       -1.0650  -23.5437  -52.6996 H         1 UNK         0.0600 
    234 H234        0.1193  -23.1168  -53.9217 H         1 UNK         0.0600 
    235 H235       -3.3395  -22.9646  -56.3344 H         1 UNK         0.3000 
    236 H236       -3.4909  -22.0588  -58.3190 H         1 UNK         0.0600 
    237 H237       -2.9075  -24.3576  -59.1221 H         1 UNK         0.0600 
    238 H238       -2.3787  -23.1156  -60.2444 H         1 UNK         0.0600 
    239 H239       -1.2058  -23.9019  -59.1972 H         1 UNK         0.0600 
    240 H240       -2.0355  -20.6132  -56.4096 H         1 UNK         0.3000 
    241 H241       -0.2042  -19.0157  -58.1291 H         1 UNK         0.0600 
    242 H242       -3.2025  -18.7773  -56.6913 H         1 UNK         0.3800 
    243 H243       -3.1708  -17.0490  -56.4508 H         1 UNK         0.3800 
    244 H244        1.3821  -18.7496  -56.4277 H         1 UNK         0.0800 
    245 H245        1.0616  -20.4489  -56.4962 H         1 UNK         0.0800 
    246 H246        0.9534  -17.2305  -54.5353 H         1 UNK         0.0800 
    247 H247        2.2817  -18.2784  -54.1069 H         1 UNK         0.0800 
@<TRIPOS>BOND
     1    1    2 1    
     2    1  127 1    
     3    1  128 1    
     4    1  129 1    
     5    2    3 2    
     6    2    4 am   BACKBONE|DICT|INTERRES
     7    4    5 1    
     8    4  130 1    
     9    5    6 1    
    10    5   65 1    
    11    5  131 1    
    12    6    7 1    
    13    6  132 1    
    14    6  133 1    
    15    7    8 1    
    16    8    9 1    
    17    8  134 1    
    18    8  135 1    
    19    9   10 ar   
    20    9   14 ar   
    21   10   11 ar   
    22   10  136 1    
    23   11   12 ar   
    24   11  126 1    
    25   12   13 ar   
    26   12  137 1    
    27   13   14 ar   
    28   13   15 1    
    29   14  138 1    
    30   15   16 1    
    31   15  139 1    
    32   15  140 1    
    33   16   17 1    
    34   17   18 1    
    35   17  141 1    
    36   17  142 1    
    37   18   19 1    
    38   18   67 1    
    39   18  143 1    
    40   19   20 am   BACKBONE|DICT|INTERRES
    41   19  144 1    
    42   20   21 2    
    43   20   22 1    
    44   22   23 1    
    45   22   24 1    
    46   22  145 1    
    47   23  146 1    
    48   23  147 1    
    49   23  148 1    
    50   24   25 am   BACKBONE|DICT|INTERRES
    51   24  149 1    
    52   25   26 2    
    53   25   27 1    
    54   27   28 1    
    55   27   29 1    
    56   27  150 1    
    57   28  151 1    
    58   28  152 1    
    59   28  153 1    
    60   29   30 am   BACKBONE|DICT|INTERRES
    61   29  154 1    
    62   30   31 2    
    63   30   32 1    
    64   32   33 1    
    65   32   34 1    
    66   32  155 1    
    67   33  156 1    
    68   33  157 1    
    69   33  158 1    
    70   34   35 am   BACKBONE|DICT|INTERRES
    71   34  159 1    
    72   35   36 2    
    73   35   37 1    
    74   37   38 1    
    75   37   39 1    
    76   37  160 1    
    77   38  161 1    
    78   38  162 1    
    79   38  163 1    
    80   39   40 am   BACKBONE|DICT|INTERRES
    81   39  164 1    
    82   40   41 2    
    83   40   42 1    
    84   42   43 1    
    85   42   44 1    
    86   42  165 1    
    87   43  166 1    
    88   43  167 1    
    89   43  168 1    
    90   44   45 am   BACKBONE|DICT|INTERRES
    91   44  169 1    
    92   45   46 2    
    93   45   47 1    
    94   47   48 1    
    95   47   49 1    
    96   47  170 1    
    97   48  171 1    
    98   48  172 1    
    99   48  173 1    
   100   49   50 am   BACKBONE|DICT|INTERRES
   101   49  174 1    
   102   50   51 2    
   103   50   52 1    
   104   52   53 1    
   105   52   54 1    
   106   52  175 1    
   107   53  176 1    
   108   53  177 1    
   109   53  178 1    
   110   54   55 am   BACKBONE|DICT|INTERRES
   111   54  179 1    
   112   55   56 2    
   113   55   57 1    
   114   57   58 1    
   115   57   59 1    
   116   57  180 1    
   117   58  181 1    
   118   58  182 1    
   119   58  183 1    
   120   59   60 am   BACKBONE|DICT|INTERRES
   121   59  184 1    
   122   60   61 2    
   123   60   62 1    
   124   62   63 1    
   125   62   64 1    
   126   62  185 1    
   127   63  186 1    
   128   63  187 1    
   129   63  188 1    
   130   64   65 am   BACKBONE|DICT|INTERRES
   131   64  189 1    
   132   65   66 2    
   133   67   68 2    
   134   67   69 am   BACKBONE|DICT|INTERRES
   135   69   70 1    
   136   69  190 1    
   137   70   71 1    
   138   70   72 1    
   139   70  191 1    
   140   71  192 1    
   141   71  193 1    
   142   71  194 1    
   143   72   73 2    
   144   72   74 am   BACKBONE|DICT|INTERRES
   145   74   75 1    
   146   74  195 1    
   147   75   76 1    
   148   75   77 1    
   149   75  196 1    
   150   76  197 1    
   151   76  198 1    
   152   76  199 1    
   153   77   78 2    
   154   77   79 am   BACKBONE|DICT|INTERRES
   155   79   80 1    
   156   79  200 1    
   157   80   81 1    
   158   80   82 1    
   159   80  201 1    
   160   81  202 1    
   161   81  203 1    
   162   81  204 1    
   163   82   83 2    
   164   82   84 am   BACKBONE|DICT|INTERRES
   165   84   85 1    
   166   84  205 1    
   167   85   86 1    
   168   85   87 1    
   169   85  206 1    
   170   86  207 1    
   171   86  208 1    
   172   86  209 1    
   173   87   88 2    
   174   87   89 am   BACKBONE|DICT|INTERRES
   175   89   90 1    
   176   89  210 1    
   177   90   91 1    
   178   90   92 1    
   179   90  211 1    
   180   91  212 1    
   181   91  213 1    
   182   91  214 1    
   183   92   93 2    
   184   92   94 am   BACKBONE|DICT|INTERRES
   185   94   95 1    
   186   94  215 1    
   187   95   96 1    
   188   95   97 1    
   189   95  216 1    
   190   96  217 1    
   191   96  218 1    
   192   96  219 1    
   193   97   98 2    
   194   97   99 am   BACKBONE|DICT|INTERRES
   195   99  100 1    
   196   99  220 1    
   197  100  101 1    
   198  100  102 1    
   199  100  221 1    
   200  101  222 1    
   201  101  223 1    
   202  101  224 1    
   203  102  103 2    
   204  102  104 am   BACKBONE|DICT|INTERRES
   205  104  105 1    
   206  104  225 1    
   207  105  106 1    
   208  105  107 1    
   209  105  226 1    
   210  106  227 1    
   211  106  228 1    
   212  106  229 1    
   213  107  108 2    
   214  107  109 am   BACKBONE|DICT|INTERRES
   215  109  110 1    
   216  109  230 1    
   217  110  111 1    
   218  110  112 1    
   219  110  231 1    
   220  111  232 1    
   221  111  233 1    
   222  111  234 1    
   223  112  113 2    
   224  112  114 am   BACKBONE|DICT|INTERRES
   225  114  115 1    
   226  114  235 1    
   227  115  116 1    
   228  115  117 1    
   229  115  236 1    
   230  116  237 1    
   231  116  238 1    
   232  116  239 1    
   233  117  118 2    
   234  117  119 am   BACKBONE|DICT|INTERRES
   235  119  120 1    
   236  119  240 1    
   237  120  121 1    
   238  120  124 1    
   239  120  241 1    
   240  121  122 am   BACKBONE|DICT|INTERRES
   241  121  123 2    
   242  122  242 1    
   243  122  243 1    
   244  124  125 1    
   245  124  244 1    
   246  124  245 1    
   247  125  126 1    
   248  126  246 1    
   249  126  247 1    
@<TRIPOS>SUBSTRUCTURE
     1 UNK         1 GROUP             0       ****    0 ROOT    
