@<TRIPOS>MOLECULE
3R540
247   249    1
SMALL
USER_CHARGES


@<TRIPOS>ATOM
      1 CA          3.0415  -13.7325  -46.7944 C.3       0 UNK        -0.1800 
      2 C           2.1046  -12.9060  -45.9274 C.2       0 UNK         0.5000 
      3 O           2.5430  -11.9560  -45.2791 O.2       0 UNK        -0.5000 
      4 N           0.8072  -13.2354  -45.9297 N.am      1 UNK        -0.5000 
      5 CA         -0.2419  -12.5399  -45.1703 C.3       1 UNK         0.1400 
      6 C6         -1.5830  -13.3149  -45.1577 C.3       23 UNK        -0.0398 
      7 S7         -2.1246  -13.9017  -46.8038 S.3       23 UNK        -0.2404 
      8 C8         -2.0990  -15.6982  -46.5273 C.3       23 UNK        -0.0205 
      9 C9         -2.3825  -16.4780  -47.8006 C.ar      23 UNK        -0.0193 
     10 C10        -3.6972  -16.6353  -48.2496 C.ar      23 UNK        -0.1150 
     11 C11        -3.9744  -17.4122  -49.3787 C.ar      23 UNK        -0.0193 
     12 C12        -2.9216  -18.0207  -50.0667 C.ar      23 UNK        -0.1150 
     13 C13        -1.6045  -17.8876  -49.6160 C.ar      23 UNK        -0.0193 
     14 C14        -1.3388  -17.0991  -48.4935 C.ar      23 UNK        -0.1150 
     15 C15        -0.4860  -18.6705  -50.2923 C.3       23 UNK        -0.0205 
     16 S16        -0.0825  -20.2084  -49.3885 S.3       23 UNK        -0.2404 
     17 C17        -1.7364  -20.9558  -49.2325 C.3       23 UNK        -0.0398 
     18 CA         -1.7994  -22.2908  -48.4643 C.3       11 UNK         0.1400 
     19 N          -1.3242  -22.1659  -47.0809 N.am      11 UNK        -0.5000 
     20 C          -1.3737  -23.1260  -46.1428 C.2       10 UNK         0.5000 
     21 O          -1.7018  -24.2900  -46.3825 O.2       10 UNK        -0.5000 
     22 CA         -1.0955  -22.7112  -44.6808 C.3       10 UNK         0.1400 
     23 CB          0.3271  -23.1204  -44.2736 C.3       10 UNK        -0.1800 
     24 N          -1.2725  -21.2809  -44.4054 N.am      10 UNK        -0.5000 
     25 C          -2.3645  -20.5419  -44.6606 C.2       9 UNK         0.5000 
     26 O          -3.4213  -21.0197  -45.0746 O.2       9 UNK        -0.5000 
     27 CA         -2.2491  -19.0099  -44.4924 C.3       9 UNK         0.1400 
     28 CB         -3.1311  -18.5236  -43.3338 C.3       9 UNK        -0.1800 
     29 N          -0.8813  -18.5081  -44.3036 N.am      9 UNK        -0.5000 
     30 C           0.1201  -18.6379  -45.1900 C.2       8 UNK         0.5000 
     31 O          -0.0215  -19.1895  -46.2784 O.2       8 UNK        -0.5000 
     32 CA          1.5173  -18.1122  -44.8023 C.3       8 UNK         0.1400 
     33 CB          1.8474  -16.8383  -45.5913 C.3       8 UNK        -0.1800 
     34 N           1.6799  -17.8432  -43.3732 N.am      8 UNK        -0.5000 
     35 C           1.6537  -18.7721  -42.4045 C.2       7 UNK         0.5000 
     36 O           1.5540  -19.9795  -42.6269 O.2       7 UNK        -0.5000 
     37 CA          1.6989  -18.2738  -40.9431 C.3       7 UNK         0.1400 
     38 CB          3.1165  -18.4226  -40.3708 C.3       7 UNK        -0.1800 
     39 N           1.2633  -16.8842  -40.7712 N.am      7 UNK        -0.5000 
     40 C           0.0592  -16.3960  -41.1025 C.2       6 UNK         0.5000 
     41 O          -0.8617  -17.0939  -41.5259 O.2       6 UNK        -0.5000 
     42 CA         -0.1364  -14.8692  -41.0058 C.3       6 UNK         0.1400 
     43 CB         -0.9023  -14.5065  -39.7253 C.3       6 UNK        -0.1800 
     44 N           1.0965  -14.0740  -41.0630 N.am      6 UNK        -0.5000 
     45 C           2.0051  -14.0871  -42.0480 C.2       5 UNK         0.5000 
     46 O           1.9467  -14.8404  -43.0208 O.2       5 UNK        -0.5000 
     47 CA          3.1364  -13.0515  -41.9276 C.3       5 UNK         0.1400 
     48 CB          4.3671  -13.4062  -42.7802 C.3       5 UNK        -0.1800 
     49 N           2.6245  -11.7389  -42.3195 N.am      5 UNK        -0.5000 
     50 C           1.9818  -10.9018  -41.4921 C.2       4 UNK         0.5000 
     51 O           1.8313  -11.1384  -40.2917 O.2       4 UNK        -0.5000 
     52 CA          1.3543   -9.6238  -42.0894 C.3       4 UNK         0.1400 
     53 CB          1.4649   -8.4104  -41.1422 C.3       4 UNK        -0.1800 
     54 N           1.8123   -9.2889  -43.4417 N.am      4 UNK        -0.5000 
     55 C           3.0256   -8.8640  -43.8295 C.2       3 UNK         0.5000 
     56 O           3.9669   -8.6890  -43.0548 O.2       3 UNK        -0.5000 
     57 CA          3.2241   -8.5975  -45.3383 C.3       3 UNK         0.1400 
     58 CB          4.5628   -9.1673  -45.8402 C.3       3 UNK        -0.1800 
     59 N           2.1427   -9.1846  -46.1314 N.am      3 UNK        -0.5000 
     60 C           1.1225   -8.5189  -46.6900 C.2       2 UNK         0.5000 
     61 O           1.0148   -7.2926  -46.6711 O.2       2 UNK        -0.5000 
     62 CA          0.0178   -9.3652  -47.3613 C.3       2 UNK         0.1400 
     63 CB          0.2362   -9.4241  -48.8807 C.3       2 UNK        -0.1800 
     64 N          -0.0664  -10.7336  -46.8420 N.am      2 UNK        -0.5000 
     65 C          -0.4257  -11.0647  -45.5929 C.2       1 UNK         0.5000 
     66 O          -0.8117  -10.2439  -44.7605 O.2       1 UNK        -0.5000 
     67 C          -3.2504  -22.8132  -48.5641 C.2       11 UNK         0.5000 
     68 O          -3.5626  -23.5158  -49.5210 O.2       11 UNK        -0.5000 
     69 N          -4.1080  -22.4874  -47.5839 N.am      12 UNK        -0.5000 
     70 CA         -5.4952  -22.9520  -47.5195 C.3       12 UNK         0.1400 
     71 CB         -6.2310  -22.1972  -46.4031 C.3       12 UNK        -0.1800 
     72 C          -5.6230  -24.4757  -47.3211 C.2       12 UNK         0.5000 
     73 O          -6.6120  -25.0584  -47.7664 O.2       12 UNK        -0.5000 
     74 N          -4.6252  -25.0900  -46.6708 N.am      13 UNK        -0.5000 
     75 CA         -4.5329  -26.5347  -46.4743 C.3       13 UNK         0.1400 
     76 CB         -3.8739  -26.8205  -45.1154 C.3       13 UNK        -0.1800 
     77 C          -3.7434  -27.2012  -47.6131 C.2       13 UNK         0.5000 
     78 O          -4.1549  -28.2549  -48.0996 O.2       13 UNK        -0.5000 
     79 N          -2.6218  -26.5834  -48.0105 N.am      14 UNK        -0.5000 
     80 CA         -1.7128  -27.0944  -49.0388 C.3       14 UNK         0.1400 
     81 CB         -0.3824  -26.3364  -48.9400 C.3       14 UNK        -0.1800 
     82 C          -2.2777  -27.0074  -50.4694 C.2       14 UNK         0.5000 
     83 O          -1.9725  -27.8709  -51.2934 O.2       14 UNK        -0.5000 
     84 N          -3.0779  -25.9676  -50.7417 N.am      15 UNK        -0.5000 
     85 CA         -3.6942  -25.6322  -52.0243 C.3       15 UNK         0.1400 
     86 CB         -4.8408  -26.6173  -52.3418 C.3       15 UNK        -0.1800 
     87 C          -2.6382  -25.4900  -53.1385 C.2       15 UNK         0.5000 
     88 O          -1.7146  -24.6845  -52.9955 O.2       15 UNK        -0.5000 
     89 N          -2.7708  -26.2849  -54.2079 N.am      16 UNK        -0.5000 
     90 CA         -1.8890  -26.3128  -55.3766 C.3       16 UNK         0.1400 
     91 CB         -2.4734  -27.2848  -56.4126 C.3       16 UNK        -0.1800 
     92 C          -0.4207  -26.6710  -55.0705 C.2       16 UNK         0.5000 
     93 O           0.4543  -26.3242  -55.8644 O.2       16 UNK        -0.5000 
     94 N          -0.1641  -27.3357  -53.9329 N.am      17 UNK        -0.5000 
     95 CA          1.1860  -27.6413  -53.4544 C.3       17 UNK         0.1400 
     96 CB          1.1148  -28.7125  -52.3558 C.3       17 UNK        -0.1800 
     97 C           1.9400  -26.3940  -52.9511 C.2       17 UNK         0.5000 
     98 O           3.1716  -26.3935  -52.9708 O.2       17 UNK        -0.5000 
     99 N           1.2006  -25.3598  -52.5252 N.am      18 UNK        -0.5000 
    100 CA         1.7446  -24.0562  -52.1549 C.3       18 UNK         0.1400 
    101 CB         1.0058  -23.5123  -50.9234 C.3       18 UNK        -0.1800 
    102 C          1.6401  -23.0861  -53.3399 C.2       18 UNK         0.5000 
    103 O          2.6637  -22.5744  -53.7951 O.2       18 UNK        -0.5000 
    104 N          0.4120  -22.8718  -53.8279 N.am      19 UNK        -0.5000 
    105 CA         0.0846  -22.0025  -54.9553 C.3       19 UNK         0.1400 
    106 CB         0.3850  -20.5200  -54.6398 C.3       19 UNK        -0.1800 
    107 C         -1.3905  -22.2057  -55.3156 C.2       19 UNK         0.5000 
    108 O         -1.6956  -22.7320  -56.3857 O.2       19 UNK        -0.5000 
    109 N         -2.2723  -21.8103  -54.3927 N.am      20 UNK        -0.5000 
    110 CA        -3.7213  -21.9407  -54.4584 C.3       20 UNK         0.1400 
    111 CB        -4.3103  -20.9543  -55.4849 C.3       20 UNK        -0.1800 
    112 C         -4.2793  -21.6573  -53.0579 C.2       20 UNK         0.5000 
    113 O         -3.6346  -20.9569  -52.2751 O.2       20 UNK        -0.5000 
    114 N         -5.4787  -22.1791  -52.7784 N.am      21 UNK        -0.5000 
    115 CA        -6.1811  -22.0031  -51.5024 C.3       21 UNK         0.1400 
    116 CB        -7.0435  -23.2506  -51.2427 C.3       21 UNK        -0.1800 
    117 C         -7.0322  -20.7155  -51.4372 C.2       21 UNK         0.5000 
    118 O         -7.6953  -20.4891  -50.4250 O.2       21 UNK        -0.5000 
    119 N         -7.0159  -19.9104  -52.5095 N.am      22 UNK        -0.5000 
    120 CA        -7.7982  -18.6724  -52.7044 C.3       22 UNK         0.1400 
    121 C         -9.3265  -18.9011  -52.9264 C.2       22 UNK         0.5000 
    122 N         -9.7857  -20.1178  -53.1936 N.am      22 UNK        -0.7600 
    123 O        -10.1117  -17.9572  -52.8904 O.2       22 UNK        -0.5000 
    124 C124       -7.5216  -17.5668  -51.6427 C.3       23 UNK        -0.0398 
    125 S125       -5.7602  -17.1046  -51.4974 S.3       23 UNK        -0.2404 
    126 C126       -5.4131  -17.6688  -49.8022 C.3       23 UNK        -0.0205 
    127 H127        2.4994  -14.4666  -47.3906 H         1 UNK         0.0600 
    128 H128        3.5927  -13.0827  -47.4737 H         1 UNK         0.0600 
    129 H129        3.7603  -14.2618  -46.1695 H         1 UNK         0.0600 
    130 H130        0.4868  -14.0013  -46.5040 H         1 UNK         0.3000 
    131 H131        0.1058  -12.5024  -44.1353 H         1 UNK         0.0600 
    132 H132       -1.4824  -14.1715  -44.4897 H         1 UNK         0.0800 
    133 H133       -2.3814  -12.7110  -44.7221 H         1 UNK         0.0800 
    134 H134       -1.1304  -15.9880  -46.1200 H         1 UNK         0.0800 
    135 H135       -2.8395  -15.9568  -45.7687 H         1 UNK         0.0800 
    136 H136       -4.5056  -16.1744  -47.6994 H         1 UNK         0.1150 
    137 H137       -3.1370  -18.6475  -50.9214 H         1 UNK         0.1150 
    138 H138       -0.3240  -17.0147  -48.1315 H         1 UNK         0.1150 
    139 H139       -0.7648  -18.9218  -51.3169 H         1 UNK         0.0800 
    140 H140        0.4092  -18.0510  -50.3601 H         1 UNK         0.0800 
    141 H141       -2.3898  -20.2443  -48.7275 H         1 UNK         0.0800 
    142 H142       -2.1232  -21.0782  -50.2443 H         1 UNK         0.0800 
    143 H143       -1.1540  -23.0119  -48.9650 H         1 UNK         0.0600 
    144 H144       -1.0057  -21.2434  -46.8084 H         1 UNK         0.3000 
    145 H145       -1.8045  -23.2537  -44.0528 H         1 UNK         0.0600 
    146 H146        0.5082  -22.9218  -43.2170 H         1 UNK         0.0600 
    147 H147        0.4906  -24.1867  -44.4363 H         1 UNK         0.0600 
    148 H148        1.0794  -22.5796  -44.8494 H         1 UNK         0.0600 
    149 H149       -0.4551  -20.7946  -44.0630 H         1 UNK         0.3000 
    150 H150       -2.6311  -18.5683  -45.4149 H         1 UNK         0.0600 
    151 H151       -4.1676  -18.8344  -43.4711 H         1 UNK         0.0600 
    152 H152       -3.1262  -17.4357  -43.2638 H         1 UNK         0.0600 
    153 H153       -2.7915  -18.9239  -42.3778 H         1 UNK         0.0600 
    154 H154       -0.6928  -18.0546  -43.4164 H         1 UNK         0.3000 
    155 H155        2.2394  -18.8820  -45.0819 H         1 UNK         0.0600 
    156 H156        1.7777  -17.0102  -46.6661 H         1 UNK         0.0600 
    157 H157        1.1648  -16.0273  -45.3396 H         1 UNK         0.0600 
    158 H158        2.8614  -16.4987  -45.3807 H         1 UNK         0.0600 
    159 H159        1.7654  -16.8655  -43.1122 H         1 UNK         0.3000 
    160 H160        1.0239  -18.9065  -40.3634 H         1 UNK         0.0600 
    161 H161        3.4664  -19.4524  -40.4552 H         1 UNK         0.0600 
    162 H162        3.8308  -17.7888  -40.8981 H         1 UNK         0.0600 
    163 H163        3.1462  -18.1570  -39.3139 H         1 UNK         0.0600 
    164 H164        1.9591  -16.2327  -40.4400 H         1 UNK         0.3000 
    165 H165       -0.7468  -14.5751  -41.8618 H         1 UNK         0.0600 
    166 H166       -0.3239  -14.7432  -38.8313 H         1 UNK         0.0600 
    167 H167       -1.1447  -13.4439  -39.6975 H         1 UNK         0.0600 
    168 H168       -1.8437  -15.0544  -39.6626 H         1 UNK         0.0600 
    169 H169        1.2169  -13.3882  -40.3282 H         1 UNK         0.3000 
    170 H170        3.4638  -13.0265  -40.8861 H         1 UNK         0.0600 
    171 H171        4.7841  -14.3668  -42.4760 H         1 UNK         0.0600 
    172 H172        4.1297  -13.4781  -43.8398 H         1 UNK         0.0600 
    173 H173        5.1522  -12.6588  -42.6656 H         1 UNK         0.0600 
    174 H174        2.6639  -11.5254  -43.3113 H         1 UNK         0.3000 
    175 H175        0.2923   -9.8492  -42.1939 H         1 UNK         0.0600 
    176 H176        1.0057   -7.5243  -41.5804 H         1 UNK         0.0600 
    177 H177        0.9547   -8.6034  -40.1979 H         1 UNK         0.0600 
    178 H178        2.5019   -8.1710  -40.9062 H         1 UNK         0.0600 
    179 H179        1.1099   -9.4069  -44.1613 H         1 UNK         0.3000 
    180 H180        3.2461   -7.5143  -45.4712 H         1 UNK         0.0600 
    181 H181        4.6927   -8.9851  -46.9070 H         1 UNK         0.0600 
    182 H182        5.4059   -8.7016  -45.3286 H         1 UNK         0.0600 
    183 H183        4.6309  -10.2429  -45.6734 H         1 UNK         0.0600 
    184 H184        2.1372  -10.1991  -46.1523 H         1 UNK         0.3000 
    185 H185       -0.9371   -8.8714  -47.1697 H         1 UNK         0.0600 
    186 H186       -0.5758   -9.9570  -49.3759 H         1 UNK         0.0600 
    187 H187        0.2742   -8.4217  -49.3093 H         1 UNK         0.0600 
    188 H188        1.1716   -9.9251  -49.1335 H         1 UNK         0.0600 
    189 H189        0.2399  -11.4718  -47.4589 H         1 UNK         0.3000 
    190 H190       -3.7866  -21.9212  -46.8036 H         1 UNK         0.3000 
    191 H191       -5.9763  -22.7025  -48.4660 H         1 UNK         0.0600 
    192 H192       -7.2836  -22.4807  -46.3682 H         1 UNK         0.0600 
    193 H193       -6.1894  -21.1194  -46.5615 H         1 UNK         0.0600 
    194 H194       -5.8006  -22.4094  -45.4237 H         1 UNK         0.0600 
    195 H195       -3.8245  -24.5436  -46.3796 H         1 UNK         0.3000 
    196 H196       -5.5339  -26.9712  -46.4570 H         1 UNK         0.0600 
    197 H197       -3.8043  -27.8939  -44.9346 H         1 UNK         0.0600 
    198 H198       -4.4546  -26.3906  -44.2992 H         1 UNK         0.0600 
    199 H199       -2.8642  -26.4123  -45.0580 H         1 UNK         0.0600 
    200 H200       -2.3316  -25.7402  -47.5246 H         1 UNK         0.3000 
    201 H201       -1.5175  -28.1482  -48.8296 H         1 UNK         0.0600 
    202 H202        0.0952  -26.5028  -47.9743 H         1 UNK         0.0600 
    203 H203       -0.5340  -25.2645  -49.0545 H         1 UNK         0.0600 
    204 H204        0.3189  -26.6568  -49.7112 H         1 UNK         0.0600 
    205 H205       -3.2226  -25.2639  -50.0224 H         1 UNK         0.3000 
    206 H206       -4.1331  -24.6421  -51.9040 H         1 UNK         0.0600 
    207 H207       -5.5718  -26.6296  -51.5329 H         1 UNK         0.0600 
    208 H208       -5.3750  -26.3263  -53.2471 H         1 UNK         0.0600 
    209 H209       -4.4834  -27.6393  -52.4727 H         1 UNK         0.0600 
    210 H210       -3.5405  -26.9383  -54.2184 H         1 UNK         0.3000 
    211 H211       -1.8910  -25.3126  -55.8112 H         1 UNK         0.0600 
    212 H212       -2.5261  -28.3025  -56.0236 H         1 UNK         0.0600 
    213 H213       -1.8613  -27.3096  -57.3153 H         1 UNK         0.0600 
    214 H214       -3.4779  -26.9858  -56.7127 H         1 UNK         0.0600 
    215 H215       -0.9317  -27.5811  -53.3191 H         1 UNK         0.3000 
    216 H216        1.7558  -28.0560  -54.2888 H         1 UNK         0.0600 
    217 H217        2.1151  -29.0299  -52.0586 H         1 UNK         0.0600 
    218 H218        0.5812  -29.5988  -52.6995 H         1 UNK         0.0600 
    219 H219        0.6135  -28.3433  -51.4619 H         1 UNK         0.0600 
    220 H220        0.1917  -25.4217  -52.5960 H         1 UNK         0.3000 
    221 H221        2.8002  -24.1443  -51.8891 H         1 UNK         0.0600 
    222 H222       -0.0751  -23.4970  -51.0668 H         1 UNK         0.0600 
    223 H223        1.2257  -24.1149  -50.0435 H         1 UNK         0.0600 
    224 H224        1.3253  -22.4944  -50.6993 H         1 UNK         0.0600 
    225 H225       -0.3717  -23.3911  -53.4375 H         1 UNK         0.3000 
    226 H226        0.6834  -22.3088  -55.8154 H         1 UNK         0.0600 
    227 H227        1.4567  -20.3343  -54.5743 H         1 UNK         0.0600 
    228 H228       -0.0019  -19.8674  -55.4235 H         1 UNK         0.0600 
    229 H229       -0.0630  -20.2048  -53.6968 H         1 UNK         0.0600 
    230 H230       -1.9462  -21.4036  -53.5242 H         1 UNK         0.3000 
    231 H231       -3.9712  -22.9659  -54.7394 H         1 UNK         0.0600 
    232 H232       -5.3978  -21.0266  -55.5218 H         1 UNK         0.0600 
    233 H233       -3.9435  -21.1566  -56.4910 H         1 UNK         0.0600 
    234 H234       -4.0565  -19.9223  -55.2388 H         1 UNK         0.0600 
    235 H235       -5.9593  -22.7216  -53.4821 H         1 UNK         0.3000 
    236 H236       -5.4466  -21.9303  -50.6986 H         1 UNK         0.0600 
    237 H237       -7.7792  -23.4044  -52.0327 H         1 UNK         0.0600 
    238 H238       -6.4279  -24.1473  -51.1753 H         1 UNK         0.0600 
    239 H239       -7.5874  -23.1696  -50.3008 H         1 UNK         0.0600 
    240 H240       -6.4335  -20.1805  -53.2870 H         1 UNK         0.3000 
    241 H241       -7.4521  -18.2759  -53.6595 H         1 UNK         0.0600 
    242 H242      -10.7731  -20.2515  -53.3466 H         1 UNK         0.3800 
    243 H243       -9.1602  -20.9051  -53.2418 H         1 UNK         0.3800 
    244 H244       -7.9129  -17.8659  -50.6696 H         1 UNK         0.0800 
    245 H245       -8.0587  -16.6537  -51.9044 H         1 UNK         0.0800 
    246 H246       -6.1066  -17.1784  -49.1173 H         1 UNK         0.0800 
    247 H247       -5.6096  -18.7386  -49.7285 H         1 UNK         0.0800 
@<TRIPOS>BOND
     1    1    2 1    
     2    1  127 1    
     3    1  128 1    
     4    1  129 1    
     5    2    3 2    
     6    2    4 am   BACKBONE|DICT|INTERRES
     7    4    5 1    
     8    4  130 1    
     9    5    6 1    
    10    5   65 1    
    11    5  131 1    
    12    6    7 1    
    13    6  132 1    
    14    6  133 1    
    15    7    8 1    
    16    8    9 1    
    17    8  134 1    
    18    8  135 1    
    19    9   10 ar   
    20    9   14 ar   
    21   10   11 ar   
    22   10  136 1    
    23   11   12 ar   
    24   11  126 1    
    25   12   13 ar   
    26   12  137 1    
    27   13   14 ar   
    28   13   15 1    
    29   14  138 1    
    30   15   16 1    
    31   15  139 1    
    32   15  140 1    
    33   16   17 1    
    34   17   18 1    
    35   17  141 1    
    36   17  142 1    
    37   18   19 1    
    38   18   67 1    
    39   18  143 1    
    40   19   20 am   BACKBONE|DICT|INTERRES
    41   19  144 1    
    42   20   21 2    
    43   20   22 1    
    44   22   23 1    
    45   22   24 1    
    46   22  145 1    
    47   23  146 1    
    48   23  147 1    
    49   23  148 1    
    50   24   25 am   BACKBONE|DICT|INTERRES
    51   24  149 1    
    52   25   26 2    
    53   25   27 1    
    54   27   28 1    
    55   27   29 1    
    56   27  150 1    
    57   28  151 1    
    58   28  152 1    
    59   28  153 1    
    60   29   30 am   BACKBONE|DICT|INTERRES
    61   29  154 1    
    62   30   31 2    
    63   30   32 1    
    64   32   33 1    
    65   32   34 1    
    66   32  155 1    
    67   33  156 1    
    68   33  157 1    
    69   33  158 1    
    70   34   35 am   BACKBONE|DICT|INTERRES
    71   34  159 1    
    72   35   36 2    
    73   35   37 1    
    74   37   38 1    
    75   37   39 1    
    76   37  160 1    
    77   38  161 1    
    78   38  162 1    
    79   38  163 1    
    80   39   40 am   BACKBONE|DICT|INTERRES
    81   39  164 1    
    82   40   41 2    
    83   40   42 1    
    84   42   43 1    
    85   42   44 1    
    86   42  165 1    
    87   43  166 1    
    88   43  167 1    
    89   43  168 1    
    90   44   45 am   BACKBONE|DICT|INTERRES
    91   44  169 1    
    92   45   46 2    
    93   45   47 1    
    94   47   48 1    
    95   47   49 1    
    96   47  170 1    
    97   48  171 1    
    98   48  172 1    
    99   48  173 1    
   100   49   50 am   BACKBONE|DICT|INTERRES
   101   49  174 1    
   102   50   51 2    
   103   50   52 1    
   104   52   53 1    
   105   52   54 1    
   106   52  175 1    
   107   53  176 1    
   108   53  177 1    
   109   53  178 1    
   110   54   55 am   BACKBONE|DICT|INTERRES
   111   54  179 1    
   112   55   56 2    
   113   55   57 1    
   114   57   58 1    
   115   57   59 1    
   116   57  180 1    
   117   58  181 1    
   118   58  182 1    
   119   58  183 1    
   120   59   60 am   BACKBONE|DICT|INTERRES
   121   59  184 1    
   122   60   61 2    
   123   60   62 1    
   124   62   63 1    
   125   62   64 1    
   126   62  185 1    
   127   63  186 1    
   128   63  187 1    
   129   63  188 1    
   130   64   65 am   BACKBONE|DICT|INTERRES
   131   64  189 1    
   132   65   66 2    
   133   67   68 2    
   134   67   69 am   BACKBONE|DICT|INTERRES
   135   69   70 1    
   136   69  190 1    
   137   70   71 1    
   138   70   72 1    
   139   70  191 1    
   140   71  192 1    
   141   71  193 1    
   142   71  194 1    
   143   72   73 2    
   144   72   74 am   BACKBONE|DICT|INTERRES
   145   74   75 1    
   146   74  195 1    
   147   75   76 1    
   148   75   77 1    
   149   75  196 1    
   150   76  197 1    
   151   76  198 1    
   152   76  199 1    
   153   77   78 2    
   154   77   79 am   BACKBONE|DICT|INTERRES
   155   79   80 1    
   156   79  200 1    
   157   80   81 1    
   158   80   82 1    
   159   80  201 1    
   160   81  202 1    
   161   81  203 1    
   162   81  204 1    
   163   82   83 2    
   164   82   84 am   BACKBONE|DICT|INTERRES
   165   84   85 1    
   166   84  205 1    
   167   85   86 1    
   168   85   87 1    
   169   85  206 1    
   170   86  207 1    
   171   86  208 1    
   172   86  209 1    
   173   87   88 2    
   174   87   89 am   BACKBONE|DICT|INTERRES
   175   89   90 1    
   176   89  210 1    
   177   90   91 1    
   178   90   92 1    
   179   90  211 1    
   180   91  212 1    
   181   91  213 1    
   182   91  214 1    
   183   92   93 2    
   184   92   94 am   BACKBONE|DICT|INTERRES
   185   94   95 1    
   186   94  215 1    
   187   95   96 1    
   188   95   97 1    
   189   95  216 1    
   190   96  217 1    
   191   96  218 1    
   192   96  219 1    
   193   97   98 2    
   194   97   99 am   BACKBONE|DICT|INTERRES
   195   99  100 1    
   196   99  220 1    
   197  100  101 1    
   198  100  102 1    
   199  100  221 1    
   200  101  222 1    
   201  101  223 1    
   202  101  224 1    
   203  102  103 2    
   204  102  104 am   BACKBONE|DICT|INTERRES
   205  104  105 1    
   206  104  225 1    
   207  105  106 1    
   208  105  107 1    
   209  105  226 1    
   210  106  227 1    
   211  106  228 1    
   212  106  229 1    
   213  107  108 2    
   214  107  109 am   BACKBONE|DICT|INTERRES
   215  109  110 1    
   216  109  230 1    
   217  110  111 1    
   218  110  112 1    
   219  110  231 1    
   220  111  232 1    
   221  111  233 1    
   222  111  234 1    
   223  112  113 2    
   224  112  114 am   BACKBONE|DICT|INTERRES
   225  114  115 1    
   226  114  235 1    
   227  115  116 1    
   228  115  117 1    
   229  115  236 1    
   230  116  237 1    
   231  116  238 1    
   232  116  239 1    
   233  117  118 2    
   234  117  119 am   BACKBONE|DICT|INTERRES
   235  119  120 1    
   236  119  240 1    
   237  120  121 1    
   238  120  124 1    
   239  120  241 1    
   240  121  122 am   BACKBONE|DICT|INTERRES
   241  121  123 2    
   242  122  242 1    
   243  122  243 1    
   244  124  125 1    
   245  124  244 1    
   246  124  245 1    
   247  125  126 1    
   248  126  246 1    
   249  126  247 1    
@<TRIPOS>SUBSTRUCTURE
     1 UNK         1 GROUP             0       ****    0 ROOT    
