@<TRIPOS>MOLECULE
3R540
247   249    1
SMALL
USER_CHARGES


@<TRIPOS>ATOM
      1 CA         -2.2040  -12.6415  -45.0144 C.3       0 UNK        -0.1800 
      2 C          -1.0995  -11.8210  -45.6651 C.2       0 UNK         0.5000 
      3 O          -1.2765  -10.6228  -45.8864 O.2       0 UNK        -0.5000 
      4 N           0.0424  -12.4534  -45.9637 N.am      1 UNK        -0.5000 
      5 CA          1.2213  -11.8669  -46.6169 C.3       1 UNK         0.1400 
      6 C6          2.1035  -12.9568  -47.2837 C.3       23 UNK        -0.0398 
      7 S7          1.2076  -13.9164  -48.5504 S.3       23 UNK        -0.2404 
      8 C8          2.2705  -15.3996  -48.6721 C.3       23 UNK        -0.0205 
      9 C9          1.8057  -16.4575  -49.6774 C.ar      23 UNK        -0.0193 
     10 C10         0.9724  -16.1480  -50.7622 C.ar      23 UNK        -0.1150 
     11 C11         0.6174  -17.1267  -51.6941 C.ar      23 UNK        -0.0193 
     12 C12         1.1123  -18.4242  -51.5489 C.ar      23 UNK        -0.1150 
     13 C13         1.9368  -18.7562  -50.4722 C.ar      23 UNK        -0.0193 
     14 C14         2.2747  -17.7703  -49.5385 C.ar      23 UNK        -0.1150 
     15 C15         2.4922  -20.1700  -50.3539 C.3       23 UNK        -0.0205 
     16 S16         1.1906  -21.4080  -50.0457 S.3       23 UNK        -0.2404 
     17 C17         0.7405  -21.0125  -48.3259 C.3       23 UNK        -0.0398 
     18 CA          0.0750  -22.1977  -47.5829 C.3       11 UNK         0.1400 
     19 N           0.1561  -22.0378  -46.1295 N.am      11 UNK        -0.5000 
     20 C          -0.2276  -22.9446  -45.2201 C.2       10 UNK         0.5000 
     21 O          -0.6539  -24.0638  -45.5041 O.2       10 UNK        -0.5000 
     22 CA         -0.1758  -22.5053  -43.7445 C.3       10 UNK         0.1400 
     23 CB          1.2513  -22.6100  -43.1869 C.3       10 UNK        -0.1800 
     24 N          -0.6869  -21.1473  -43.5458 N.am      10 UNK        -0.5000 
     25 C          -1.9536  -20.7773  -43.7861 C.2       9 UNK         0.5000 
     26 O          -2.8352  -21.5550  -44.1488 O.2       9 UNK        -0.5000 
     27 CA         -2.2825  -19.2809  -43.6494 C.3       9 UNK         0.1400 
     28 CB         -2.4846  -18.8944  -42.1769 C.3       9 UNK        -0.1800 
     29 N          -1.2608  -18.4240  -44.2492 N.am      9 UNK        -0.5000 
     30 C          -0.9417  -18.4123  -45.5516 C.2       8 UNK         0.5000 
     31 O          -1.5024  -19.1010  -46.4025 O.2       8 UNK        -0.5000 
     32 CA          0.2364  -17.5129  -45.9627 C.3       8 UNK         0.1400 
     33 CB         -0.2067  -16.0440  -46.0064 C.3       8 UNK        -0.1800 
     34 N           1.3820  -17.6535  -45.0623 N.am      8 UNK        -0.5000 
     35 C           2.0513  -18.7943  -44.8432 C.2       7 UNK         0.5000 
     36 O           1.8125  -19.8500  -45.4247 O.2       7 UNK        -0.5000 
     37 CA          3.1298  -18.7690  -43.7488 C.3       7 UNK         0.1400 
     38 CB          4.4618  -18.2388  -44.2991 C.3       7 UNK        -0.1800 
     39 N           2.7090  -17.9725  -42.5968 N.am      7 UNK        -0.5000 
     40 C           1.7419  -18.3381  -41.7426 C.2       6 UNK         0.5000 
     41 O           1.1421  -19.4117  -41.8080 O.2       6 UNK        -0.5000 
     42 CA          1.3511  -17.3082  -40.6654 C.3       6 UNK         0.1400 
     43 CB          2.3183  -17.3732  -39.4743 C.3       6 UNK        -0.1800 
     44 N           1.3139  -15.9405  -41.1891 N.am      6 UNK        -0.5000 
     45 C           0.4251  -15.5079  -42.0945 C.2       5 UNK         0.5000 
     46 O          -0.4923  -16.2021  -42.5300 O.2       5 UNK        -0.5000 
     47 CA          0.6203  -14.0841  -42.6511 C.3       5 UNK         0.1400 
     48 CB         -0.1860  -13.0647  -41.8358 C.3       5 UNK        -0.1800 
     49 N           2.0222  -13.6606  -42.7340 N.am      5 UNK        -0.5000 
     50 C           2.9619  -14.2774  -43.4668 C.2       4 UNK         0.5000 
     51 O           2.7137  -15.2545  -44.1732 O.2       4 UNK        -0.5000 
     52 CA          4.4048  -13.7386  -43.3925 C.3       4 UNK         0.1400 
     53 CB          5.1722  -13.9429  -44.7111 C.3       4 UNK        -0.1800 
     54 N           4.4378  -12.3203  -43.0404 N.am      4 UNK        -0.5000 
     55 C           4.6752  -11.8252  -41.8183 C.2       3 UNK         0.5000 
     56 O           4.9057  -12.5270  -40.8333 O.2       3 UNK        -0.5000 
     57 CA          4.6302  -10.2911  -41.6571 C.3       3 UNK         0.1400 
     58 CB          6.0529   -9.7116  -41.6447 C.3       3 UNK        -0.1800 
     59 N           3.8528   -9.6137  -42.6977 N.am      3 UNK        -0.5000 
     60 C           2.5262   -9.7157  -42.8528 C.2       2 UNK         0.5000 
     61 O           1.8049  -10.3656  -42.0956 O.2       2 UNK        -0.5000 
     62 CA          1.8960   -9.0112  -44.0727 C.3       2 UNK         0.1400 
     63 CB          2.8342   -8.0050  -44.7770 C.3       2 UNK        -0.1800 
     64 N           1.3712   -9.9795  -45.0405 N.am      2 UNK        -0.5000 
     65 C           2.0360  -10.9713  -45.6502 C.2       1 UNK         0.5000 
     66 O           3.2336  -11.1944  -45.4635 O.2       1 UNK        -0.5000 
     67 C          -1.3790  -22.4223  -48.0451 C.2       11 UNK         0.5000 
     68 O          -1.6481  -23.3915  -48.7542 O.2       11 UNK        -0.5000 
     69 N          -2.2973  -21.5596  -47.5865 N.am      12 UNK        -0.5000 
     70 CA         -3.7296  -21.6456  -47.8647 C.3       12 UNK         0.1400 
     71 CB         -4.4403  -20.3985  -47.3203 C.3       12 UNK        -0.1800 
     72 C          -4.3785  -22.9265  -47.3139 C.2       12 UNK         0.5000 
     73 O          -5.2199  -23.5088  -47.9958 O.2       12 UNK        -0.5000 
     74 N          -3.9687  -23.3628  -46.1157 N.am      13 UNK        -0.5000 
     75 CA         -4.4108  -24.6177  -45.5075 C.3       13 UNK         0.1400 
     76 CB         -3.9383  -24.6848  -44.0473 C.3       13 UNK        -0.1800 
     77 C          -3.9378  -25.8516  -46.2974 C.2       13 UNK         0.5000 
     78 O          -4.7360  -26.7581  -46.5372 O.2       13 UNK        -0.5000 
     79 N          -2.6625  -25.8514  -46.7097 N.am      14 UNK        -0.5000 
     80 CA         -2.0424  -26.9192  -47.4949 C.3       14 UNK         0.1400 
     81 CB         -0.5211  -26.7069  -47.5331 C.3       14 UNK        -0.1800 
     82 C          -2.6114  -27.0283  -48.9215 C.2       14 UNK         0.5000 
     83 O          -2.8653  -28.1382  -49.3910 O.2       14 UNK        -0.5000 
     84 N          -2.8065  -25.8789  -49.5804 N.am      15 UNK        -0.5000 
     85 CA         -3.3105  -25.7812  -50.9524 C.3       15 UNK         0.1400 
     86 CB         -2.8079  -24.4678  -51.5610 C.3       15 UNK        -0.1800 
     87 C          -4.8457  -25.8943  -51.0630 C.2       15 UNK         0.5000 
     88 O          -5.3530  -26.0273  -52.1770 O.2       15 UNK        -0.5000 
     89 N          -5.5409  -25.8678  -49.9166 N.am      16 UNK        -0.5000 
     90 CA         -6.9890  -25.9793  -49.7312 C.3       16 UNK         0.1400 
     91 CB         -7.5338  -27.3096  -50.2947 C.3       16 UNK        -0.1800 
     92 C          -7.7459  -24.7374  -50.2422 C.2       16 UNK         0.5000 
     93 O          -8.5425  -24.8319  -51.1773 O.2       16 UNK        -0.5000 
     94 N          -7.4903  -23.6044  -49.5721 N.am      17 UNK        -0.5000 
     95 CA         -8.1125  -22.2873  -49.7367 C.3       17 UNK         0.1400 
     96 CB         -9.6265  -22.3446  -49.4420 C.3       17 UNK        -0.1800 
     97 C          -7.7817  -21.6700  -51.1059 C.2       17 UNK         0.5000 
     98 O          -8.6528  -21.5705  -51.9721 O.2       17 UNK        -0.5000 
     99 N          -6.5058  -21.2869  -51.2636 N.am      18 UNK        -0.5000 
    100 CA        -5.8645  -20.8308  -52.4999 C.3       18 UNK         0.1400 
    101 CB        -6.4937  -19.5252  -53.0374 C.3       18 UNK        -0.1800 
    102 C         -5.8214  -21.9908  -53.5080 C.2       18 UNK         0.5000 
    103 O         -5.0079  -22.8921  -53.3126 O.2       18 UNK        -0.5000 
    104 N         -6.6963  -21.9704  -54.5241 N.am      19 UNK        -0.5000 
    105 CA        -6.9125  -23.0084  -55.5371 C.3       19 UNK         0.1400 
    106 CB        -7.5630  -24.2560  -54.8998 C.3       19 UNK        -0.1800 
    107 C         -5.6370  -23.3357  -56.3393 C.2       19 UNK         0.5000 
    108 O         -5.4065  -22.7283  -57.3858 O.2       19 UNK        -0.5000 
    109 N         -4.8342  -24.2807  -55.8337 N.am      20 UNK        -0.5000 
    110 CA        -3.5236  -24.6443  -56.3682 C.3       20 UNK         0.1400 
    111 CB        -3.0937  -25.9858  -55.7544 C.3       20 UNK        -0.1800 
    112 C         -2.4508  -23.5658  -56.1151 C.2       20 UNK         0.5000 
    113 O         -1.5069  -23.4648  -56.9003 O.2       20 UNK        -0.5000 
    114 N         -2.6082  -22.7876  -55.0368 N.am      21 UNK        -0.5000 
    115 CA        -1.7432  -21.6653  -54.6831 C.3       21 UNK         0.1400 
    116 CB        -1.4825  -21.6929  -53.1683 C.3       21 UNK        -0.1800 
    117 C         -2.3992  -20.3334  -55.0772 C.2       21 UNK         0.5000 
    118 O         -3.6275  -20.2343  -55.1193 O.2       21 UNK        -0.5000 
    119 N         -1.5544  -19.3195  -55.2938 N.am      22 UNK        -0.5000 
    120 CA        -1.9303  -17.9212  -55.5638 C.3       22 UNK         0.1400 
    121 C         -2.6602  -17.7219  -56.9302 C.2       22 UNK         0.5000 
    122 N         -3.3661  -16.6166  -57.1355 N.am      22 UNK        -0.7600 
    123 O         -2.5463  -18.5375  -57.8431 O.2       22 UNK        -0.5000 
    124 C124       -2.6524  -17.2374  -54.3585 C.3       23 UNK        -0.0398 
    125 S125       -1.9110  -17.5652  -52.7177 S.3       23 UNK        -0.2404 
    126 C126       -0.2739  -16.7855  -52.8781 C.3       23 UNK        -0.0205 
    127 H127       -2.4197  -12.2554  -44.0181 H         1 UNK         0.0600 
    128 H128       -1.9329  -13.6922  -44.9204 H         1 UNK         0.0600 
    129 H129       -3.1155  -12.5800  -45.6090 H         1 UNK         0.0600 
    130 H130        0.1160  -13.4405  -45.7736 H         1 UNK         0.3000 
    131 H131        0.8688  -11.2078  -47.4131 H         1 UNK         0.0600 
    132 H132        2.9728  -12.5067  -47.7668 H         1 UNK         0.0800 
    133 H133        2.4901  -13.6433  -46.5292 H         1 UNK         0.0800 
    134 H134        3.2762  -15.0835  -48.9519 H         1 UNK         0.0800 
    135 H135        2.3537  -15.8526  -47.6832 H         1 UNK         0.0800 
    136 H136        0.6068  -15.1413  -50.9008 H         1 UNK         0.1150 
    137 H137        0.8522  -19.1804  -52.2760 H         1 UNK         0.1150 
    138 H138        2.9258  -18.0197  -48.7121 H         1 UNK         0.1150 
    139 H139        3.0006  -20.4250  -51.2848 H         1 UNK         0.0800 
    140 H140        3.2489  -20.2304  -49.5701 H         1 UNK         0.0800 
    141 H141        0.1130  -20.1200  -48.3128 H         1 UNK         0.0800 
    142 H142        1.6630  -20.7390  -47.8146 H         1 UNK         0.0800 
    143 H143        0.6358  -23.1044  -47.8200 H         1 UNK         0.0600 
    144 H144        0.5475  -21.1591  -45.7988 H         1 UNK         0.3000 
    145 H145       -0.8114  -23.1857  -43.1741 H         1 UNK         0.0600 
    146 H146        1.2796  -22.3561  -42.1271 H         1 UNK         0.0600 
    147 H147        1.6358  -23.6255  -43.2895 H         1 UNK         0.0600 
    148 H148        1.9396  -21.9447  -43.7077 H         1 UNK         0.0600 
    149 H149       -0.0273  -20.4525  -43.2132 H         1 UNK         0.3000 
    150 H150       -3.2197  -19.0984  -44.1790 H         1 UNK         0.0600 
    151 H151       -3.2547  -19.5120  -41.7130 H         1 UNK         0.0600 
    152 H152       -2.8004  -17.8553  -42.0830 H         1 UNK         0.0600 
    153 H153       -1.5697  -19.0182  -41.5972 H         1 UNK         0.0600 
    154 H154       -0.7847  -17.7806  -43.6236 H         1 UNK         0.3000 
    155 H155        0.5651  -17.8070  -46.9615 H         1 UNK         0.0600 
    156 H156       -0.7703  -15.7643  -45.1178 H         1 UNK         0.0600 
    157 H157       -0.8471  -15.8596  -46.8697 H         1 UNK         0.0600 
    158 H158        0.6482  -15.3756  -46.0776 H         1 UNK         0.0600 
    159 H159        1.6965  -16.8152  -44.5823 H         1 UNK         0.3000 
    160 H160        3.2900  -19.7954  -43.4120 H         1 UNK         0.0600 
    161 H161        4.3658  -17.2282  -44.6938 H         1 UNK         0.0600 
    162 H162        4.8230  -18.8709  -45.1113 H         1 UNK         0.0600 
    163 H163        5.2325  -18.2279  -43.5283 H         1 UNK         0.0600 
    164 H164        3.1111  -17.0512  -42.5124 H         1 UNK         0.3000 
    165 H165        0.3513  -17.5640  -40.3078 H         1 UNK         0.0600 
    166 H166        2.0047  -16.7013  -38.6751 H         1 UNK         0.0600 
    167 H167        2.3536  -18.3800  -39.0557 H         1 UNK         0.0600 
    168 H168        3.3345  -17.1014  -39.7624 H         1 UNK         0.0600 
    169 H169        2.0338  -15.3064  -40.8752 H         1 UNK         0.3000 
    170 H170        0.2229  -14.0878  -43.6654 H         1 UNK         0.0600 
    171 H171       -1.2227  -13.3846  -41.7208 H         1 UNK         0.0600 
    172 H172        0.2301  -12.9266  -40.8373 H         1 UNK         0.0600 
    173 H173       -0.2046  -12.0943  -42.3313 H         1 UNK         0.0600 
    174 H174        2.2816  -12.8409  -42.2021 H         1 UNK         0.3000 
    175 H175        4.9143  -14.3248  -42.6255 H         1 UNK         0.0600 
    176 H176        4.6982  -13.4224  -45.5425 H         1 UNK         0.0600 
    177 H177        6.1949  -13.5750  -44.6293 H         1 UNK         0.0600 
    178 H178        5.2323  -14.9983  -44.9767 H         1 UNK         0.0600 
    179 H179        4.1969  -11.6810  -43.7927 H         1 UNK         0.3000 
    180 H180        4.1646  -10.0769  -40.6928 H         1 UNK         0.0600 
    181 H181        6.5644   -9.8812  -42.5930 H         1 UNK         0.0600 
    182 H182        6.6555  -10.1708  -40.8599 H         1 UNK         0.0600 
    183 H183        6.0405   -8.6379  -41.4560 H         1 UNK         0.0600 
    184 H184        4.3754   -9.0821  -43.3788 H         1 UNK         0.3000 
    185 H185        1.0384   -8.4539  -43.6933 H         1 UNK         0.0600 
    186 H186        3.1974   -7.2497  -44.0789 H         1 UNK         0.0600 
    187 H187        3.7010   -8.4893  -45.2280 H         1 UNK         0.0600 
    188 H188        2.3066   -7.4764  -45.5709 H         1 UNK         0.0600 
    189 H189        0.3746   -9.9194  -45.2321 H         1 UNK         0.3000 
    190 H190       -1.9923  -20.7681  -47.0234 H         1 UNK         0.3000 
    191 H191       -3.8506  -21.6585  -48.9498 H         1 UNK         0.0600 
    192 H192       -4.0447  -19.4902  -47.7752 H         1 UNK         0.0600 
    193 H193       -5.5095  -20.4311  -47.5335 H         1 UNK         0.0600 
    194 H194       -4.3219  -20.3090  -46.2399 H         1 UNK         0.0600 
    195 H195       -3.3233  -22.7934  -45.5759 H         1 UNK         0.3000 
    196 H196       -5.5028  -24.6227  -45.5073 H         1 UNK         0.0600 
    197 H197       -4.2680  -25.6094  -43.5719 H         1 UNK         0.0600 
    198 H198       -4.3433  -23.8573  -43.4648 H         1 UNK         0.0600 
    199 H199       -2.8515  -24.6454  -43.9715 H         1 UNK         0.0600 
    200 H200       -2.0604  -25.0776  -46.4420 H         1 UNK         0.3000 
    201 H201       -2.2382  -27.8657  -46.9868 H         1 UNK         0.0600 
    202 H202       -0.0969  -26.7204  -46.5289 H         1 UNK         0.0600 
    203 H203       -0.2590  -25.7528  -47.9922 H         1 UNK         0.0600 
    204 H204       -0.0294  -27.4946  -48.1052 H         1 UNK         0.0600 
    205 H205       -2.5192  -25.0053  -49.1433 H         1 UNK         0.3000 
    206 H206       -2.8843  -26.5996  -51.5362 H         1 UNK         0.0600 
    207 H207       -1.7284  -24.3690  -51.4479 H         1 UNK         0.0600 
    208 H208       -3.0243  -24.4293  -52.6279 H         1 UNK         0.0600 
    209 H209       -3.2767  -23.6013  -51.0926 H         1 UNK         0.0600 
    210 H210       -5.0126  -25.7073  -49.0693 H         1 UNK         0.3000 
    211 H211       -7.1449  -26.0091  -48.6514 H         1 UNK         0.0600 
    212 H212       -7.4620  -27.3581  -51.3813 H         1 UNK         0.0600 
    213 H213       -8.5854  -27.4362  -50.0352 H         1 UNK         0.0600 
    214 H214       -6.9926  -28.1619  -49.8839 H         1 UNK         0.0600 
    215 H215       -6.7397  -23.6378  -48.8822 H         1 UNK         0.3000 
    216 H216       -7.6642  -21.6403  -48.9809 H         1 UNK         0.0600 
    217 H217      -10.0659  -21.3473  -49.4816 H         1 UNK         0.0600 
    218 H218       -9.8185  -22.7451  -48.4466 H         1 UNK         0.0600 
    219 H219      -10.1633  -22.9638  -50.1611 H         1 UNK         0.0600 
    220 H220       -5.8720  -21.4625  -50.4984 H         1 UNK         0.3000 
    221 H221       -4.8266  -20.6065  -52.2480 H         1 UNK         0.0600 
    222 H222       -7.5457  -19.6346  -53.2992 H         1 UNK         0.0600 
    223 H223       -6.4204  -18.7282  -52.2977 H         1 UNK         0.0600 
    224 H224       -5.9677  -19.1831  -53.9296 H         1 UNK         0.0600 
    225 H225       -7.3127  -21.1730  -54.5858 H         1 UNK         0.3000 
    226 H226       -7.6292  -22.5977  -56.2498 H         1 UNK         0.0600 
    227 H227       -8.5353  -24.0102  -54.4722 H         1 UNK         0.0600 
    228 H228       -7.7237  -25.0379  -55.6429 H         1 UNK         0.0600 
    229 H229       -6.9569  -24.6807  -54.0988 H         1 UNK         0.0600 
    230 H230       -5.0783  -24.6678  -54.9313 H         1 UNK         0.3000 
    231 H231       -3.6158  -24.7750  -57.4484 H         1 UNK         0.0600 
    232 H232       -3.0108  -25.9238  -54.6686 H         1 UNK         0.0600 
    233 H233       -2.1233  -26.3000  -56.1411 H         1 UNK         0.0600 
    234 H234       -3.8082  -26.7744  -55.9910 H         1 UNK         0.0600 
    235 H235       -3.4522  -22.8895  -54.4795 H         1 UNK         0.3000 
    236 H236       -0.7832  -21.7475  -55.1971 H         1 UNK         0.0600 
    237 H237       -0.9409  -22.5935  -52.8809 H         1 UNK         0.0600 
    238 H238       -0.8768  -20.8420  -52.8547 H         1 UNK         0.0600 
    239 H239       -2.4114  -21.6583  -52.5979 H         1 UNK         0.0600 
    240 H240       -0.5623  -19.5006  -55.2592 H         1 UNK         0.3000 
    241 H241       -0.9820  -17.4046  -55.7073 H         1 UNK         0.0600 
    242 H242       -3.8148  -16.4882  -58.0296 H         1 UNK         0.3800 
    243 H243       -3.4640  -15.9031  -56.4310 H         1 UNK         0.3800 
    244 H244       -2.6829  -16.1559  -54.4955 H         1 UNK         0.0800 
    245 H245       -3.6917  -17.5671  -54.3134 H         1 UNK         0.0800 
    246 H246       -0.3966  -15.7059  -52.9778 H         1 UNK         0.0800 
    247 H247        0.2196  -17.1291  -53.7867 H         1 UNK         0.0800 
@<TRIPOS>BOND
     1    1    2 1    
     2    1  127 1    
     3    1  128 1    
     4    1  129 1    
     5    2    3 2    
     6    2    4 am   BACKBONE|DICT|INTERRES
     7    4    5 1    
     8    4  130 1    
     9    5    6 1    
    10    5   65 1    
    11    5  131 1    
    12    6    7 1    
    13    6  132 1    
    14    6  133 1    
    15    7    8 1    
    16    8    9 1    
    17    8  134 1    
    18    8  135 1    
    19    9   10 ar   
    20    9   14 ar   
    21   10   11 ar   
    22   10  136 1    
    23   11   12 ar   
    24   11  126 1    
    25   12   13 ar   
    26   12  137 1    
    27   13   14 ar   
    28   13   15 1    
    29   14  138 1    
    30   15   16 1    
    31   15  139 1    
    32   15  140 1    
    33   16   17 1    
    34   17   18 1    
    35   17  141 1    
    36   17  142 1    
    37   18   19 1    
    38   18   67 1    
    39   18  143 1    
    40   19   20 am   BACKBONE|DICT|INTERRES
    41   19  144 1    
    42   20   21 2    
    43   20   22 1    
    44   22   23 1    
    45   22   24 1    
    46   22  145 1    
    47   23  146 1    
    48   23  147 1    
    49   23  148 1    
    50   24   25 am   BACKBONE|DICT|INTERRES
    51   24  149 1    
    52   25   26 2    
    53   25   27 1    
    54   27   28 1    
    55   27   29 1    
    56   27  150 1    
    57   28  151 1    
    58   28  152 1    
    59   28  153 1    
    60   29   30 am   BACKBONE|DICT|INTERRES
    61   29  154 1    
    62   30   31 2    
    63   30   32 1    
    64   32   33 1    
    65   32   34 1    
    66   32  155 1    
    67   33  156 1    
    68   33  157 1    
    69   33  158 1    
    70   34   35 am   BACKBONE|DICT|INTERRES
    71   34  159 1    
    72   35   36 2    
    73   35   37 1    
    74   37   38 1    
    75   37   39 1    
    76   37  160 1    
    77   38  161 1    
    78   38  162 1    
    79   38  163 1    
    80   39   40 am   BACKBONE|DICT|INTERRES
    81   39  164 1    
    82   40   41 2    
    83   40   42 1    
    84   42   43 1    
    85   42   44 1    
    86   42  165 1    
    87   43  166 1    
    88   43  167 1    
    89   43  168 1    
    90   44   45 am   BACKBONE|DICT|INTERRES
    91   44  169 1    
    92   45   46 2    
    93   45   47 1    
    94   47   48 1    
    95   47   49 1    
    96   47  170 1    
    97   48  171 1    
    98   48  172 1    
    99   48  173 1    
   100   49   50 am   BACKBONE|DICT|INTERRES
   101   49  174 1    
   102   50   51 2    
   103   50   52 1    
   104   52   53 1    
   105   52   54 1    
   106   52  175 1    
   107   53  176 1    
   108   53  177 1    
   109   53  178 1    
   110   54   55 am   BACKBONE|DICT|INTERRES
   111   54  179 1    
   112   55   56 2    
   113   55   57 1    
   114   57   58 1    
   115   57   59 1    
   116   57  180 1    
   117   58  181 1    
   118   58  182 1    
   119   58  183 1    
   120   59   60 am   BACKBONE|DICT|INTERRES
   121   59  184 1    
   122   60   61 2    
   123   60   62 1    
   124   62   63 1    
   125   62   64 1    
   126   62  185 1    
   127   63  186 1    
   128   63  187 1    
   129   63  188 1    
   130   64   65 am   BACKBONE|DICT|INTERRES
   131   64  189 1    
   132   65   66 2    
   133   67   68 2    
   134   67   69 am   BACKBONE|DICT|INTERRES
   135   69   70 1    
   136   69  190 1    
   137   70   71 1    
   138   70   72 1    
   139   70  191 1    
   140   71  192 1    
   141   71  193 1    
   142   71  194 1    
   143   72   73 2    
   144   72   74 am   BACKBONE|DICT|INTERRES
   145   74   75 1    
   146   74  195 1    
   147   75   76 1    
   148   75   77 1    
   149   75  196 1    
   150   76  197 1    
   151   76  198 1    
   152   76  199 1    
   153   77   78 2    
   154   77   79 am   BACKBONE|DICT|INTERRES
   155   79   80 1    
   156   79  200 1    
   157   80   81 1    
   158   80   82 1    
   159   80  201 1    
   160   81  202 1    
   161   81  203 1    
   162   81  204 1    
   163   82   83 2    
   164   82   84 am   BACKBONE|DICT|INTERRES
   165   84   85 1    
   166   84  205 1    
   167   85   86 1    
   168   85   87 1    
   169   85  206 1    
   170   86  207 1    
   171   86  208 1    
   172   86  209 1    
   173   87   88 2    
   174   87   89 am   BACKBONE|DICT|INTERRES
   175   89   90 1    
   176   89  210 1    
   177   90   91 1    
   178   90   92 1    
   179   90  211 1    
   180   91  212 1    
   181   91  213 1    
   182   91  214 1    
   183   92   93 2    
   184   92   94 am   BACKBONE|DICT|INTERRES
   185   94   95 1    
   186   94  215 1    
   187   95   96 1    
   188   95   97 1    
   189   95  216 1    
   190   96  217 1    
   191   96  218 1    
   192   96  219 1    
   193   97   98 2    
   194   97   99 am   BACKBONE|DICT|INTERRES
   195   99  100 1    
   196   99  220 1    
   197  100  101 1    
   198  100  102 1    
   199  100  221 1    
   200  101  222 1    
   201  101  223 1    
   202  101  224 1    
   203  102  103 2    
   204  102  104 am   BACKBONE|DICT|INTERRES
   205  104  105 1    
   206  104  225 1    
   207  105  106 1    
   208  105  107 1    
   209  105  226 1    
   210  106  227 1    
   211  106  228 1    
   212  106  229 1    
   213  107  108 2    
   214  107  109 am   BACKBONE|DICT|INTERRES
   215  109  110 1    
   216  109  230 1    
   217  110  111 1    
   218  110  112 1    
   219  110  231 1    
   220  111  232 1    
   221  111  233 1    
   222  111  234 1    
   223  112  113 2    
   224  112  114 am   BACKBONE|DICT|INTERRES
   225  114  115 1    
   226  114  235 1    
   227  115  116 1    
   228  115  117 1    
   229  115  236 1    
   230  116  237 1    
   231  116  238 1    
   232  116  239 1    
   233  117  118 2    
   234  117  119 am   BACKBONE|DICT|INTERRES
   235  119  120 1    
   236  119  240 1    
   237  120  121 1    
   238  120  124 1    
   239  120  241 1    
   240  121  122 am   BACKBONE|DICT|INTERRES
   241  121  123 2    
   242  122  242 1    
   243  122  243 1    
   244  124  125 1    
   245  124  244 1    
   246  124  245 1    
   247  125  126 1    
   248  126  246 1    
   249  126  247 1    
@<TRIPOS>SUBSTRUCTURE
     1 UNK         1 GROUP             0       ****    0 ROOT    
