@<TRIPOS>MOLECULE
3R540
247   249    1
SMALL
USER_CHARGES


@<TRIPOS>ATOM
      1 CA          4.9981  -14.1489  -48.5586 C.3       0 UNK        -0.1800 
      2 C           3.7955  -15.0823  -48.5644 C.2       0 UNK         0.5000 
      3 O           3.8339  -16.1304  -47.9214 O.2       0 UNK        -0.5000 
      4 N           2.7387  -14.7071  -49.2942 N.am      1 UNK        -0.5000 
      5 CA          1.4671  -15.4352  -49.3740 C.3       1 UNK         0.1400 
      6 C6          0.6917  -15.1033  -50.6779 C.3       23 UNK        -0.0398 
      7 S7          1.6734  -15.4420  -52.1837 S.3       23 UNK        -0.2404 
      8 C8          0.7456  -16.7959  -52.9917 C.3       23 UNK        -0.0205 
      9 C9          0.6723  -18.1150  -52.2195 C.ar      23 UNK        -0.0193 
     10 C10        -0.3615  -19.0079  -52.5158 C.ar      23 UNK        -0.1150 
     11 C11        -0.4837  -20.2250  -51.8385 C.ar      23 UNK        -0.0193 
     12 C12         0.4441  -20.5471  -50.8478 C.ar      23 UNK        -0.1150 
     13 C13         1.4735  -19.6613  -50.5246 C.ar      23 UNK        -0.0193 
     14 C14         1.6050  -18.4679  -51.2377 C.ar      23 UNK        -0.1150 
     15 C15         2.4288  -19.9785  -49.3877 C.3       23 UNK        -0.0205 
     16 S16         1.8250  -19.3119  -47.7997 S.3       23 UNK        -0.2404 
     17 C17         0.4482  -20.4408  -47.3883 C.3       23 UNK        -0.0398 
     18 CA          0.9475  -21.7933  -46.8319 C.3       11 UNK         0.1400 
     19 N           1.6143  -21.6380  -45.5338 N.am      11 UNK        -0.5000 
     20 C           2.3535  -22.5716  -44.9194 C.2       10 UNK         0.5000 
     21 O           2.5187  -23.7095  -45.3606 O.2       10 UNK        -0.5000 
     22 CA          2.9754  -22.1738  -43.5709 C.3       10 UNK         0.1400 
     23 CB          4.1969  -21.2639  -43.7753 C.3       10 UNK        -0.1800 
     24 N           1.9953  -21.4950  -42.7235 N.am      10 UNK        -0.5000 
     25 C           1.1261  -22.1266  -41.9223 C.2       9 UNK         0.5000 
     26 O           1.1121  -23.3470  -41.7601 O.2       9 UNK        -0.5000 
     27 CA          0.0847  -21.2594  -41.1846 C.3       9 UNK         0.1400 
     28 CB          0.6213  -20.8301  -39.8108 C.3       9 UNK        -0.1800 
     29 N          -0.3302  -20.0686  -41.9276 N.am      9 UNK        -0.5000 
     30 C          -0.9435  -20.0814  -43.1189 C.2       8 UNK         0.5000 
     31 O          -1.2636  -21.1089  -43.7128 O.2       8 UNK        -0.5000 
     32 CA         -1.1858  -18.7190  -43.7918 C.3       8 UNK         0.1400 
     33 CB         -2.5105  -18.1078  -43.3152 C.3       8 UNK        -0.1800 
     34 N          -0.0963  -17.7608  -43.5877 N.am      8 UNK        -0.5000 
     35 C           1.1855  -17.9659  -43.9279 C.2       7 UNK         0.5000 
     36 O           1.5990  -19.0084  -44.4326 O.2       7 UNK        -0.5000 
     37 CA          2.1794  -16.8448  -43.5912 C.3       7 UNK         0.1400 
     38 CB          2.0841  -15.6952  -44.6031 C.3       7 UNK        -0.1800 
     39 N           1.9544  -16.3371  -42.2405 N.am      7 UNK        -0.5000 
     40 C           2.3496  -16.9698  -41.1270 C.2       6 UNK         0.5000 
     41 O           3.0215  -18.0015  -41.1257 O.2       6 UNK        -0.5000 
     42 CA          1.8918  -16.3606  -39.7885 C.3       6 UNK         0.1400 
     43 CB          2.8947  -15.3022  -39.3049 C.3       6 UNK        -0.1800 
     44 N           0.5571  -15.7623  -39.8607 N.am      6 UNK        -0.5000 
     45 C          -0.5734  -16.4513  -40.0703 C.2       5 UNK         0.5000 
     46 O          -0.6141  -17.6735  -40.2103 O.2       5 UNK        -0.5000 
     47 CA         -1.8709  -15.6294  -40.1840 C.3       5 UNK         0.1400 
     48 CB         -2.4849  -15.4015  -38.7947 C.3       5 UNK        -0.1800 
     49 N          -1.6998  -14.3373  -40.8565 N.am      5 UNK        -0.5000 
     50 C          -1.2756  -14.1757  -42.1165 C.2       4 UNK         0.5000 
     51 O          -0.9034  -15.1025  -42.8426 O.2       4 UNK        -0.5000 
     52 CA         -1.2203  -12.7341  -42.6377 C.3       4 UNK         0.1400 
     53 CB          0.1234  -12.0839  -42.2720 C.3       4 UNK        -0.1800 
     54 N          -1.3550  -12.7615  -44.0891 N.am      4 UNK        -0.5000 
     55 C          -2.1956  -12.0201  -44.8202 C.2       3 UNK         0.5000 
     56 O          -2.9233  -11.1453  -44.3487 O.2       3 UNK        -0.5000 
     57 CA         -2.2337  -12.2989  -46.3372 C.3       3 UNK         0.1400 
     58 CB         -1.4800  -11.2024  -47.1056 C.3       3 UNK        -0.1800 
     59 N          -1.6498  -13.5950  -46.6840 N.am      3 UNK        -0.5000 
     60 C          -2.2537  -14.7807  -46.5653 C.2       2 UNK         0.5000 
     61 O          -3.4348  -14.8954  -46.2351 O.2       2 UNK        -0.5000 
     62 CA         -1.3956  -16.0436  -46.8337 C.3       2 UNK         0.1400 
     63 CB         -2.2682  -17.2938  -47.0284 C.3       2 UNK        -0.1800 
     64 N          -0.4635  -15.9761  -47.9677 N.am      2 UNK        -0.5000 
     65 C           0.6041  -15.1802  -48.1198 C.2       1 UNK         0.5000 
     66 O           0.9034  -14.2795  -47.3316 O.2       1 UNK        -0.5000 
     67 C          -0.1766  -22.8512  -46.8326 C.2       11 UNK         0.5000 
     68 O          -0.5448  -23.3324  -47.9055 O.2       11 UNK        -0.5000 
     69 N          -0.6592  -23.2482  -45.6466 N.am      12 UNK        -0.5000 
     70 CA         -1.5688  -24.3727  -45.4102 C.3       12 UNK         0.1400 
     71 CB         -1.9203  -24.4247  -43.9155 C.3       12 UNK        -0.1800 
     72 C          -1.0374  -25.7419  -45.8871 C.2       12 UNK         0.5000 
     73 O          -1.8334  -26.6661  -46.0528 O.2       12 UNK        -0.5000 
     74 N           0.2792  -25.8520  -46.1223 N.am      13 UNK        -0.5000 
     75 CA          0.9131  -26.9958  -46.7814 C.3       13 UNK         0.1400 
     76 CB          2.4346  -26.8950  -46.5951 C.3       13 UNK        -0.1800 
     77 C           0.5605  -27.1084  -48.2818 C.2       13 UNK         0.5000 
     78 O           0.6680  -28.2008  -48.8412 O.2       13 UNK        -0.5000 
     79 N           0.1517  -25.9921  -48.9008 N.am      14 UNK        -0.5000 
     80 CA         -0.3452  -25.9072  -50.2714 C.3       14 UNK         0.1400 
     81 CB          0.3715  -24.7433  -50.9843 C.3       14 UNK        -0.1800 
     82 C          -1.8822  -25.7677  -50.2404 C.2       14 UNK         0.5000 
     83 O          -2.5375  -26.4517  -49.4522 O.2       14 UNK        -0.5000 
     84 N          -2.4465  -24.8957  -51.0880 N.am      15 UNK        -0.5000 
     85 CA         -3.8912  -24.6568  -51.1975 C.3       15 UNK         0.1400 
     86 CB         -4.2126  -24.1808  -52.6219 C.3       15 UNK        -0.1800 
     87 C          -4.4439  -23.6736  -50.1403 C.2       15 UNK         0.5000 
     88 O          -5.6392  -23.3774  -50.1645 O.2       15 UNK        -0.5000 
     89 N          -3.5816  -23.1916  -49.2337 N.am      16 UNK        -0.5000 
     90 CA         -3.8589  -22.3204  -48.0898 C.3       16 UNK         0.1400 
     91 CB         -4.8942  -22.9420  -47.1286 C.3       16 UNK        -0.1800 
     92 C          -4.2241  -20.8767  -48.4691 C.2       16 UNK         0.5000 
     93 O          -3.4412  -19.9712  -48.1873 O.2       16 UNK        -0.5000 
     94 N          -5.4060  -20.6748  -49.0635 N.am      17 UNK        -0.5000 
     95 CA         -6.0747  -19.3779  -49.2212 C.3       17 UNK         0.1400 
     96 CB         -7.5942  -19.6075  -49.3166 C.3       17 UNK        -0.1800 
     97 C          -5.5124  -18.4862  -50.3524 C.2       17 UNK         0.5000 
     98 O          -6.2736  -17.9710  -51.1739 O.2       17 UNK        -0.5000 
     99 N          -4.1879  -18.2899  -50.3372 N.am      18 UNK        -0.5000 
    100 CA        -3.4013  -17.3739  -51.1676 C.3       18 UNK         0.1400 
    101 CB        -3.7011  -15.9109  -50.7708 C.3       18 UNK        -0.1800 
    102 C         -3.5335  -17.6288  -52.6857 C.2       18 UNK         0.5000 
    103 O         -3.8706  -18.7378  -53.1073 O.2       18 UNK        -0.5000 
    104 N         -3.2134  -16.6116  -53.4977 N.am      19 UNK        -0.5000 
    105 CA        -3.1557  -16.6800  -54.9624 C.3       19 UNK         0.1400 
    106 CB        -2.6590  -15.3330  -55.5072 C.3       19 UNK        -0.1800 
    107 C         -4.4838  -17.0811  -55.6334 C.2       19 UNK         0.5000 
    108 O         -4.4612  -17.6679  -56.7146 O.2       19 UNK        -0.5000 
    109 N         -5.6102  -16.8065  -54.9626 N.am      20 UNK        -0.5000 
    110 CA        -6.9470  -17.2425  -55.3647 C.3       20 UNK         0.1400 
    111 CB        -7.9851  -16.5465  -54.4711 C.3       20 UNK        -0.1800 
    112 C         -7.1332  -18.7730  -55.3126 C.2       20 UNK         0.5000 
    113 O         -7.9502  -19.3014  -56.0680 O.2       20 UNK        -0.5000 
    114 N         -6.3842  -19.4520  -54.4332 N.am      21 UNK        -0.5000 
    115 CA        -6.4268  -20.8993  -54.2529 C.3       21 UNK         0.1400 
    116 CB        -6.3208  -21.2204  -52.7571 C.3       21 UNK        -0.1800 
    117 C         -5.3164  -21.5993  -55.0511 C.2       21 UNK         0.5000 
    118 O         -5.6046  -22.5779  -55.7414 O.2       21 UNK        -0.5000 
    119 N         -4.0762  -21.0978  -54.9510 N.am      22 UNK        -0.5000 
    120 CA        -2.9160  -21.6554  -55.6738 C.3       22 UNK         0.1400 
    121 C         -2.8698  -21.3019  -57.1896 C.2       22 UNK         0.5000 
    122 N         -3.5579  -20.2740  -57.6691 N.am      22 UNK        -0.7600 
    123 O         -2.1983  -21.9883  -57.9551 O.2       22 UNK        -0.5000 
    124 C124       -1.5684  -21.3119  -54.9864 C.3       23 UNK        -0.0398 
    125 S125       -1.2515  -22.3212  -53.4965 S.3       23 UNK        -0.2404 
    126 C126       -1.6315  -21.1796  -52.1348 C.3       23 UNK        -0.0205 
    127 H127        5.8793  -14.6697  -48.9334 H         1 UNK         0.0600 
    128 H128        4.8324  -13.2693  -49.1812 H         1 UNK         0.0600 
    129 H129        5.2055  -13.8123  -47.5428 H         1 UNK         0.0600 
    130 H130        2.7672  -13.8274  -49.7883 H         1 UNK         0.3000 
    131 H131        1.6910  -16.5012  -49.3665 H         1 UNK         0.0600 
    132 H132        0.4052  -14.0502  -50.6928 H         1 UNK         0.0800 
    133 H133       -0.2391  -15.6696  -50.7328 H         1 UNK         0.0800 
    134 H134       -0.2616  -16.4361  -53.2057 H         1 UNK         0.0800 
    135 H135        1.2096  -16.9961  -53.9582 H         1 UNK         0.0800 
    136 H136       -1.0757  -18.7453  -53.2788 H         1 UNK         0.1150 
    137 H137        0.3510  -21.4787  -50.3091 H         1 UNK         0.1150 
    138 H138        2.4297  -17.8102  -51.0071 H         1 UNK         0.1150 
    139 H139        2.5922  -21.0538  -49.3146 H         1 UNK         0.0800 
    140 H140        3.4059  -19.5404  -49.5968 H         1 UNK         0.0800 
    141 H141       -0.1890  -20.5681  -48.2621 H         1 UNK         0.0800 
    142 H142       -0.1789  -19.9503  -46.6449 H         1 UNK         0.0800 
    143 H143        1.6978  -22.1844  -47.5207 H         1 UNK         0.0600 
    144 H144        1.5612  -20.7102  -45.1172 H         1 UNK         0.3000 
    145 H145        3.3177  -23.0845  -43.0749 H         1 UNK         0.0600 
    146 H146        4.6594  -21.0075  -42.8221 H         1 UNK         0.0600 
    147 H147        4.9546  -21.7612  -44.3820 H         1 UNK         0.0600 
    148 H148        3.9341  -20.3331  -44.2789 H         1 UNK         0.0600 
    149 H149        1.9094  -20.4936  -42.8440 H         1 UNK         0.3000 
    150 H150       -0.8024  -21.8765  -41.0283 H         1 UNK         0.0600 
    151 H151        0.9329  -21.6945  -39.2231 H         1 UNK         0.0600 
    152 H152       -0.1421  -20.3051  -39.2363 H         1 UNK         0.0600 
    153 H153        1.4826  -20.1676  -39.9062 H         1 UNK         0.0600 
    154 H154       -0.1645  -19.1729  -41.4794 H         1 UNK         0.3000 
    155 H155       -1.2613  -18.8957  -44.8642 H         1 UNK         0.0600 
    156 H156       -2.5333  -18.0009  -42.2316 H         1 UNK         0.0600 
    157 H157       -3.3522  -18.7415  -43.5973 H         1 UNK         0.0600 
    158 H158       -2.6804  -17.1244  -43.7541 H         1 UNK         0.0600 
    159 H159       -0.3540  -16.8630  -43.1862 H         1 UNK         0.3000 
    160 H160        3.1877  -17.2606  -43.6519 H         1 UNK         0.0600 
    161 H161        2.8342  -14.9300  -44.4040 H         1 UNK         0.0600 
    162 H162        1.1060  -15.2151  -44.5908 H         1 UNK         0.0600 
    163 H163        2.2565  -16.0612  -45.6157 H         1 UNK         0.0600 
    164 H164        1.3592  -15.5263  -42.1529 H         1 UNK         0.3000 
    165 H165        1.8615  -17.1663  -39.0517 H         1 UNK         0.0600 
    166 H166        2.6219  -14.9209  -38.3208 H         1 UNK         0.0600 
    167 H167        3.8973  -15.7240  -39.2223 H         1 UNK         0.0600 
    168 H168        2.9499  -14.4557  -39.9905 H         1 UNK         0.0600 
    169 H169        0.4978  -14.7602  -39.7576 H         1 UNK         0.3000 
    170 H170       -2.5807  -16.2121  -40.7724 H         1 UNK         0.0600 
    171 H171       -2.6443  -16.3491  -38.2781 H         1 UNK         0.0600 
    172 H172       -1.8401  -14.7881  -38.1641 H         1 UNK         0.0600 
    173 H173       -3.4535  -14.9067  -38.8675 H         1 UNK         0.0600 
    174 H174       -1.9683  -13.5212  -40.3254 H         1 UNK         0.3000 
    175 H175       -2.0366  -12.1679  -42.1845 H         1 UNK         0.0600 
    176 H176        0.9660  -12.6363  -42.6907 H         1 UNK         0.0600 
    177 H177        0.1776  -11.0609  -42.6448 H         1 UNK         0.0600 
    178 H178        0.2600  -12.0427  -41.1908 H         1 UNK         0.0600 
    179 H179       -0.8471  -13.5053  -44.5469 H         1 UNK         0.3000 
    180 H180       -3.2791  -12.2835  -46.6524 H         1 UNK         0.0600 
    181 H181       -0.4235  -11.1768  -46.8353 H         1 UNK         0.0600 
    182 H182       -1.8983  -10.2174  -46.8943 H         1 UNK         0.0600 
    183 H183       -1.5469  -11.3593  -48.1823 H         1 UNK         0.0600 
    184 H184       -0.6636  -13.6024  -46.9419 H         1 UNK         0.3000 
    185 H185       -0.7965  -16.1973  -45.9349 H         1 UNK         0.0600 
    186 H186       -2.9145  -17.4733  -46.1694 H         1 UNK         0.0600 
    187 H187       -2.9128  -17.1995  -47.9016 H         1 UNK         0.0600 
    188 H188       -1.6574  -18.1850  -47.1628 H         1 UNK         0.0600 
    189 H189       -0.6206  -16.6800  -48.6730 H         1 UNK         0.3000 
    190 H190       -0.3741  -22.7294  -44.8245 H         1 UNK         0.3000 
    191 H191       -2.4826  -24.1775  -45.9701 H         1 UNK         0.0600 
    192 H192       -1.0288  -24.5421  -43.2982 H         1 UNK         0.0600 
    193 H193       -2.5860  -25.2603  -43.6956 H         1 UNK         0.0600 
    194 H194       -2.4320  -23.5163  -43.5983 H         1 UNK         0.0600 
    195 H195        0.8794  -25.0611  -45.9183 H         1 UNK         0.3000 
    196 H196        0.5676  -27.9082  -46.2911 H         1 UNK         0.0600 
    197 H197        2.8377  -25.9978  -47.0668 H         1 UNK         0.0600 
    198 H198        2.9410  -27.7545  -47.0360 H         1 UNK         0.0600 
    199 H199        2.7022  -26.8662  -45.5386 H         1 UNK         0.0600 
    200 H200        0.0337  -25.1474  -48.3509 H         1 UNK         0.3000 
    201 H201       -0.1187  -26.8256  -50.8161 H         1 UNK         0.0600 
    202 H202        0.1076  -23.7787  -50.5517 H         1 UNK         0.0600 
    203 H203        0.1265  -24.7160  -52.0465 H         1 UNK         0.0600 
    204 H204        1.4541  -24.8500  -50.9134 H         1 UNK         0.0600 
    205 H205       -1.8541  -24.3657  -51.7120 H         1 UNK         0.3000 
    206 H206       -4.4091  -25.6065  -51.0481 H         1 UNK         0.0600 
    207 H207       -5.2814  -24.2566  -52.8214 H         1 UNK         0.0600 
    208 H208       -3.9250  -23.1413  -52.7722 H         1 UNK         0.0600 
    209 H209       -3.7051  -24.7847  -53.3743 H         1 UNK         0.0600 
    210 H210       -2.6186  -23.4896  -49.3096 H         1 UNK         0.3000 
    211 H211       -2.9233  -22.2563  -47.5370 H         1 UNK         0.0600 
    212 H212       -5.8953  -22.9746  -47.5588 H         1 UNK         0.0600 
    213 H213       -4.9580  -22.3650  -46.2053 H         1 UNK         0.0600 
    214 H214       -4.6229  -23.9618  -46.8579 H         1 UNK         0.0600 
    215 H215       -5.9232  -21.4968  -49.3566 H         1 UNK         0.3000 
    216 H216       -5.9080  -18.8122  -48.3019 H         1 UNK         0.0600 
    217 H217       -8.1327  -18.6640  -49.4147 H         1 UNK         0.0600 
    218 H218       -7.9707  -20.0973  -48.4185 H         1 UNK         0.0600 
    219 H219       -7.8624  -20.2308  -50.1675 H         1 UNK         0.0600 
    220 H220       -3.6710  -18.8031  -49.6275 H         1 UNK         0.3000 
    221 H221       -2.3591  -17.5763  -50.9189 H         1 UNK         0.0600 
    222 H222       -4.6964  -15.6022  -51.0933 H         1 UNK         0.0600 
    223 H223       -3.6504  -15.7760  -49.6906 H         1 UNK         0.0600 
    224 H224       -2.9797  -15.2183  -51.2051 H         1 UNK         0.0600 
    225 H225       -2.9641  -15.7248  -53.0851 H         1 UNK         0.3000 
    226 H226       -2.4216  -17.4446  -55.2249 H         1 UNK         0.0600 
    227 H227       -1.6707  -15.0886  -55.1172 H         1 UNK         0.0600 
    228 H228       -2.5798  -15.3565  -56.5950 H         1 UNK         0.0600 
    229 H229       -3.3359  -14.5190  -55.2449 H         1 UNK         0.0600 
    230 H230       -5.5350  -16.3399  -54.0708 H         1 UNK         0.3000 
    231 H231       -7.1115  -16.9237  -56.3961 H         1 UNK         0.0600 
    232 H232       -7.9146  -15.4618  -54.5541 H         1 UNK         0.0600 
    233 H233       -7.8536  -16.8136  -53.4214 H         1 UNK         0.0600 
    234 H234       -8.9992  -16.8286  -54.7572 H         1 UNK         0.0600 
    235 H235       -5.7084  -18.9506  -53.8662 H         1 UNK         0.3000 
    236 H236       -7.3868  -21.2865  -54.6011 H         1 UNK         0.0600 
    237 H237       -6.4818  -22.2818  -52.5746 H         1 UNK         0.0600 
    238 H238       -5.3488  -20.9514  -52.3419 H         1 UNK         0.0600 
    239 H239       -7.0838  -20.6820  -52.1998 H         1 UNK         0.0600 
    240 H240       -3.9151  -20.2889  -54.3600 H         1 UNK         0.3000 
    241 H241       -3.0131  -22.7430  -55.6478 H         1 UNK         0.0600 
    242 H242       -3.5122  -20.0778  -58.6561 H         1 UNK         0.3800 
    243 H243       -4.0659  -19.6364  -57.0685 H         1 UNK         0.3800 
    244 H244       -0.7290  -21.5066  -55.6567 H         1 UNK         0.0800 
    245 H245       -1.5216  -20.2490  -54.7629 H         1 UNK         0.0800 
    246 H246       -2.5475  -20.6381  -52.3513 H         1 UNK         0.0800 
    247 H247       -1.8502  -21.7696  -51.2441 H         1 UNK         0.0800 
@<TRIPOS>BOND
     1    1    2 1    
     2    1  127 1    
     3    1  128 1    
     4    1  129 1    
     5    2    3 2    
     6    2    4 am   BACKBONE|DICT|INTERRES
     7    4    5 1    
     8    4  130 1    
     9    5    6 1    
    10    5   65 1    
    11    5  131 1    
    12    6    7 1    
    13    6  132 1    
    14    6  133 1    
    15    7    8 1    
    16    8    9 1    
    17    8  134 1    
    18    8  135 1    
    19    9   10 ar   
    20    9   14 ar   
    21   10   11 ar   
    22   10  136 1    
    23   11   12 ar   
    24   11  126 1    
    25   12   13 ar   
    26   12  137 1    
    27   13   14 ar   
    28   13   15 1    
    29   14  138 1    
    30   15   16 1    
    31   15  139 1    
    32   15  140 1    
    33   16   17 1    
    34   17   18 1    
    35   17  141 1    
    36   17  142 1    
    37   18   19 1    
    38   18   67 1    
    39   18  143 1    
    40   19   20 am   BACKBONE|DICT|INTERRES
    41   19  144 1    
    42   20   21 2    
    43   20   22 1    
    44   22   23 1    
    45   22   24 1    
    46   22  145 1    
    47   23  146 1    
    48   23  147 1    
    49   23  148 1    
    50   24   25 am   BACKBONE|DICT|INTERRES
    51   24  149 1    
    52   25   26 2    
    53   25   27 1    
    54   27   28 1    
    55   27   29 1    
    56   27  150 1    
    57   28  151 1    
    58   28  152 1    
    59   28  153 1    
    60   29   30 am   BACKBONE|DICT|INTERRES
    61   29  154 1    
    62   30   31 2    
    63   30   32 1    
    64   32   33 1    
    65   32   34 1    
    66   32  155 1    
    67   33  156 1    
    68   33  157 1    
    69   33  158 1    
    70   34   35 am   BACKBONE|DICT|INTERRES
    71   34  159 1    
    72   35   36 2    
    73   35   37 1    
    74   37   38 1    
    75   37   39 1    
    76   37  160 1    
    77   38  161 1    
    78   38  162 1    
    79   38  163 1    
    80   39   40 am   BACKBONE|DICT|INTERRES
    81   39  164 1    
    82   40   41 2    
    83   40   42 1    
    84   42   43 1    
    85   42   44 1    
    86   42  165 1    
    87   43  166 1    
    88   43  167 1    
    89   43  168 1    
    90   44   45 am   BACKBONE|DICT|INTERRES
    91   44  169 1    
    92   45   46 2    
    93   45   47 1    
    94   47   48 1    
    95   47   49 1    
    96   47  170 1    
    97   48  171 1    
    98   48  172 1    
    99   48  173 1    
   100   49   50 am   BACKBONE|DICT|INTERRES
   101   49  174 1    
   102   50   51 2    
   103   50   52 1    
   104   52   53 1    
   105   52   54 1    
   106   52  175 1    
   107   53  176 1    
   108   53  177 1    
   109   53  178 1    
   110   54   55 am   BACKBONE|DICT|INTERRES
   111   54  179 1    
   112   55   56 2    
   113   55   57 1    
   114   57   58 1    
   115   57   59 1    
   116   57  180 1    
   117   58  181 1    
   118   58  182 1    
   119   58  183 1    
   120   59   60 am   BACKBONE|DICT|INTERRES
   121   59  184 1    
   122   60   61 2    
   123   60   62 1    
   124   62   63 1    
   125   62   64 1    
   126   62  185 1    
   127   63  186 1    
   128   63  187 1    
   129   63  188 1    
   130   64   65 am   BACKBONE|DICT|INTERRES
   131   64  189 1    
   132   65   66 2    
   133   67   68 2    
   134   67   69 am   BACKBONE|DICT|INTERRES
   135   69   70 1    
   136   69  190 1    
   137   70   71 1    
   138   70   72 1    
   139   70  191 1    
   140   71  192 1    
   141   71  193 1    
   142   71  194 1    
   143   72   73 2    
   144   72   74 am   BACKBONE|DICT|INTERRES
   145   74   75 1    
   146   74  195 1    
   147   75   76 1    
   148   75   77 1    
   149   75  196 1    
   150   76  197 1    
   151   76  198 1    
   152   76  199 1    
   153   77   78 2    
   154   77   79 am   BACKBONE|DICT|INTERRES
   155   79   80 1    
   156   79  200 1    
   157   80   81 1    
   158   80   82 1    
   159   80  201 1    
   160   81  202 1    
   161   81  203 1    
   162   81  204 1    
   163   82   83 2    
   164   82   84 am   BACKBONE|DICT|INTERRES
   165   84   85 1    
   166   84  205 1    
   167   85   86 1    
   168   85   87 1    
   169   85  206 1    
   170   86  207 1    
   171   86  208 1    
   172   86  209 1    
   173   87   88 2    
   174   87   89 am   BACKBONE|DICT|INTERRES
   175   89   90 1    
   176   89  210 1    
   177   90   91 1    
   178   90   92 1    
   179   90  211 1    
   180   91  212 1    
   181   91  213 1    
   182   91  214 1    
   183   92   93 2    
   184   92   94 am   BACKBONE|DICT|INTERRES
   185   94   95 1    
   186   94  215 1    
   187   95   96 1    
   188   95   97 1    
   189   95  216 1    
   190   96  217 1    
   191   96  218 1    
   192   96  219 1    
   193   97   98 2    
   194   97   99 am   BACKBONE|DICT|INTERRES
   195   99  100 1    
   196   99  220 1    
   197  100  101 1    
   198  100  102 1    
   199  100  221 1    
   200  101  222 1    
   201  101  223 1    
   202  101  224 1    
   203  102  103 2    
   204  102  104 am   BACKBONE|DICT|INTERRES
   205  104  105 1    
   206  104  225 1    
   207  105  106 1    
   208  105  107 1    
   209  105  226 1    
   210  106  227 1    
   211  106  228 1    
   212  106  229 1    
   213  107  108 2    
   214  107  109 am   BACKBONE|DICT|INTERRES
   215  109  110 1    
   216  109  230 1    
   217  110  111 1    
   218  110  112 1    
   219  110  231 1    
   220  111  232 1    
   221  111  233 1    
   222  111  234 1    
   223  112  113 2    
   224  112  114 am   BACKBONE|DICT|INTERRES
   225  114  115 1    
   226  114  235 1    
   227  115  116 1    
   228  115  117 1    
   229  115  236 1    
   230  116  237 1    
   231  116  238 1    
   232  116  239 1    
   233  117  118 2    
   234  117  119 am   BACKBONE|DICT|INTERRES
   235  119  120 1    
   236  119  240 1    
   237  120  121 1    
   238  120  124 1    
   239  120  241 1    
   240  121  122 am   BACKBONE|DICT|INTERRES
   241  121  123 2    
   242  122  242 1    
   243  122  243 1    
   244  124  125 1    
   245  124  244 1    
   246  124  245 1    
   247  125  126 1    
   248  126  246 1    
   249  126  247 1    
@<TRIPOS>SUBSTRUCTURE
     1 UNK         1 GROUP             0       ****    0 ROOT    
