@<TRIPOS>MOLECULE
3R540
247   249    1
SMALL
USER_CHARGES


@<TRIPOS>ATOM
      1 CA          3.9881  -10.8812  -51.8721 C.3       0 UNK        -0.1800 
      2 C           3.6395  -12.2739  -51.3666 C.2       0 UNK         0.5000 
      3 O           4.4023  -13.2161  -51.5862 O.2       0 UNK        -0.5000 
      4 N           2.4924  -12.4109  -50.6903 N.am      1 UNK        -0.5000 
      5 CA          1.9943  -13.6619  -50.1119 C.3       1 UNK         0.1400 
      6 C6          0.4577  -13.6440  -49.9123 C.3       23 UNK        -0.0398 
      7 S7         -0.4349  -13.6003  -51.5007 S.3       23 UNK        -0.2404 
      8 C8         -0.6743  -15.3779  -51.8158 C.3       23 UNK        -0.0205 
      9 C9         -1.8993  -15.9328  -51.1036 C.ar      23 UNK        -0.0193 
     10 C10        -3.1622  -15.7938  -51.6845 C.ar      23 UNK        -0.1150 
     11 C11        -4.2931  -16.3452  -51.0743 C.ar      23 UNK        -0.0193 
     12 C12        -4.1519  -17.0227  -49.8605 C.ar      23 UNK        -0.1150 
     13 C13        -2.8975  -17.1631  -49.2609 C.ar      23 UNK        -0.0193 
     14 C14        -1.7739  -16.6161  -49.8898 C.ar      23 UNK        -0.1150 
     15 C15        -2.7677  -17.8779  -47.9221 C.3       23 UNK        -0.0205 
     16 S16        -1.6335  -19.2957  -48.0002 S.3       23 UNK        -0.2404 
     17 C17        -1.5867  -19.7525  -46.2352 C.3       23 UNK        -0.0398 
     18 CA         -0.8547  -21.0934  -45.9956 C.3       11 UNK         0.1400 
     19 N          -0.2508  -21.1537  -44.6625 N.am      11 UNK        -0.5000 
     20 C           0.6017  -22.1050  -44.2573 C.2       10 UNK         0.5000 
     21 O           1.0083  -23.0111  -44.9807 O.2       10 UNK        -0.5000 
     22 CA          1.0084  -22.0877  -42.7763 C.3       10 UNK         0.1400 
     23 CB          2.1157  -21.0558  -42.5129 C.3       10 UNK        -0.1800 
     24 N          -0.1478  -21.8332  -41.9162 N.am      10 UNK        -0.5000 
     25 C          -1.1453  -22.7106  -41.7298 C.2       9 UNK         0.5000 
     26 O          -1.1510  -23.8441  -42.2103 O.2       9 UNK        -0.5000 
     27 CA         -2.3530  -22.2333  -40.9001 C.3       9 UNK         0.1400 
     28 CB         -2.1158  -22.5001  -39.4065 C.3       9 UNK        -0.1800 
     29 N          -2.6559  -20.8141  -41.0924 N.am      9 UNK        -0.5000 
     30 C          -3.1047  -20.2702  -42.2337 C.2       8 UNK         0.5000 
     31 O          -3.3560  -20.9171  -43.2488 O.2       8 UNK        -0.5000 
     32 CA         -3.2157  -18.7323  -42.2627 C.3       8 UNK         0.1400 
     33 CB         -4.5633  -18.2719  -41.6889 C.3       8 UNK        -0.1800 
     34 N          -2.1202  -18.0825  -41.5343 N.am      8 UNK        -0.5000 
     35 C          -0.8314  -18.2080  -41.8756 C.2       7 UNK         0.5000 
     36 O          -0.4592  -18.8180  -42.8788 O.2       7 UNK        -0.5000 
     37 CA          0.2043  -17.6733  -40.8793 C.3       7 UNK         0.1400 
     38 CB          0.3923  -18.7120  -39.7498 C.3       7 UNK        -0.1800 
     39 N           1.4589  -17.4097  -41.5852 N.am      7 UNK        -0.5000 
     40 C           2.5917  -16.9407  -41.0442 C.2       6 UNK         0.5000 
     41 O           2.7423  -16.7095  -39.8438 O.2       6 UNK        -0.5000 
     42 CA          3.7428  -16.6220  -42.0158 C.3       6 UNK         0.1400 
     43 CB          4.2602  -17.8827  -42.7277 C.3       6 UNK        -0.1800 
     44 N           3.3465  -15.6164  -42.9994 N.am      6 UNK        -0.5000 
     45 C           3.0505  -14.3403  -42.7087 C.2       5 UNK         0.5000 
     46 O           3.1976  -13.8383  -41.5936 O.2       5 UNK        -0.5000 
     47 CA          2.4727  -13.4774  -43.8464 C.3       5 UNK         0.1400 
     48 CB          3.5933  -12.7359  -44.5897 C.3       5 UNK        -0.1800 
     49 N           1.6790  -14.2459  -44.8052 N.am      5 UNK        -0.5000 
     50 C           0.5288  -14.8753  -44.5218 C.2       4 UNK         0.5000 
     51 O          -0.0188  -14.8545  -43.4193 O.2       4 UNK        -0.5000 
     52 CA         -0.1072  -15.6720  -45.6718 C.3       4 UNK         0.1400 
     53 CB         -0.9292  -14.7275  -46.5648 C.3       4 UNK        -0.1800 
     54 N           0.9005  -16.3704  -46.4745 N.am      4 UNK        -0.5000 
     55 C           1.6057  -17.4286  -46.0452 C.2       3 UNK         0.5000 
     56 O           1.4586  -17.9446  -44.9401 O.2       3 UNK        -0.5000 
     57 CA          2.6945  -17.9717  -46.9890 C.3       3 UNK         0.1400 
     58 CB          2.0825  -18.8801  -48.0660 C.3       3 UNK        -0.1800 
     59 N           3.4597  -16.9055  -47.6342 N.am      3 UNK        -0.5000 
     60 C           4.2498  -16.0345  -46.9896 C.2       2 UNK         0.5000 
     61 O           4.4696  -16.0767  -45.7797 O.2       2 UNK        -0.5000 
     62 CA          4.8538  -14.8943  -47.8340 C.3       2 UNK         0.1400 
     63 CB          6.2214  -15.3066  -48.3974 C.3       2 UNK        -0.1800 
     64 N           3.9884  -14.4621  -48.9359 N.am      2 UNK        -0.5000 
     65 C           2.7425  -13.9883  -48.8038 C.2       1 UNK         0.5000 
     66 O           2.1897  -13.8289  -47.7139 O.2       1 UNK        -0.5000 
     67 C          -1.7611  -22.3111  -46.2851 C.2       11 UNK         0.5000 
     68 O          -1.7330  -22.8366  -47.4000 O.2       11 UNK        -0.5000 
     69 N          -2.5211  -22.7624  -45.2750 N.am      12 UNK        -0.5000 
     70 CA         -3.3406  -23.9761  -45.3159 C.3       12 UNK         0.1400 
     71 CB         -4.1871  -24.0929  -44.0406 C.3       12 UNK        -0.1800 
     72 C          -2.5084  -25.2472  -45.5503 C.2       12 UNK         0.5000 
     73 O          -2.8816  -26.0681  -46.3886 O.2       12 UNK        -0.5000 
     74 N          -1.3817  -25.3658  -44.8367 N.am      13 UNK        -0.5000 
     75 CA         -0.4218  -26.4564  -44.9967 C.3       13 UNK         0.1400 
     76 CB          0.5729  -26.4337  -43.8260 C.3       13 UNK        -0.1800 
     77 C           0.3189  -26.4062  -46.3470 C.2       13 UNK         0.5000 
     78 O           0.5104  -27.4508  -46.9707 O.2       13 UNK        -0.5000 
     79 N           0.7288  -25.2013  -46.7651 N.am      14 UNK        -0.5000 
     80 CA          1.5118  -24.9640  -47.9751 C.3       14 UNK         0.1400 
     81 CB          2.1228  -23.5538  -47.9303 C.3       14 UNK        -0.1800 
     82 C           0.7149  -25.1589  -49.2747 C.2       14 UNK         0.5000 
     83 O           1.1980  -25.8497  -50.1735 O.2       14 UNK        -0.5000 
     84 N          -0.4617  -24.5256  -49.3753 N.am      15 UNK        -0.5000 
     85 CA         -1.2130  -24.4206  -50.6269 C.3       15 UNK         0.1400 
     86 CB         -0.5713  -23.3521  -51.5346 C.3       15 UNK        -0.1800 
     87 C          -2.7097  -24.1716  -50.3803 C.2       15 UNK         0.5000 
     88 O          -3.3161  -23.3396  -51.0591 O.2       15 UNK        -0.5000 
     89 N          -3.2834  -24.8959  -49.4072 N.am      16 UNK        -0.5000 
     90 CA         -4.7195  -24.9759  -49.0958 C.3       16 UNK         0.1400 
     91 CB         -5.4590  -25.7218  -50.2262 C.3       16 UNK        -0.1800 
     92 C          -5.3918  -23.6258  -48.7570 C.2       16 UNK         0.5000 
     93 O          -6.6099  -23.5006  -48.8909 O.2       16 UNK        -0.5000 
     94 N          -4.5854  -22.6449  -48.3255 N.am      17 UNK        -0.5000 
     95 CA         -4.9536  -21.2607  -48.0217 C.3       17 UNK         0.1400 
     96 CB         -5.8769  -21.1824  -46.7886 C.3       17 UNK        -0.1800 
     97 C          -5.4922  -20.4978  -49.2500 C.2       17 UNK         0.5000 
     98 O          -6.3482  -19.6238  -49.1063 O.2       17 UNK        -0.5000 
     99 N          -4.9750  -20.8395  -50.4366 N.am      18 UNK        -0.5000 
    100 CA        -5.3595  -20.2615  -51.7189 C.3       18 UNK         0.1400 
    101 CB        -6.5983  -20.9968  -52.2670 C.3       18 UNK        -0.1800 
    102 C         -4.1580  -20.3009  -52.6762 C.2       18 UNK         0.5000 
    103 O         -4.2887  -20.7582  -53.8126 O.2       18 UNK        -0.5000 
    104 N         -2.9958  -19.8378  -52.1928 N.am      19 UNK        -0.5000 
    105 CA        -1.6910  -19.9808  -52.8488 C.3       19 UNK         0.1400 
    106 CB        -0.5913  -19.4651  -51.9086 C.3       19 UNK        -0.1800 
    107 C         -1.5647  -19.3294  -54.2409 C.2       19 UNK         0.5000 
    108 O         -0.7478  -19.7875  -55.0402 O.2       19 UNK        -0.5000 
    109 N         -2.3789  -18.3039  -54.5225 N.am      20 UNK        -0.5000 
    110 CA        -2.4533  -17.6347  -55.8255 C.3       20 UNK         0.1400 
    111 CB        -2.6178  -16.1206  -55.6025 C.3       20 UNK        -0.1800 
    112 C         -3.5686  -18.2081  -56.7296 C.2       20 UNK         0.5000 
    113 O         -3.9507  -17.5472  -57.6963 O.2       20 UNK        -0.5000 
    114 N         -4.0826  -19.4063  -56.4018 N.am      21 UNK        -0.5000 
    115 CA        -5.2381  -20.0810  -57.0124 C.3       21 UNK         0.1400 
    116 CB        -4.9809  -20.4251  -58.4948 C.3       21 UNK        -0.1800 
    117 C         -6.5372  -19.2833  -56.7762 C.2       21 UNK         0.5000 
    118 O         -7.3242  -19.0607  -57.6983 O.2       21 UNK        -0.5000 
    119 N         -6.6859  -18.8246  -55.5299 N.am      22 UNK        -0.5000 
    120 CA        -7.7207  -17.9022  -55.0456 C.3       22 UNK         0.1400 
    121 C         -9.1578  -18.4863  -55.1253 C.2       22 UNK         0.5000 
    122 N        -10.1515  -17.6647  -55.4351 N.am      22 UNK        -0.7600 
    123 O         -9.3863  -19.6652  -54.8634 O.2       22 UNK        -0.5000 
    124 C124       -7.4076  -17.4176  -53.6041 C.3       23 UNK        -0.0398 
    125 S125       -5.6744  -16.8766  -53.4098 S.3       23 UNK        -0.2404 
    126 C126       -5.6671  -16.2100  -51.7182 C.3       23 UNK        -0.0205 
    127 H127        3.2222  -10.1510  -51.6097 H         1 UNK         0.0600 
    128 H128        4.0907  -10.8913  -52.9572 H         1 UNK         0.0600 
    129 H129        4.9339  -10.5521  -51.4419 H         1 UNK         0.0600 
    130 H130        1.9130  -11.5986  -50.5333 H         1 UNK         0.3000 
    131 H131        2.2175  -14.4745  -50.8071 H         1 UNK         0.0600 
    132 H132        0.1273  -14.5204  -49.3556 H         1 UNK         0.0800 
    133 H133        0.1553  -12.7798  -49.3185 H         1 UNK         0.0800 
    134 H134       -0.7842  -15.5284  -52.8896 H         1 UNK         0.0800 
    135 H135        0.2210  -15.9320  -51.5302 H         1 UNK         0.0800 
    136 H136       -3.2638  -15.2652  -52.6219 H         1 UNK         0.1150 
    137 H137       -5.0255  -17.4326  -49.3753 H         1 UNK         0.1150 
    138 H138       -0.8009  -16.7349  -49.4351 H         1 UNK         0.1150 
    139 H139       -2.4140  -17.1753  -47.1695 H         1 UNK         0.0800 
    140 H140       -3.7424  -18.2256  -47.5768 H         1 UNK         0.0800 
    141 H141       -1.0665  -18.9471  -45.7148 H         1 UNK         0.0800 
    142 H142       -2.5967  -19.7695  -45.8207 H         1 UNK         0.0800 
    143 H143       -0.0226  -21.1530  -46.6983 H         1 UNK         0.0600 
    144 H144       -0.4842  -20.4050  -44.0159 H         1 UNK         0.3000 
    145 H145        1.4063  -23.0741  -42.5277 H         1 UNK         0.0600 
    146 H146        2.4186  -21.0563  -41.4661 H         1 UNK         0.0600 
    147 H147        3.0023  -21.2809  -43.1068 H         1 UNK         0.0600 
    148 H148        1.8036  -20.0458  -42.7737 H         1 UNK         0.0600 
    149 H149       -0.2403  -20.9019  -41.5417 H         1 UNK         0.3000 
    150 H150       -3.2244  -22.8101  -41.2155 H         1 UNK         0.0600 
    151 H151       -1.9083  -23.5559  -39.2271 H         1 UNK         0.0600 
    152 H152       -2.9930  -22.2379  -38.8147 H         1 UNK         0.0600 
    153 H153       -1.2687  -21.9293  -39.0237 H         1 UNK         0.0600 
    154 H154       -2.4841  -20.2045  -40.3073 H         1 UNK         0.3000 
    155 H155       -3.1617  -18.4161  -43.3068 H         1 UNK         0.0600 
    156 H156       -4.6797  -17.1914  -41.7754 H         1 UNK         0.0600 
    157 H157       -4.6674  -18.5383  -40.6364 H         1 UNK         0.0600 
    158 H158       -5.3932  -18.7311  -42.2278 H         1 UNK         0.0600 
    159 H159       -2.3667  -17.5765  -40.6956 H         1 UNK         0.3000 
    160 H160       -0.1639  -16.7333  -40.4644 H         1 UNK         0.0600 
    161 H161        0.8960  -19.6097  -40.1077 H         1 UNK         0.0600 
    162 H162       -0.5642  -19.0196  -39.3255 H         1 UNK         0.0600 
    163 H163        0.9770  -18.3114  -38.9228 H         1 UNK         0.0600 
    164 H164        1.4112  -17.5739  -42.5867 H         1 UNK         0.3000 
    165 H165        4.5682  -16.2110  -41.4306 H         1 UNK         0.0600 
    166 H166        3.5078  -18.3240  -43.3796 H         1 UNK         0.0600 
    167 H167        5.1340  -17.6560  -43.3389 H         1 UNK         0.0600 
    168 H168        4.5556  -18.6448  -42.0058 H         1 UNK         0.0600 
    169 H169        3.2593  -15.9258  -43.9596 H         1 UNK         0.3000 
    170 H170        1.8131  -12.7329  -43.3959 H         1 UNK         0.0600 
    171 H171        4.1281  -12.0657  -43.9158 H         1 UNK         0.0600 
    172 H172        4.3237  -13.4288  -45.0058 H         1 UNK         0.0600 
    173 H173        3.1978  -12.1312  -45.4062 H         1 UNK         0.0600 
    174 H174        2.0162  -14.2698  -45.7620 H         1 UNK         0.3000 
    175 H175       -0.7792  -16.4184  -45.2424 H         1 UNK         0.0600 
    176 H176       -1.7883  -14.3347  -46.0200 H         1 UNK         0.0600 
    177 H177       -0.3431  -13.8718  -46.9004 H         1 UNK         0.0600 
    178 H178       -1.3097  -15.2299  -47.4507 H         1 UNK         0.0600 
    179 H179        1.1418  -15.9536  -47.3602 H         1 UNK         0.3000 
    180 H180        3.3863  -18.5686  -46.3907 H         1 UNK         0.0600 
    181 H181        1.3735  -18.3431  -48.6975 H         1 UNK         0.0600 
    182 H182        1.5502  -19.7145  -47.6110 H         1 UNK         0.0600 
    183 H183        2.8526  -19.3042  -48.7105 H         1 UNK         0.0600 
    184 H184        3.3521  -16.8048  -48.6322 H         1 UNK         0.3000 
    185 H185        5.0013  -14.0363  -47.1767 H         1 UNK         0.0600 
    186 H186        6.6952  -14.4796  -48.9268 H         1 UNK         0.0600 
    187 H187        6.8982  -15.6096  -47.5973 H         1 UNK         0.0600 
    188 H188        6.1356  -16.1441  -49.0907 H         1 UNK         0.0600 
    189 H189        4.3877  -14.4831  -49.8677 H         1 UNK         0.3000 
    190 H190       -2.5604  -22.2210  -44.4163 H         1 UNK         0.3000 
    191 H191       -4.0342  -23.8868  -46.1473 H         1 UNK         0.0600 
    192 H192       -4.8569  -24.9516  -44.0981 H         1 UNK         0.0600 
    193 H193       -4.8067  -23.2082  -43.8938 H         1 UNK         0.0600 
    194 H194       -3.5703  -24.2226  -43.1531 H         1 UNK         0.0600 
    195 H195       -1.1664  -24.6643  -44.1365 H         1 UNK         0.3000 
    196 H196       -0.9714  -27.3991  -44.9537 H         1 UNK         0.0600 
    197 H197        1.2883  -27.2531  -43.9049 H         1 UNK         0.0600 
    198 H198        0.0586  -26.5405  -42.8707 H         1 UNK         0.0600 
    199 H199        1.1404  -25.5031  -43.7959 H         1 UNK         0.0600 
    200 H200        0.5902  -24.4000  -46.1543 H         1 UNK         0.3000 
    201 H201        2.3363  -25.6801  -47.9841 H         1 UNK         0.0600 
    202 H202        2.7810  -23.4367  -47.0694 H         1 UNK         0.0600 
    203 H203        1.3541  -22.7829  -47.8715 H         1 UNK         0.0600 
    204 H204        2.7181  -23.3558  -48.8225 H         1 UNK         0.0600 
    205 H205       -0.8149  -23.9789  -48.5920 H         1 UNK         0.3000 
    206 H206       -1.1627  -25.3787  -51.1483 H         1 UNK         0.0600 
    207 H207        0.4720  -23.5806  -51.7514 H         1 UNK         0.0600 
    208 H208       -1.0881  -23.2931  -52.4927 H         1 UNK         0.0600 
    209 H209       -0.6081  -22.3676  -51.0686 H         1 UNK         0.0600 
    210 H210       -2.6913  -25.5058  -48.8584 H         1 UNK         0.3000 
    211 H211       -4.8041  -25.5840  -48.1948 H         1 UNK         0.0600 
    212 H212       -5.4731  -25.1412  -51.1494 H         1 UNK         0.0600 
    213 H213       -6.4946  -25.9270  -49.9528 H         1 UNK         0.0600 
    214 H214       -4.9878  -26.6811  -50.4401 H         1 UNK         0.0600 
    215 H215       -3.5944  -22.8534  -48.2562 H         1 UNK         0.3000 
    216 H216       -4.0256  -20.7646  -47.7508 H         1 UNK         0.0600 
    217 H217       -5.4386  -21.6985  -45.9346 H         1 UNK         0.0600 
    218 H218       -6.0389  -20.1468  -46.4878 H         1 UNK         0.0600 
    219 H219       -6.8549  -21.6224  -46.9838 H         1 UNK         0.0600 
    220 H220       -4.2995  -21.5974  -50.4859 H         1 UNK         0.3000 
    221 H221       -5.6125  -19.2105  -51.5777 H         1 UNK         0.0600 
    222 H222       -6.9059  -20.5965  -53.2331 H         1 UNK         0.0600 
    223 H223       -6.4013  -22.0614  -52.3994 H         1 UNK         0.0600 
    224 H224       -7.4480  -20.8964  -51.5917 H         1 UNK         0.0600 
    225 H225       -2.9845  -19.4537  -51.2586 H         1 UNK         0.3000 
    226 H226       -1.5340  -21.0495  -52.9955 H         1 UNK         0.0600 
    227 H227       -0.6544  -18.3871  -51.7750 H         1 UNK         0.0600 
    228 H228       -0.6529  -19.9297  -50.9246 H         1 UNK         0.0600 
    229 H229        0.3986  -19.6853  -52.3099 H         1 UNK         0.0600 
    230 H230       -3.0340  -17.9981  -53.8166 H         1 UNK         0.3000 
    231 H231       -1.5156  -17.7781  -56.3660 H         1 UNK         0.0600 
    232 H232       -2.5890  -15.5783  -56.5482 H         1 UNK         0.0600 
    233 H233       -1.8136  -15.7231  -54.9853 H         1 UNK         0.0600 
    234 H234       -3.5637  -15.8805  -55.1195 H         1 UNK         0.0600 
    235 H235       -3.7328  -19.8554  -55.5620 H         1 UNK         0.3000 
    236 H236       -5.3580  -21.0237  -56.4763 H         1 UNK         0.0600 
    237 H237       -4.0516  -20.9818  -58.6142 H         1 UNK         0.0600 
    238 H238       -5.7846  -21.0458  -58.8924 H         1 UNK         0.0600 
    239 H239       -4.9216  -19.5338  -59.1195 H         1 UNK         0.0600 
    240 H240       -5.9735  -19.0650  -54.8575 H         1 UNK         0.3000 
    241 H241       -7.6805  -17.0312  -55.7027 H         1 UNK         0.0600 
    242 H242       -9.9902  -16.6916  -55.6462 H         1 UNK         0.3800 
    243 H243      -11.0916  -18.0277  -55.4747 H         1 UNK         0.3800 
    244 H244       -8.0637  -16.5880  -53.3350 H         1 UNK         0.0800 
    245 H245       -7.6011  -18.2102  -52.8795 H         1 UNK         0.0800 
    246 H246       -5.9562  -15.1586  -51.7422 H         1 UNK         0.0800 
    247 H247       -6.4191  -16.7282  -51.1208 H         1 UNK         0.0800 
@<TRIPOS>BOND
     1    1    2 1    
     2    1  127 1    
     3    1  128 1    
     4    1  129 1    
     5    2    3 2    
     6    2    4 am   BACKBONE|DICT|INTERRES
     7    4    5 1    
     8    4  130 1    
     9    5    6 1    
    10    5   65 1    
    11    5  131 1    
    12    6    7 1    
    13    6  132 1    
    14    6  133 1    
    15    7    8 1    
    16    8    9 1    
    17    8  134 1    
    18    8  135 1    
    19    9   10 ar   
    20    9   14 ar   
    21   10   11 ar   
    22   10  136 1    
    23   11   12 ar   
    24   11  126 1    
    25   12   13 ar   
    26   12  137 1    
    27   13   14 ar   
    28   13   15 1    
    29   14  138 1    
    30   15   16 1    
    31   15  139 1    
    32   15  140 1    
    33   16   17 1    
    34   17   18 1    
    35   17  141 1    
    36   17  142 1    
    37   18   19 1    
    38   18   67 1    
    39   18  143 1    
    40   19   20 am   BACKBONE|DICT|INTERRES
    41   19  144 1    
    42   20   21 2    
    43   20   22 1    
    44   22   23 1    
    45   22   24 1    
    46   22  145 1    
    47   23  146 1    
    48   23  147 1    
    49   23  148 1    
    50   24   25 am   BACKBONE|DICT|INTERRES
    51   24  149 1    
    52   25   26 2    
    53   25   27 1    
    54   27   28 1    
    55   27   29 1    
    56   27  150 1    
    57   28  151 1    
    58   28  152 1    
    59   28  153 1    
    60   29   30 am   BACKBONE|DICT|INTERRES
    61   29  154 1    
    62   30   31 2    
    63   30   32 1    
    64   32   33 1    
    65   32   34 1    
    66   32  155 1    
    67   33  156 1    
    68   33  157 1    
    69   33  158 1    
    70   34   35 am   BACKBONE|DICT|INTERRES
    71   34  159 1    
    72   35   36 2    
    73   35   37 1    
    74   37   38 1    
    75   37   39 1    
    76   37  160 1    
    77   38  161 1    
    78   38  162 1    
    79   38  163 1    
    80   39   40 am   BACKBONE|DICT|INTERRES
    81   39  164 1    
    82   40   41 2    
    83   40   42 1    
    84   42   43 1    
    85   42   44 1    
    86   42  165 1    
    87   43  166 1    
    88   43  167 1    
    89   43  168 1    
    90   44   45 am   BACKBONE|DICT|INTERRES
    91   44  169 1    
    92   45   46 2    
    93   45   47 1    
    94   47   48 1    
    95   47   49 1    
    96   47  170 1    
    97   48  171 1    
    98   48  172 1    
    99   48  173 1    
   100   49   50 am   BACKBONE|DICT|INTERRES
   101   49  174 1    
   102   50   51 2    
   103   50   52 1    
   104   52   53 1    
   105   52   54 1    
   106   52  175 1    
   107   53  176 1    
   108   53  177 1    
   109   53  178 1    
   110   54   55 am   BACKBONE|DICT|INTERRES
   111   54  179 1    
   112   55   56 2    
   113   55   57 1    
   114   57   58 1    
   115   57   59 1    
   116   57  180 1    
   117   58  181 1    
   118   58  182 1    
   119   58  183 1    
   120   59   60 am   BACKBONE|DICT|INTERRES
   121   59  184 1    
   122   60   61 2    
   123   60   62 1    
   124   62   63 1    
   125   62   64 1    
   126   62  185 1    
   127   63  186 1    
   128   63  187 1    
   129   63  188 1    
   130   64   65 am   BACKBONE|DICT|INTERRES
   131   64  189 1    
   132   65   66 2    
   133   67   68 2    
   134   67   69 am   BACKBONE|DICT|INTERRES
   135   69   70 1    
   136   69  190 1    
   137   70   71 1    
   138   70   72 1    
   139   70  191 1    
   140   71  192 1    
   141   71  193 1    
   142   71  194 1    
   143   72   73 2    
   144   72   74 am   BACKBONE|DICT|INTERRES
   145   74   75 1    
   146   74  195 1    
   147   75   76 1    
   148   75   77 1    
   149   75  196 1    
   150   76  197 1    
   151   76  198 1    
   152   76  199 1    
   153   77   78 2    
   154   77   79 am   BACKBONE|DICT|INTERRES
   155   79   80 1    
   156   79  200 1    
   157   80   81 1    
   158   80   82 1    
   159   80  201 1    
   160   81  202 1    
   161   81  203 1    
   162   81  204 1    
   163   82   83 2    
   164   82   84 am   BACKBONE|DICT|INTERRES
   165   84   85 1    
   166   84  205 1    
   167   85   86 1    
   168   85   87 1    
   169   85  206 1    
   170   86  207 1    
   171   86  208 1    
   172   86  209 1    
   173   87   88 2    
   174   87   89 am   BACKBONE|DICT|INTERRES
   175   89   90 1    
   176   89  210 1    
   177   90   91 1    
   178   90   92 1    
   179   90  211 1    
   180   91  212 1    
   181   91  213 1    
   182   91  214 1    
   183   92   93 2    
   184   92   94 am   BACKBONE|DICT|INTERRES
   185   94   95 1    
   186   94  215 1    
   187   95   96 1    
   188   95   97 1    
   189   95  216 1    
   190   96  217 1    
   191   96  218 1    
   192   96  219 1    
   193   97   98 2    
   194   97   99 am   BACKBONE|DICT|INTERRES
   195   99  100 1    
   196   99  220 1    
   197  100  101 1    
   198  100  102 1    
   199  100  221 1    
   200  101  222 1    
   201  101  223 1    
   202  101  224 1    
   203  102  103 2    
   204  102  104 am   BACKBONE|DICT|INTERRES
   205  104  105 1    
   206  104  225 1    
   207  105  106 1    
   208  105  107 1    
   209  105  226 1    
   210  106  227 1    
   211  106  228 1    
   212  106  229 1    
   213  107  108 2    
   214  107  109 am   BACKBONE|DICT|INTERRES
   215  109  110 1    
   216  109  230 1    
   217  110  111 1    
   218  110  112 1    
   219  110  231 1    
   220  111  232 1    
   221  111  233 1    
   222  111  234 1    
   223  112  113 2    
   224  112  114 am   BACKBONE|DICT|INTERRES
   225  114  115 1    
   226  114  235 1    
   227  115  116 1    
   228  115  117 1    
   229  115  236 1    
   230  116  237 1    
   231  116  238 1    
   232  116  239 1    
   233  117  118 2    
   234  117  119 am   BACKBONE|DICT|INTERRES
   235  119  120 1    
   236  119  240 1    
   237  120  121 1    
   238  120  124 1    
   239  120  241 1    
   240  121  122 am   BACKBONE|DICT|INTERRES
   241  121  123 2    
   242  122  242 1    
   243  122  243 1    
   244  124  125 1    
   245  124  244 1    
   246  124  245 1    
   247  125  126 1    
   248  126  246 1    
   249  126  247 1    
@<TRIPOS>SUBSTRUCTURE
     1 UNK         1 GROUP             0       ****    0 ROOT    
