@<TRIPOS>MOLECULE
3R540
247   249    1
SMALL
USER_CHARGES


@<TRIPOS>ATOM
      1 CA         -1.0554  -11.4053  -47.2810 C.3       0 UNK        -0.1800 
      2 C           0.3884  -11.8017  -47.5538 C.2       0 UNK         0.5000 
      3 O           1.1827  -10.9648  -47.9808 O.2       0 UNK        -0.5000 
      4 N           0.7283  -13.0719  -47.3011 N.am      1 UNK        -0.5000 
      5 CA          2.0650  -13.6489  -47.4772 C.3       1 UNK         0.1400 
      6 C6          2.0344  -15.1823  -47.2750 C.3       23 UNK        -0.0398 
      7 S7          3.3574  -16.0784  -48.1513 S.3       23 UNK        -0.2404 
      8 C8          2.8670  -15.9239  -49.9036 C.3       23 UNK        -0.0205 
      9 C9          1.4073  -16.2743  -50.1647 C.ar      23 UNK        -0.0193 
     10 C10         0.5169  -15.2903  -50.6033 C.ar      23 UNK        -0.1150 
     11 C11        -0.8145  -15.6118  -50.8775 C.ar      23 UNK        -0.0193 
     12 C12        -1.2577  -16.9229  -50.6938 C.ar      23 UNK        -0.1150 
     13 C13        -0.3825  -17.9213  -50.2611 C.ar      23 UNK        -0.0193 
     14 C14         0.9516  -17.5839  -49.9902 C.ar      23 UNK        -0.1150 
     15 C15        -0.9298  -19.3394  -50.1106 C.3       23 UNK        -0.0205 
     16 S16         0.3253  -20.6613  -50.2170 S.3       23 UNK        -0.2404 
     17 C17         0.7708  -20.8062  -48.4515 C.3       23 UNK        -0.0398 
     18 CA          0.2982  -22.1069  -47.7549 C.3       11 UNK         0.1400 
     19 N           0.5492  -22.0509  -46.3155 N.am      11 UNK        -0.5000 
     20 C           0.4473  -23.0876  -45.4734 C.2       10 UNK         0.5000 
     21 O           0.1822  -24.2363  -45.8289 O.2       10 UNK        -0.5000 
     22 CA          0.6172  -22.7700  -43.9762 C.3       10 UNK         0.1400 
     23 CB          2.1007  -22.6091  -43.6137 C.3       10 UNK        -0.1800 
     24 N          -0.1169  -21.5676  -43.5767 N.am      10 UNK        -0.5000 
     25 C          -1.4497  -21.4368  -43.6419 C.2       9 UNK         0.5000 
     26 O          -2.2100  -22.3366  -43.9976 O.2       9 UNK        -0.5000 
     27 CA         -2.0262  -20.0527  -43.3018 C.3       9 UNK         0.1400 
     28 CB         -2.1487  -19.8623  -41.7824 C.3       9 UNK        -0.1800 
     29 N          -1.2292  -18.9680  -43.8731 N.am      9 UNK        -0.5000 
     30 C          -1.1255  -18.7090  -45.1842 C.2       8 UNK         0.5000 
     31 O          -1.6965  -19.3543  -46.0610 O.2       8 UNK        -0.5000 
     32 CA         -0.1906  -17.5565  -45.5811 C.3       8 UNK         0.1400 
     33 CB         -0.8840  -16.2050  -45.3388 C.3       8 UNK        -0.1800 
     34 N           1.0743  -17.6071  -44.8470 N.am      8 UNK        -0.5000 
     35 C           1.9895  -18.5812  -44.9856 C.2       7 UNK         0.5000 
     36 O           1.8740  -19.5173  -45.7748 O.2       7 UNK        -0.5000 
     37 CA          3.2170  -18.5406  -44.0541 C.3       7 UNK         0.1400 
     38 CB          4.3433  -17.7180  -44.6982 C.3       7 UNK        -0.1800 
     39 N           2.9226  -17.9904  -42.7319 N.am      7 UNK        -0.5000 
     40 C           1.9850  -18.4405  -41.8857 C.2       6 UNK         0.5000 
     41 O           1.3476  -19.4788  -42.0662 O.2       6 UNK        -0.5000 
     42 CA          1.6560  -17.5466  -40.6705 C.3       6 UNK         0.1400 
     43 CB          2.2666  -18.1372  -39.3912 C.3       6 UNK        -0.1800 
     44 N           2.0895  -16.1479  -40.8078 N.am      6 UNK        -0.5000 
     45 C           1.7053  -15.2986  -41.7723 C.2       5 UNK         0.5000 
     46 O           0.9243  -15.6043  -42.6773 O.2       5 UNK        -0.5000 
     47 CA          2.3812  -13.9159  -41.7601 C.3       5 UNK         0.1400 
     48 CB          3.8625  -14.0388  -42.1568 C.3       5 UNK        -0.1800 
     49 N           1.7440  -12.9921  -42.6924 N.am      5 UNK        -0.5000 
     50 C           0.6092  -12.3190  -42.4708 C.2       4 UNK         0.5000 
     51 O          -0.0346  -12.3833  -41.4215 O.2       4 UNK        -0.5000 
     52 CA          0.1560  -11.3963  -43.6230 C.3       4 UNK         0.1400 
     53 CB         -1.0440  -10.4972  -43.2602 C.3       4 UNK        -0.1800 
     54 N           1.2734  -10.6068  -44.1601 N.am      4 UNK        -0.5000 
     55 C           2.0227   -9.7060  -43.5034 C.2       3 UNK         0.5000 
     56 O           1.7855   -9.3151  -42.3595 O.2       3 UNK        -0.5000 
     57 CA          3.2782   -9.2086  -44.2443 C.3       3 UNK         0.1400 
     58 CB          4.2713   -8.4640  -43.3293 C.3       3 UNK        -0.1800 
     59 N           3.9373  -10.3455  -44.8823 N.am      3 UNK        -0.5000 
     60 C           4.7414  -10.3059  -45.9477 C.2       2 UNK         0.5000 
     61 O           5.0711   -9.2677  -46.5220 O.2       2 UNK        -0.5000 
     62 CA          5.2429  -11.6648  -46.4773 C.3       2 UNK         0.1400 
     63 CB          5.9950  -12.4748  -45.4006 C.3       2 UNK        -0.1800 
     64 N           4.1781  -12.4555  -47.1072 N.am      2 UNK        -0.5000 
     65 C           3.0839  -12.9772  -46.5355 C.2       1 UNK         0.5000 
     66 O           2.8395  -12.9295  -45.3267 O.2       1 UNK        -0.5000 
     67 C          -1.1712  -22.4796  -48.0542 C.2       11 UNK         0.5000 
     68 O          -1.4046  -23.3759  -48.8630 O.2       11 UNK        -0.5000 
     69 N          -2.1315  -21.8320  -47.3773 N.am      12 UNK        -0.5000 
     70 CA         -3.5633  -22.1126  -47.5107 C.3       12 UNK         0.1400 
     71 CB         -4.3781  -21.1027  -46.6907 C.3       12 UNK        -0.1800 
     72 C          -3.9345  -23.5550  -47.1229 C.2       12 UNK         0.5000 
     73 O          -4.7463  -24.1716  -47.8126 O.2       12 UNK        -0.5000 
     74 N          -3.3051  -24.0794  -46.0619 N.am      13 UNK        -0.5000 
     75 CA         -3.4283  -25.4702  -45.6281 C.3       13 UNK         0.1400 
     76 CB         -2.7624  -25.6486  -44.2555 C.3       13 UNK        -0.1800 
     77 C          -2.8528  -26.4616  -46.6559 C.2       13 UNK         0.5000 
     78 O          -3.5057  -27.4610  -46.9561 O.2       13 UNK        -0.5000 
     79 N          -1.6721  -26.1524  -47.2126 N.am      14 UNK        -0.5000 
     80 CA         -1.0230  -26.9319  -48.2729 C.3       14 UNK         0.1400 
     81 CB          0.4056  -26.4118  -48.4926 C.3       14 UNK        -0.1800 
     82 C          -1.8193  -26.9299  -49.5939 C.2       14 UNK         0.5000 
     83 O          -1.8997  -27.9611  -50.2617 O.2       14 UNK        -0.5000 
     84 N          -2.4307  -25.7836  -49.9183 N.am      15 UNK        -0.5000 
     85 CA         -3.3528  -25.5850  -51.0387 C.3       15 UNK         0.1400 
     86 CB         -3.4785  -24.0721  -51.2949 C.3       15 UNK        -0.1800 
     87 C          -4.7482  -26.2062  -50.8104 C.2       15 UNK         0.5000 
     88 O          -5.5639  -26.2017  -51.7351 O.2       15 UNK        -0.5000 
     89 N          -5.0157  -26.6807  -49.5821 N.am      16 UNK        -0.5000 
     90 CA         -6.2822  -27.2266  -49.0805 C.3       16 UNK         0.1400 
     91 CB         -6.5649  -28.5981  -49.7265 C.3       16 UNK        -0.1800 
     92 C          -7.4585  -26.2394  -49.2349 C.2       16 UNK         0.5000 
     93 O          -8.5872  -26.6587  -49.4985 O.2       16 UNK        -0.5000 
     94 N          -7.1501  -24.9375  -49.1331 N.am      17 UNK        -0.5000 
     95 CA         -7.9566  -23.7517  -49.4448 C.3       17 UNK         0.1400 
     96 CB         -9.1796  -23.6475  -48.5156 C.3       17 UNK        -0.1800 
     97 C          -8.3714  -23.6275  -50.9278 C.2       17 UNK         0.5000 
     98 O          -8.2851  -22.5346  -51.4872 O.2       17 UNK        -0.5000 
     99 N          -8.8118  -24.7367  -51.5324 N.am      18 UNK        -0.5000 
    100 CA        -9.3896  -24.8426  -52.8701 C.3       18 UNK         0.1400 
    101 CB        -9.8797  -26.2826  -53.0851 C.3       18 UNK        -0.1800 
    102 C         -8.4571  -24.4172  -54.0172 C.2       18 UNK         0.5000 
    103 O         -8.9357  -23.8033  -54.9722 O.2       18 UNK        -0.5000 
    104 N         -7.1577  -24.7401  -53.9220 N.am      19 UNK        -0.5000 
    105 CA        -6.1739  -24.3793  -54.9500 C.3       19 UNK         0.1400 
    106 CB        -4.9587  -25.3155  -54.8676 C.3       19 UNK        -0.1800 
    107 C         -5.7427  -22.9009  -54.8784 C.2       19 UNK         0.5000 
    108 O         -5.2483  -22.3742  -55.8760 O.2       19 UNK        -0.5000 
    109 N         -5.9426  -22.2659  -53.7128 N.am      20 UNK        -0.5000 
    110 CA        -5.7155  -20.8587  -53.3508 C.3       20 UNK         0.1400 
    111 CB        -6.6251  -19.9295  -54.1755 C.3       20 UNK        -0.1800 
    112 C         -4.2518  -20.3705  -53.3961 C.2       20 UNK         0.5000 
    113 O         -3.8369  -19.6514  -52.4869 O.2       20 UNK        -0.5000 
    114 N         -3.5078  -20.7576  -54.4398 N.am      21 UNK        -0.5000 
    115 CA        -2.1384  -20.3579  -54.7685 C.3       21 UNK         0.1400 
    116 CB        -1.1325  -20.9987  -53.7896 C.3       21 UNK        -0.1800 
    117 C         -2.0110  -18.8264  -54.9333 C.2       21 UNK         0.5000 
    118 O         -2.7436  -18.2596  -55.7467 O.2       21 UNK        -0.5000 
    119 N         -1.0902  -18.1884  -54.1959 N.am      22 UNK        -0.5000 
    120 CA        -0.7658  -16.7502  -54.2828 C.3       22 UNK         0.1400 
    121 C         -0.0306  -16.3415  -55.6008 C.2       22 UNK         0.5000 
    122 N          0.5969  -17.2680  -56.3163 N.am      22 UNK        -0.7600 
    123 O         -0.0027  -15.1743  -55.9805 O.2       22 UNK        -0.5000 
    124 C124       -1.9842  -15.8403  -53.9339 C.3       23 UNK        -0.0398 
    125 S125       -1.5121  -14.2414  -53.1785 S.3       23 UNK        -0.2404 
    126 C126       -1.7685  -14.5514  -51.4020 C.3       23 UNK        -0.0205 
    127 H127       -1.6217  -12.2187  -46.8266 H         1 UNK         0.0600 
    128 H128       -1.5485  -11.1250  -48.2117 H         1 UNK         0.0600 
    129 H129       -1.0886  -10.5501  -46.6061 H         1 UNK         0.0600 
    130 H130        0.0257  -13.6995  -46.9410 H         1 UNK         0.3000 
    131 H131        2.3507  -13.4366  -48.5088 H         1 UNK         0.0600 
    132 H132        2.0959  -15.4368  -46.2161 H         1 UNK         0.0800 
    133 H133        1.0832  -15.5923  -47.6133 H         1 UNK         0.0800 
    134 H134        3.0871  -14.9122  -50.2467 H         1 UNK         0.0800 
    135 H135        3.4988  -16.5837  -50.4998 H         1 UNK         0.0800 
    136 H136        0.8608  -14.2762  -50.7517 H         1 UNK         0.1150 
    137 H137       -2.2869  -17.1743  -50.9107 H         1 UNK         0.1150 
    138 H138        1.6508  -18.3318  -49.6472 H         1 UNK         0.1150 
    139 H139       -1.4776  -19.4125  -49.1699 H         1 UNK         0.0800 
    140 H140       -1.6696  -19.5182  -50.8897 H         1 UNK         0.0800 
    141 H141        0.3843  -19.9378  -47.9172 H         1 UNK         0.0800 
    142 H142        1.8563  -20.7305  -48.3753 H         1 UNK         0.0800 
    143 H143        0.9096  -22.9202  -48.1516 H         1 UNK         0.0600 
    144 H144        0.8174  -21.1435  -45.9460 H         1 UNK         0.3000 
    145 H145        0.2150  -23.6114  -43.4082 H         1 UNK         0.0600 
    146 H146        2.6615  -23.5122  -43.8575 H         1 UNK         0.0600 
    147 H147        2.5600  -21.7815  -44.1542 H         1 UNK         0.0600 
    148 H148        2.2284  -22.4233  -42.5470 H         1 UNK         0.0600 
    149 H149        0.4305  -20.7873  -43.2254 H         1 UNK         0.3000 
    150 H150       -3.0288  -19.9947  -43.7302 H         1 UNK         0.0600 
    151 H151       -2.6067  -18.9030  -41.5410 H         1 UNK         0.0600 
    152 H152       -1.1788  -19.9052  -41.2865 H         1 UNK         0.0600 
    153 H153       -2.7745  -20.6404  -41.3434 H         1 UNK         0.0600 
    154 H154       -0.6812  -18.4180  -43.2283 H         1 UNK         0.3000 
    155 H155        0.0313  -17.6474  -46.6467 H         1 UNK         0.0600 
    156 H156       -1.2318  -16.1081  -44.3095 H         1 UNK         0.0600 
    157 H157       -1.7530  -16.0942  -45.9884 H         1 UNK         0.0600 
    158 H158       -0.2196  -15.3656  -45.5334 H         1 UNK         0.0600 
    159 H159        1.2084  -16.8968  -44.1331 H         1 UNK         0.3000 
    160 H160        3.5686  -19.5648  -43.9181 H         1 UNK         0.0600 
    161 H161        4.5985  -18.1102  -45.6837 H         1 UNK         0.0600 
    162 H162        4.0569  -16.6732  -44.8271 H         1 UNK         0.0600 
    163 H163        5.2497  -17.7462  -44.0934 H         1 UNK         0.0600 
    164 H164        3.3963  -17.1340  -42.4888 H         1 UNK         0.3000 
    165 H165        0.5695  -17.5443  -40.5622 H         1 UNK         0.0600 
    166 H166        1.9617  -17.5721  -38.5102 H         1 UNK         0.0600 
    167 H167        1.9412  -19.1678  -39.2419 H         1 UNK         0.0600 
    168 H168        3.3567  -18.1395  -39.4300 H         1 UNK         0.0600 
    169 H169        2.7458  -15.8219  -40.1127 H         1 UNK         0.3000 
    170 H170        2.3155  -13.5055  -40.7504 H         1 UNK         0.0600 
    171 H171        4.3500  -13.0636  -42.1589 H         1 UNK         0.0600 
    172 H172        4.4129  -14.6700  -41.4583 H         1 UNK         0.0600 
    173 H173        3.9777  -14.4704  -43.1523 H         1 UNK         0.0600 
    174 H174        2.1604  -12.9403  -43.6186 H         1 UNK         0.3000 
    175 H175       -0.1653  -12.0603  -44.4263 H         1 UNK         0.0600 
    176 H176       -0.8247   -9.8440  -42.4154 H         1 UNK         0.0600 
    177 H177       -1.3355   -9.8697  -44.1022 H         1 UNK         0.0600 
    178 H178       -1.9117  -11.0994  -42.9887 H         1 UNK         0.0600 
    179 H179        1.5821  -10.8742  -45.0846 H         1 UNK         0.3000 
    180 H180        2.9328   -8.5194  -45.0176 H         1 UNK         0.0600 
    181 H181        3.8002   -7.6001  -42.8589 H         1 UNK         0.0600 
    182 H182        5.1295   -8.0949  -43.8907 H         1 UNK         0.0600 
    183 H183        4.6442   -9.1116  -42.5351 H         1 UNK         0.0600 
    184 H184        3.6782  -11.2616  -44.5332 H         1 UNK         0.3000 
    185 H185        5.9597  -11.4448  -47.2701 H         1 UNK         0.0600 
    186 H186        6.8232  -11.8963  -44.9898 H         1 UNK         0.0600 
    187 H187        5.3551  -12.7600  -44.5663 H         1 UNK         0.0600 
    188 H188        6.4150  -13.3881  -45.8218 H         1 UNK         0.0600 
    189 H189        4.2587  -12.5307  -48.1116 H         1 UNK         0.3000 
    190 H190       -1.8771  -21.0675  -46.7563 H         1 UNK         0.3000 
    191 H191       -3.8248  -21.9772  -48.5618 H         1 UNK         0.0600 
    192 H192       -4.1358  -21.1575  -45.6295 H         1 UNK         0.0600 
    193 H193       -5.4480  -21.2883  -46.7939 H         1 UNK         0.0600 
    194 H194       -4.1922  -20.0821  -47.0255 H         1 UNK         0.0600 
    195 H195       -2.6978  -23.4812  -45.5092 H         1 UNK         0.3000 
    196 H196       -4.4921  -25.6899  -45.5165 H         1 UNK         0.0600 
    197 H197       -2.8600  -26.6765  -43.9045 H         1 UNK         0.0600 
    198 H198       -3.2247  -25.0038  -43.5079 H         1 UNK         0.0600 
    199 H199       -1.6989  -25.4115  -44.2872 H         1 UNK         0.0600 
    200 H200       -1.1795  -25.3258  -46.8889 H         1 UNK         0.3000 
    201 H201       -0.9561  -27.9665  -47.9302 H         1 UNK         0.0600 
    202 H202        0.9915  -26.4702  -47.5751 H         1 UNK         0.0600 
    203 H203        0.4113  -25.3742  -48.8263 H         1 UNK         0.0600 
    204 H204        0.9240  -27.0025  -49.2488 H         1 UNK         0.0600 
    205 H205       -2.2308  -24.9600  -49.3541 H         1 UNK         0.3000 
    206 H206       -2.9274  -26.0538  -51.9279 H         1 UNK         0.0600 
    207 H207       -4.1518  -23.8561  -52.1226 H         1 UNK         0.0600 
    208 H208       -3.8691  -23.5514  -50.4210 H         1 UNK         0.0600 
    209 H209       -2.5122  -23.6309  -51.5407 H         1 UNK         0.0600 
    210 H210       -4.2814  -26.6117  -48.8894 H         1 UNK         0.3000 
    211 H211       -6.1503  -27.3806  -48.0088 H         1 UNK         0.0600 
    212 H212       -6.7622  -28.5081  -50.7953 H         1 UNK         0.0600 
    213 H213       -7.4337  -29.0748  -49.2714 H         1 UNK         0.0600 
    214 H214       -5.7200  -29.2746  -49.5971 H         1 UNK         0.0600 
    215 H215       -6.1937  -24.7258  -48.8547 H         1 UNK         0.3000 
    216 H216       -7.3103  -22.8989  -49.2309 H         1 UNK         0.0600 
    217 H217       -9.7169  -22.7136  -48.6850 H         1 UNK         0.0600 
    218 H218       -8.8796  -23.6646  -47.4678 H         1 UNK         0.0600 
    219 H219       -9.8860  -24.4623  -48.6759 H         1 UNK         0.0600 
    220 H220       -8.8295  -25.5811  -50.9658 H         1 UNK         0.3000 
    221 H221      -10.2584  -24.1819  -52.8972 H         1 UNK         0.0600 
    222 H222       -9.0596  -26.9988  -53.0169 H         1 UNK         0.0600 
    223 H223      -10.6280  -26.5596  -52.3422 H         1 UNK         0.0600 
    224 H224      -10.3389  -26.3990  -54.0677 H         1 UNK         0.0600 
    225 H225       -6.8201  -25.2571  -53.1154 H         1 UNK         0.3000 
    226 H226       -6.6295  -24.5316  -55.9309 H         1 UNK         0.0600 
    227 H227       -5.2605  -26.3607  -54.9367 H         1 UNK         0.0600 
    228 H228       -4.2647  -25.1230  -55.6867 H         1 UNK         0.0600 
    229 H229       -4.4054  -25.1889  -53.9398 H         1 UNK         0.0600 
    230 H230       -6.3816  -22.8106  -52.9831 H         1 UNK         0.3000 
    231 H231       -6.0319  -20.7780  -52.3095 H         1 UNK         0.0600 
    232 H232       -6.3781  -19.9553  -55.2372 H         1 UNK         0.0600 
    233 H233       -7.6732  -20.2095  -54.0673 H         1 UNK         0.0600 
    234 H234       -6.5284  -18.8950  -53.8438 H         1 UNK         0.0600 
    235 H235       -3.9828  -21.3233  -55.1402 H         1 UNK         0.3000 
    236 H236       -1.9343  -20.7757  -55.7553 H         1 UNK         0.0600 
    237 H237       -1.2928  -20.6675  -52.7669 H         1 UNK         0.0600 
    238 H238       -1.2254  -22.0848  -53.7959 H         1 UNK         0.0600 
    239 H239       -0.1028  -20.7659  -54.0626 H         1 UNK         0.0600 
    240 H240       -0.5377  -18.7249  -53.5429 H         1 UNK         0.3000 
    241 H241       -0.0181  -16.6024  -53.5032 H         1 UNK         0.0600 
    242 H242        1.0752  -16.9993  -57.1622 H         1 UNK         0.3800 
    243 H243        0.6028  -18.2314  -56.0229 H         1 UNK         0.3800 
    244 H244       -2.6550  -16.3548  -53.2451 H         1 UNK         0.0800 
    245 H245       -2.5833  -15.6430  -54.8242 H         1 UNK         0.0800 
    246 H246       -1.6136  -13.6210  -50.8537 H         1 UNK         0.0800 
    247 H247       -2.8061  -14.8399  -51.2267 H         1 UNK         0.0800 
@<TRIPOS>BOND
     1    1    2 1    
     2    1  127 1    
     3    1  128 1    
     4    1  129 1    
     5    2    3 2    
     6    2    4 am   BACKBONE|DICT|INTERRES
     7    4    5 1    
     8    4  130 1    
     9    5    6 1    
    10    5   65 1    
    11    5  131 1    
    12    6    7 1    
    13    6  132 1    
    14    6  133 1    
    15    7    8 1    
    16    8    9 1    
    17    8  134 1    
    18    8  135 1    
    19    9   10 ar   
    20    9   14 ar   
    21   10   11 ar   
    22   10  136 1    
    23   11   12 ar   
    24   11  126 1    
    25   12   13 ar   
    26   12  137 1    
    27   13   14 ar   
    28   13   15 1    
    29   14  138 1    
    30   15   16 1    
    31   15  139 1    
    32   15  140 1    
    33   16   17 1    
    34   17   18 1    
    35   17  141 1    
    36   17  142 1    
    37   18   19 1    
    38   18   67 1    
    39   18  143 1    
    40   19   20 am   BACKBONE|DICT|INTERRES
    41   19  144 1    
    42   20   21 2    
    43   20   22 1    
    44   22   23 1    
    45   22   24 1    
    46   22  145 1    
    47   23  146 1    
    48   23  147 1    
    49   23  148 1    
    50   24   25 am   BACKBONE|DICT|INTERRES
    51   24  149 1    
    52   25   26 2    
    53   25   27 1    
    54   27   28 1    
    55   27   29 1    
    56   27  150 1    
    57   28  151 1    
    58   28  152 1    
    59   28  153 1    
    60   29   30 am   BACKBONE|DICT|INTERRES
    61   29  154 1    
    62   30   31 2    
    63   30   32 1    
    64   32   33 1    
    65   32   34 1    
    66   32  155 1    
    67   33  156 1    
    68   33  157 1    
    69   33  158 1    
    70   34   35 am   BACKBONE|DICT|INTERRES
    71   34  159 1    
    72   35   36 2    
    73   35   37 1    
    74   37   38 1    
    75   37   39 1    
    76   37  160 1    
    77   38  161 1    
    78   38  162 1    
    79   38  163 1    
    80   39   40 am   BACKBONE|DICT|INTERRES
    81   39  164 1    
    82   40   41 2    
    83   40   42 1    
    84   42   43 1    
    85   42   44 1    
    86   42  165 1    
    87   43  166 1    
    88   43  167 1    
    89   43  168 1    
    90   44   45 am   BACKBONE|DICT|INTERRES
    91   44  169 1    
    92   45   46 2    
    93   45   47 1    
    94   47   48 1    
    95   47   49 1    
    96   47  170 1    
    97   48  171 1    
    98   48  172 1    
    99   48  173 1    
   100   49   50 am   BACKBONE|DICT|INTERRES
   101   49  174 1    
   102   50   51 2    
   103   50   52 1    
   104   52   53 1    
   105   52   54 1    
   106   52  175 1    
   107   53  176 1    
   108   53  177 1    
   109   53  178 1    
   110   54   55 am   BACKBONE|DICT|INTERRES
   111   54  179 1    
   112   55   56 2    
   113   55   57 1    
   114   57   58 1    
   115   57   59 1    
   116   57  180 1    
   117   58  181 1    
   118   58  182 1    
   119   58  183 1    
   120   59   60 am   BACKBONE|DICT|INTERRES
   121   59  184 1    
   122   60   61 2    
   123   60   62 1    
   124   62   63 1    
   125   62   64 1    
   126   62  185 1    
   127   63  186 1    
   128   63  187 1    
   129   63  188 1    
   130   64   65 am   BACKBONE|DICT|INTERRES
   131   64  189 1    
   132   65   66 2    
   133   67   68 2    
   134   67   69 am   BACKBONE|DICT|INTERRES
   135   69   70 1    
   136   69  190 1    
   137   70   71 1    
   138   70   72 1    
   139   70  191 1    
   140   71  192 1    
   141   71  193 1    
   142   71  194 1    
   143   72   73 2    
   144   72   74 am   BACKBONE|DICT|INTERRES
   145   74   75 1    
   146   74  195 1    
   147   75   76 1    
   148   75   77 1    
   149   75  196 1    
   150   76  197 1    
   151   76  198 1    
   152   76  199 1    
   153   77   78 2    
   154   77   79 am   BACKBONE|DICT|INTERRES
   155   79   80 1    
   156   79  200 1    
   157   80   81 1    
   158   80   82 1    
   159   80  201 1    
   160   81  202 1    
   161   81  203 1    
   162   81  204 1    
   163   82   83 2    
   164   82   84 am   BACKBONE|DICT|INTERRES
   165   84   85 1    
   166   84  205 1    
   167   85   86 1    
   168   85   87 1    
   169   85  206 1    
   170   86  207 1    
   171   86  208 1    
   172   86  209 1    
   173   87   88 2    
   174   87   89 am   BACKBONE|DICT|INTERRES
   175   89   90 1    
   176   89  210 1    
   177   90   91 1    
   178   90   92 1    
   179   90  211 1    
   180   91  212 1    
   181   91  213 1    
   182   91  214 1    
   183   92   93 2    
   184   92   94 am   BACKBONE|DICT|INTERRES
   185   94   95 1    
   186   94  215 1    
   187   95   96 1    
   188   95   97 1    
   189   95  216 1    
   190   96  217 1    
   191   96  218 1    
   192   96  219 1    
   193   97   98 2    
   194   97   99 am   BACKBONE|DICT|INTERRES
   195   99  100 1    
   196   99  220 1    
   197  100  101 1    
   198  100  102 1    
   199  100  221 1    
   200  101  222 1    
   201  101  223 1    
   202  101  224 1    
   203  102  103 2    
   204  102  104 am   BACKBONE|DICT|INTERRES
   205  104  105 1    
   206  104  225 1    
   207  105  106 1    
   208  105  107 1    
   209  105  226 1    
   210  106  227 1    
   211  106  228 1    
   212  106  229 1    
   213  107  108 2    
   214  107  109 am   BACKBONE|DICT|INTERRES
   215  109  110 1    
   216  109  230 1    
   217  110  111 1    
   218  110  112 1    
   219  110  231 1    
   220  111  232 1    
   221  111  233 1    
   222  111  234 1    
   223  112  113 2    
   224  112  114 am   BACKBONE|DICT|INTERRES
   225  114  115 1    
   226  114  235 1    
   227  115  116 1    
   228  115  117 1    
   229  115  236 1    
   230  116  237 1    
   231  116  238 1    
   232  116  239 1    
   233  117  118 2    
   234  117  119 am   BACKBONE|DICT|INTERRES
   235  119  120 1    
   236  119  240 1    
   237  120  121 1    
   238  120  124 1    
   239  120  241 1    
   240  121  122 am   BACKBONE|DICT|INTERRES
   241  121  123 2    
   242  122  242 1    
   243  122  243 1    
   244  124  125 1    
   245  124  244 1    
   246  124  245 1    
   247  125  126 1    
   248  126  246 1    
   249  126  247 1    
@<TRIPOS>SUBSTRUCTURE
     1 UNK         1 GROUP             0       ****    0 ROOT    
