@<TRIPOS>MOLECULE
3R540
247   249    1
SMALL
USER_CHARGES


@<TRIPOS>ATOM
      1 CA         -4.6577  -14.5390  -48.6296 C.3       0 UNK        -0.1800 
      2 C          -3.2288  -14.2689  -49.0755 C.2       0 UNK         0.5000 
      3 O          -2.9845  -13.2887  -49.7789 O.2       0 UNK        -0.5000 
      4 N          -2.2847  -15.1255  -48.6625 N.am      1 UNK        -0.5000 
      5 CA         -0.8549  -15.0196  -48.9877 C.3       1 UNK         0.1400 
      6 C6         -0.0948  -16.3341  -48.6863 C.3       23 UNK        -0.0398 
      7 S7         -0.5417  -17.6569  -49.8569 S.3       23 UNK        -0.2404 
      8 C8         -1.2420  -18.9418  -48.7767 C.3       23 UNK        -0.0205 
      9 C9         -2.6626  -18.6268  -48.3355 C.ar      23 UNK        -0.0193 
     10 C10        -3.7256  -18.7784  -49.2325 C.ar      23 UNK        -0.1150 
     11 C11        -5.0418  -18.5486  -48.8205 C.ar      23 UNK        -0.0193 
     12 C12        -5.2875  -18.1592  -47.5019 C.ar      23 UNK        -0.1150 
     13 C13        -4.2341  -17.9941  -46.5988 C.ar      23 UNK        -0.0193 
     14 C14        -2.9218  -18.2256  -47.0214 C.ar      23 UNK        -0.1150 
     15 C15        -4.5281  -17.5699  -45.1689 C.3       23 UNK        -0.0205 
     16 S16        -5.0928  -18.9762  -44.1579 S.3       23 UNK        -0.2404 
     17 C17        -3.5158  -19.7865  -43.7304 C.3       23 UNK        -0.0398 
     18 CA         -3.1249  -20.9564  -44.6723 C.3       11 UNK         0.1400 
     19 N          -1.6619  -21.1087  -44.7322 N.am      11 UNK        -0.5000 
     20 C          -0.9553  -22.0230  -45.4121 C.2       10 UNK         0.5000 
     21 O          -1.4633  -22.9212  -46.0810 O.2       10 UNK        -0.5000 
     22 CA          0.5782  -21.9590  -45.2968 C.3       10 UNK         0.1400 
     23 CB          1.1666  -21.0911  -46.4176 C.3       10 UNK        -0.1800 
     24 N           1.0465  -21.4756  -43.9963 N.am      10 UNK        -0.5000 
     25 C           0.8588  -22.1211  -42.8350 C.2       9 UNK         0.5000 
     26 O           0.2796  -23.2041  -42.7406 O.2       9 UNK        -0.5000 
     27 CA          1.3745  -21.4248  -41.5627 C.3       9 UNK         0.1400 
     28 CB          2.8941  -21.5994  -41.4205 C.3       9 UNK        -0.1800 
     29 N           1.0380  -20.0019  -41.5339 N.am      9 UNK        -0.5000 
     30 C          -0.2088  -19.5196  -41.4313 C.2       8 UNK         0.5000 
     31 O          -1.2051  -20.2244  -41.2700 O.2       8 UNK        -0.5000 
     32 CA         -0.3790  -17.9956  -41.5792 C.3       8 UNK         0.1400 
     33 CB         -0.1039  -17.2845  -40.2469 C.3       8 UNK        -0.1800 
     34 N           0.4667  -17.4243  -42.6301 N.am      8 UNK        -0.5000 
     35 C           0.3914  -17.7577  -43.9263 C.2       7 UNK         0.5000 
     36 O          -0.4090  -18.5704  -44.3812 O.2       7 UNK        -0.5000 
     37 CA          1.4024  -17.1074  -44.8779 C.3       7 UNK         0.1400 
     38 CB          0.9479  -15.6964  -45.2568 C.3       7 UNK        -0.1800 
     39 N           2.7536  -17.0772  -44.3226 N.am      7 UNK        -0.5000 
     40 C           3.4806  -18.1754  -44.0723 C.2       6 UNK         0.5000 
     41 O           3.1137  -19.3189  -44.3452 O.2       6 UNK        -0.5000 
     42 CA          4.8102  -17.9608  -43.3315 C.3       6 UNK         0.1400 
     43 CB          5.9092  -17.4789  -44.2904 C.3       6 UNK        -0.1800 
     44 N           4.6639  -17.0171  -42.2223 N.am      6 UNK        -0.5000 
     45 C           3.9510  -17.2710  -41.1150 C.2       5 UNK         0.5000 
     46 O           3.3759  -18.3385  -40.9048 O.2       5 UNK        -0.5000 
     47 CA          3.8324  -16.1402  -40.0778 C.3       5 UNK         0.1400 
     48 CB          4.9718  -16.2320  -39.0520 C.3       5 UNK        -0.1800 
     49 N           3.8203  -14.7998  -40.6634 N.am      5 UNK        -0.5000 
     50 C           2.8846  -14.3209  -41.4949 C.2       4 UNK         0.5000 
     51 O           1.9195  -14.9820  -41.8842 O.2       4 UNK        -0.5000 
     52 CA          3.0481  -12.8575  -41.9664 C.3       4 UNK         0.1400 
     53 CB          4.3641  -12.1925  -41.5031 C.3       4 UNK        -0.1800 
     54 N           2.9062  -12.6822  -43.4146 N.am      4 UNK        -0.5000 
     55 C           3.5294  -13.3479  -44.3946 C.2       3 UNK         0.5000 
     56 O           4.2269  -14.3470  -44.2045 O.2       3 UNK        -0.5000 
     57 CA          3.3450  -12.7886  -45.8261 C.3       3 UNK         0.1400 
     58 CB          4.1541  -13.5815  -46.8691 C.3       3 UNK        -0.1800 
     59 N           1.9530  -12.7256  -46.2810 N.am      3 UNK        -0.5000 
     60 C           0.9737  -11.9321  -45.8346 C.2       2 UNK         0.5000 
     61 O           1.1298  -11.1200  -44.9213 O.2       2 UNK        -0.5000 
     62 CA         -0.4189  -12.0469  -46.4972 C.3       2 UNK         0.1400 
     63 CB         -0.6816  -10.8329  -47.4086 C.3       2 UNK        -0.1800 
     64 N          -0.7311  -13.2973  -47.2141 N.am      2 UNK        -0.5000 
     65 C          -0.1629  -13.8080  -48.3189 C.2       1 UNK         0.5000 
     66 O           0.8682  -13.3622  -48.8215 O.2       1 UNK        -0.5000 
     67 C          -3.8963  -22.2447  -44.2978 C.2       11 UNK         0.5000 
     68 O          -5.0646  -22.3791  -44.6623 O.2       11 UNK        -0.5000 
     69 N          -3.2296  -23.1835  -43.6103 N.am      12 UNK        -0.5000 
     70 CA         -3.7502  -24.5086  -43.2714 C.3       12 UNK         0.1400 
     71 CB         -2.7476  -25.2081  -42.3413 C.3       12 UNK        -0.1800 
     72 C          -4.0581  -25.3976  -44.4965 C.2       12 UNK         0.5000 
     73 O          -4.9074  -26.2835  -44.3885 O.2       12 UNK        -0.5000 
     74 N          -3.3752  -25.1552  -45.6246 N.am      13 UNK        -0.5000 
     75 CA         -3.5494  -25.8929  -46.8798 C.3       13 UNK         0.1400 
     76 CB         -2.3591  -26.8511  -47.0554 C.3       13 UNK        -0.1800 
     77 C          -3.6823  -24.9755  -48.1104 C.2       13 UNK         0.5000 
     78 O          -4.1536  -25.4400  -49.1483 O.2       13 UNK        -0.5000 
     79 N          -3.2323  -23.7164  -47.9926 N.am      14 UNK        -0.5000 
     80 CA         -3.0567  -22.7136  -49.0506 C.3       14 UNK         0.1400 
     81 CB         -4.3992  -22.3234  -49.6962 C.3       14 UNK        -0.1800 
     82 C          -1.9783  -23.1158  -50.0811 C.2       14 UNK         0.5000 
     83 O          -1.9974  -22.6430  -51.2186 O.2       14 UNK        -0.5000 
     84 N          -1.0328  -23.9670  -49.6556 N.am      15 UNK        -0.5000 
     85 CA         -0.0034  -24.5986  -50.4861 C.3       15 UNK         0.1400 
     86 CB          0.7429  -25.6401  -49.6388 C.3       15 UNK        -0.1800 
     87 C           0.9908  -23.6171  -51.1338 C.2       15 UNK         0.5000 
     88 O           1.5507  -23.9314  -52.1837 O.2       15 UNK        -0.5000 
     89 N           1.1770  -22.4439  -50.5140 N.am      16 UNK        -0.5000 
     90 CA          1.9910  -21.3501  -51.0473 C.3       16 UNK         0.1400 
     91 CB          2.3048  -20.3583  -49.9165 C.3       16 UNK        -0.1800 
     92 C           1.3300  -20.6331  -52.2431 C.2       16 UNK         0.5000 
     93 O           2.0437  -20.0525  -53.0619 O.2       16 UNK        -0.5000 
     94 N          -0.0062  -20.6918  -52.3290 N.am      17 UNK        -0.5000 
     95 CA         -0.7942  -20.1403  -53.4301 C.3       17 UNK         0.1400 
     96 CB         -2.0750  -19.5210  -52.8618 C.3       17 UNK        -0.1800 
     97 C          -1.1264  -21.2173  -54.4778 C.2       17 UNK         0.5000 
     98 O          -1.1388  -20.9117  -55.6711 O.2       17 UNK        -0.5000 
     99 N          -1.3640  -22.4555  -54.0168 N.am      18 UNK        -0.5000 
    100 CA        -1.5859  -23.6769  -54.7959 C.3       18 UNK         0.1400 
    101 CB        -0.2734  -24.1213  -55.4781 C.3       18 UNK        -0.1800 
    102 C         -2.7752  -23.5480  -55.7691 C.2       18 UNK         0.5000 
    103 O         -3.9229  -23.6388  -55.3358 O.2       18 UNK        -0.5000 
    104 N         -2.4933  -23.3253  -57.0593 N.am      19 UNK        -0.5000 
    105 CA        -3.4927  -23.1116  -58.1083 C.3       19 UNK         0.1400 
    106 CB        -2.8003  -23.1949  -59.4771 C.3       19 UNK        -0.1800 
    107 C         -4.2544  -21.7770  -57.9706 C.2       19 UNK         0.5000 
    108 O         -5.3701  -21.6657  -58.4794 O.2       19 UNK        -0.5000 
    109 N         -3.6508  -20.7978  -57.2845 N.am      20 UNK        -0.5000 
    110 CA        -4.1981  -19.4612  -57.0508 C.3       20 UNK         0.1400 
    111 CB        -3.1012  -18.4280  -57.3657 C.3       20 UNK        -0.1800 
    112 C         -4.7358  -19.3032  -55.6136 C.2       20 UNK         0.5000 
    113 O         -4.7744  -18.1822  -55.1035 O.2       20 UNK        -0.5000 
    114 N         -5.1105  -20.4168  -54.9655 N.am      21 UNK        -0.5000 
    115 CA        -5.5672  -20.5073  -53.5750 C.3       21 UNK         0.1400 
    116 CB        -5.5167  -21.9765  -53.1242 C.3       21 UNK        -0.1800 
    117 C         -6.9374  -19.8526  -53.3016 C.2       21 UNK         0.5000 
    118 O         -7.8988  -20.5404  -52.9546 O.2       21 UNK        -0.5000 
    119 N         -6.9780  -18.5218  -53.4191 N.am      22 UNK        -0.5000 
    120 CA        -8.0594  -17.6267  -52.9730 C.3       22 UNK         0.1400 
    121 C         -9.4103  -17.7748  -53.7402 C.2       22 UNK         0.5000 
    122 N         -9.4436  -18.4110  -54.9046 N.am      22 UNK        -0.7600 
    123 O        -10.4410  -17.2759  -53.2958 O.2       22 UNK        -0.5000 
    124 C124       -8.2374  -17.6425  -51.4266 C.3       23 UNK        -0.0398 
    125 S125       -6.7167  -17.1615  -50.5294 S.3       23 UNK        -0.2404 
    126 C126       -6.2051  -18.7402  -49.7822 C.3       23 UNK        -0.0205 
    127 H127       -5.0306  -13.7043  -48.0366 H         1 UNK         0.0600 
    128 H128       -4.7301  -15.4424  -48.0264 H         1 UNK         0.0600 
    129 H129       -5.3047  -14.6568  -49.4981 H         1 UNK         0.0600 
    130 H130       -2.5583  -15.9428  -48.1353 H         1 UNK         0.3000 
    131 H131       -0.7833  -14.8376  -50.0625 H         1 UNK         0.0600 
    132 H132       -0.2794  -16.6661  -47.6655 H         1 UNK         0.0800 
    133 H133        0.9843  -16.1911  -48.7717 H         1 UNK         0.0800 
    134 H134       -0.5911  -19.0919  -47.9152 H         1 UNK         0.0800 
    135 H135       -1.2429  -19.8847  -49.3245 H         1 UNK         0.0800 
    136 H136       -3.5274  -19.0853  -50.2492 H         1 UNK         0.1150 
    137 H137       -6.3036  -17.9849  -47.1763 H         1 UNK         0.1150 
    138 H138       -2.1065  -18.1157  -46.3205 H         1 UNK         0.1150 
    139 H139       -3.6555  -17.0991  -44.7134 H         1 UNK         0.0800 
    140 H140       -5.3102  -16.8092  -45.1754 H         1 UNK         0.0800 
    141 H141       -3.5654  -20.1204  -42.6924 H         1 UNK         0.0800 
    142 H142       -2.7508  -19.0142  -43.7361 H         1 UNK         0.0800 
    143 H143       -3.4301  -20.7019  -45.6887 H         1 UNK         0.0600 
    144 H144       -1.1319  -20.3688  -44.2812 H         1 UNK         0.3000 
    145 H145        0.9537  -22.9759  -45.4274 H         1 UNK         0.0600 
    146 H146        2.2554  -21.1437  -46.4250 H         1 UNK         0.0600 
    147 H147        0.8862  -20.0448  -46.3034 H         1 UNK         0.0600 
    148 H148        0.8176  -21.4239  -47.3954 H         1 UNK         0.0600 
    149 H149        1.5677  -20.6045  -43.9966 H         1 UNK         0.3000 
    150 H150        0.8972  -21.9023  -40.7044 H         1 UNK         0.0600 
    151 H151        3.1698  -22.6545  -41.4344 H         1 UNK         0.0600 
    152 H152        3.2508  -21.1822  -40.4786 H         1 UNK         0.0600 
    153 H153        3.4350  -21.1064  -42.2288 H         1 UNK         0.0600 
    154 H154        1.8132  -19.3496  -41.6014 H         1 UNK         0.3000 
    155 H155       -1.4174  -17.8032  -41.8562 H         1 UNK         0.0600 
    156 H156       -0.7900  -17.6309  -39.4731 H         1 UNK         0.0600 
    157 H157       -0.2327  -16.2058  -40.3384 H         1 UNK         0.0600 
    158 H158        0.9086  -17.4745  -39.8931 H         1 UNK         0.0600 
    159 H159        1.1240  -16.7016  -42.3500 H         1 UNK         0.3000 
    160 H160        1.4261  -17.7066  -45.7903 H         1 UNK         0.0600 
    161 H161        1.0556  -14.9965  -44.4287 H         1 UNK         0.0600 
    162 H162       -0.1014  -15.6829  -45.5521 H         1 UNK         0.0600 
    163 H163        1.5315  -15.3310  -46.0989 H         1 UNK         0.0600 
    164 H164        3.1301  -16.1734  -44.0590 H         1 UNK         0.3000 
    165 H165        5.1206  -18.9235  -42.9193 H         1 UNK         0.0600 
    166 H166        6.8643  -17.3765  -43.7752 H         1 UNK         0.0600 
    167 H167        6.0535  -18.1908  -45.1040 H         1 UNK         0.0600 
    168 H168        5.6654  -16.5157  -44.7390 H         1 UNK         0.0600 
    169 H169        5.0610  -16.0966  -42.3477 H         1 UNK         0.3000 
    170 H170        2.8890  -16.2757  -39.5466 H         1 UNK         0.0600 
    171 H171        5.9457  -16.0714  -39.5161 H         1 UNK         0.0600 
    172 H172        4.8505  -15.4934  -38.2595 H         1 UNK         0.0600 
    173 H173        4.9919  -17.2144  -38.5780 H         1 UNK         0.0600 
    174 H174        4.5818  -14.1904  -40.4029 H         1 UNK         0.3000 
    175 H175        2.2229  -12.3069  -41.5130 H         1 UNK         0.0600 
    176 H176        5.2410  -12.7015  -41.9058 H         1 UNK         0.0600 
    177 H177        4.4099  -11.1539  -41.8314 H         1 UNK         0.0600 
    178 H178        4.4472  -12.1807  -40.4156 H         1 UNK         0.0600 
    179 H179        2.2828  -11.9342  -43.7086 H         1 UNK         0.3000 
    180 H180        3.7348  -11.7690  -45.8144 H         1 UNK         0.0600 
    181 H181        4.0728  -13.1302  -47.8582 H         1 UNK         0.0600 
    182 H182        3.8122  -14.6146  -46.9433 H         1 UNK         0.0600 
    183 H183        5.2136  -13.6036  -46.6108 H         1 UNK         0.0600 
    184 H184        1.7299  -13.2805  -47.0998 H         1 UNK         0.3000 
    185 H185       -1.1383  -11.9987  -45.6783 H         1 UNK         0.0600 
    186 H186       -1.6950  -10.8536  -47.8101 H         1 UNK         0.0600 
    187 H187       -0.5697   -9.8976  -46.8585 H         1 UNK         0.0600 
    188 H188        0.0113  -10.8006  -48.2499 H         1 UNK         0.0600 
    189 H189       -1.5585  -13.7714  -46.8810 H         1 UNK         0.3000 
    190 H190       -2.2682  -22.9988  -43.3566 H         1 UNK         0.3000 
    191 H191       -4.6852  -24.3691  -42.7251 H         1 UNK         0.0600 
    192 H192       -2.5807  -24.6290  -41.4329 H         1 UNK         0.0600 
    193 H193       -1.7821  -25.3519  -42.8285 H         1 UNK         0.0600 
    194 H194       -3.1130  -26.1901  -42.0381 H         1 UNK         0.0600 
    195 H195       -2.6836  -24.4135  -45.6190 H         1 UNK         0.3000 
    196 H196       -4.4651  -26.4867  -46.8458 H         1 UNK         0.0600 
    197 H197       -2.3168  -27.5767  -46.2430 H         1 UNK         0.0600 
    198 H198       -1.4104  -26.3135  -47.0728 H         1 UNK         0.0600 
    199 H199       -2.4379  -27.4125  -47.9874 H         1 UNK         0.0600 
    200 H200       -2.7950  -23.4510  -47.1144 H         1 UNK         0.3000 
    201 H201       -2.6706  -21.8241  -48.5516 H         1 UNK         0.0600 
    202 H202       -5.1197  -22.0035  -48.9435 H         1 UNK         0.0600 
    203 H203       -4.8368  -23.1510  -50.2538 H         1 UNK         0.0600 
    204 H204       -4.2692  -21.4942  -50.3916 H         1 UNK         0.0600 
    205 H205       -1.0811  -24.2748  -48.6957 H         1 UNK         0.3000 
    206 H206       -0.5132  -25.1208  -51.2985 H         1 UNK         0.0600 
    207 H207        1.2360  -25.1819  -48.7805 H         1 UNK         0.0600 
    208 H208        0.0629  -26.4068  -49.2669 H         1 UNK         0.0600 
    209 H209        1.5096  -26.1471  -50.2263 H         1 UNK         0.0600 
    210 H210        0.6903  -22.2777  -49.6470 H         1 UNK         0.3000 
    211 H211        2.9370  -21.7661  -51.4007 H         1 UNK         0.0600 
    212 H212        1.3976  -19.9449  -49.4787 H         1 UNK         0.0600 
    213 H213        2.9017  -19.5220  -50.2829 H         1 UNK         0.0600 
    214 H214        2.8737  -20.8371  -49.1195 H         1 UNK         0.0600 
    215 H215       -0.5160  -21.2385  -51.6471 H         1 UNK         0.3000 
    216 H216       -0.2358  -19.3475  -53.9322 H         1 UNK         0.0600 
    217 H217       -2.6804  -19.0928  -53.6576 H         1 UNK         0.0600 
    218 H218       -1.8493  -18.7114  -52.1711 H         1 UNK         0.0600 
    219 H219       -2.6768  -20.2581  -52.3311 H         1 UNK         0.0600 
    220 H220       -1.4437  -22.5715  -53.0102 H         1 UNK         0.3000 
    221 H221       -1.8609  -24.4517  -54.0787 H         1 UNK         0.0600 
    222 H222        0.1246  -23.3614  -56.1513 H         1 UNK         0.0600 
    223 H223        0.4955  -24.3320  -54.7349 H         1 UNK         0.0600 
    224 H224       -0.4195  -25.0354  -56.0550 H         1 UNK         0.0600 
    225 H225       -1.5247  -23.2314  -57.3289 H         1 UNK         0.3000 
    226 H226       -4.2279  -23.9168  -58.0471 H         1 UNK         0.0600 
    227 H227       -2.3192  -24.1630  -59.6181 H         1 UNK         0.0600 
    228 H228       -3.5196  -23.0700  -60.2876 H         1 UNK         0.0600 
    229 H229       -2.0400  -22.4211  -59.5908 H         1 UNK         0.0600 
    230 H230       -2.7437  -20.9821  -56.8646 H         1 UNK         0.3000 
    231 H231       -5.0365  -19.2718  -57.7237 H         1 UNK         0.0600 
    232 H232       -3.4834  -17.4093  -57.2894 H         1 UNK         0.0600 
    233 H233       -2.7216  -18.5534  -58.3798 H         1 UNK         0.0600 
    234 H234       -2.2580  -18.5161  -56.6793 H         1 UNK         0.0600 
    235 H235       -5.0395  -21.2947  -55.4610 H         1 UNK         0.3000 
    236 H236       -4.8602  -19.9600  -52.9522 H         1 UNK         0.0600 
    237 H237       -6.0737  -22.6250  -53.8011 H         1 UNK         0.0600 
    238 H238       -4.4885  -22.3359  -53.0763 H         1 UNK         0.0600 
    239 H239       -5.9445  -22.1019  -52.1297 H         1 UNK         0.0600 
    240 H240       -6.1552  -18.0668  -53.8055 H         1 UNK         0.3000 
    241 H241       -7.7195  -16.6253  -53.2389 H         1 UNK         0.0600 
    242 H242      -10.3164  -18.4947  -55.4020 H         1 UNK         0.3800 
    243 H243       -8.6074  -18.8280  -55.2805 H         1 UNK         0.3800 
    244 H244       -8.5807  -18.6210  -51.0884 H         1 UNK         0.0800 
    245 H245       -9.0126  -16.9357  -51.1267 H         1 UNK         0.0800 
    246 H246       -5.9321  -19.4461  -50.5663 H         1 UNK         0.0800 
    247 H247       -7.0482  -19.1822  -49.2491 H         1 UNK         0.0800 
@<TRIPOS>BOND
     1    1    2 1    
     2    1  127 1    
     3    1  128 1    
     4    1  129 1    
     5    2    3 2    
     6    2    4 am   BACKBONE|DICT|INTERRES
     7    4    5 1    
     8    4  130 1    
     9    5    6 1    
    10    5   65 1    
    11    5  131 1    
    12    6    7 1    
    13    6  132 1    
    14    6  133 1    
    15    7    8 1    
    16    8    9 1    
    17    8  134 1    
    18    8  135 1    
    19    9   10 ar   
    20    9   14 ar   
    21   10   11 ar   
    22   10  136 1    
    23   11   12 ar   
    24   11  126 1    
    25   12   13 ar   
    26   12  137 1    
    27   13   14 ar   
    28   13   15 1    
    29   14  138 1    
    30   15   16 1    
    31   15  139 1    
    32   15  140 1    
    33   16   17 1    
    34   17   18 1    
    35   17  141 1    
    36   17  142 1    
    37   18   19 1    
    38   18   67 1    
    39   18  143 1    
    40   19   20 am   BACKBONE|DICT|INTERRES
    41   19  144 1    
    42   20   21 2    
    43   20   22 1    
    44   22   23 1    
    45   22   24 1    
    46   22  145 1    
    47   23  146 1    
    48   23  147 1    
    49   23  148 1    
    50   24   25 am   BACKBONE|DICT|INTERRES
    51   24  149 1    
    52   25   26 2    
    53   25   27 1    
    54   27   28 1    
    55   27   29 1    
    56   27  150 1    
    57   28  151 1    
    58   28  152 1    
    59   28  153 1    
    60   29   30 am   BACKBONE|DICT|INTERRES
    61   29  154 1    
    62   30   31 2    
    63   30   32 1    
    64   32   33 1    
    65   32   34 1    
    66   32  155 1    
    67   33  156 1    
    68   33  157 1    
    69   33  158 1    
    70   34   35 am   BACKBONE|DICT|INTERRES
    71   34  159 1    
    72   35   36 2    
    73   35   37 1    
    74   37   38 1    
    75   37   39 1    
    76   37  160 1    
    77   38  161 1    
    78   38  162 1    
    79   38  163 1    
    80   39   40 am   BACKBONE|DICT|INTERRES
    81   39  164 1    
    82   40   41 2    
    83   40   42 1    
    84   42   43 1    
    85   42   44 1    
    86   42  165 1    
    87   43  166 1    
    88   43  167 1    
    89   43  168 1    
    90   44   45 am   BACKBONE|DICT|INTERRES
    91   44  169 1    
    92   45   46 2    
    93   45   47 1    
    94   47   48 1    
    95   47   49 1    
    96   47  170 1    
    97   48  171 1    
    98   48  172 1    
    99   48  173 1    
   100   49   50 am   BACKBONE|DICT|INTERRES
   101   49  174 1    
   102   50   51 2    
   103   50   52 1    
   104   52   53 1    
   105   52   54 1    
   106   52  175 1    
   107   53  176 1    
   108   53  177 1    
   109   53  178 1    
   110   54   55 am   BACKBONE|DICT|INTERRES
   111   54  179 1    
   112   55   56 2    
   113   55   57 1    
   114   57   58 1    
   115   57   59 1    
   116   57  180 1    
   117   58  181 1    
   118   58  182 1    
   119   58  183 1    
   120   59   60 am   BACKBONE|DICT|INTERRES
   121   59  184 1    
   122   60   61 2    
   123   60   62 1    
   124   62   63 1    
   125   62   64 1    
   126   62  185 1    
   127   63  186 1    
   128   63  187 1    
   129   63  188 1    
   130   64   65 am   BACKBONE|DICT|INTERRES
   131   64  189 1    
   132   65   66 2    
   133   67   68 2    
   134   67   69 am   BACKBONE|DICT|INTERRES
   135   69   70 1    
   136   69  190 1    
   137   70   71 1    
   138   70   72 1    
   139   70  191 1    
   140   71  192 1    
   141   71  193 1    
   142   71  194 1    
   143   72   73 2    
   144   72   74 am   BACKBONE|DICT|INTERRES
   145   74   75 1    
   146   74  195 1    
   147   75   76 1    
   148   75   77 1    
   149   75  196 1    
   150   76  197 1    
   151   76  198 1    
   152   76  199 1    
   153   77   78 2    
   154   77   79 am   BACKBONE|DICT|INTERRES
   155   79   80 1    
   156   79  200 1    
   157   80   81 1    
   158   80   82 1    
   159   80  201 1    
   160   81  202 1    
   161   81  203 1    
   162   81  204 1    
   163   82   83 2    
   164   82   84 am   BACKBONE|DICT|INTERRES
   165   84   85 1    
   166   84  205 1    
   167   85   86 1    
   168   85   87 1    
   169   85  206 1    
   170   86  207 1    
   171   86  208 1    
   172   86  209 1    
   173   87   88 2    
   174   87   89 am   BACKBONE|DICT|INTERRES
   175   89   90 1    
   176   89  210 1    
   177   90   91 1    
   178   90   92 1    
   179   90  211 1    
   180   91  212 1    
   181   91  213 1    
   182   91  214 1    
   183   92   93 2    
   184   92   94 am   BACKBONE|DICT|INTERRES
   185   94   95 1    
   186   94  215 1    
   187   95   96 1    
   188   95   97 1    
   189   95  216 1    
   190   96  217 1    
   191   96  218 1    
   192   96  219 1    
   193   97   98 2    
   194   97   99 am   BACKBONE|DICT|INTERRES
   195   99  100 1    
   196   99  220 1    
   197  100  101 1    
   198  100  102 1    
   199  100  221 1    
   200  101  222 1    
   201  101  223 1    
   202  101  224 1    
   203  102  103 2    
   204  102  104 am   BACKBONE|DICT|INTERRES
   205  104  105 1    
   206  104  225 1    
   207  105  106 1    
   208  105  107 1    
   209  105  226 1    
   210  106  227 1    
   211  106  228 1    
   212  106  229 1    
   213  107  108 2    
   214  107  109 am   BACKBONE|DICT|INTERRES
   215  109  110 1    
   216  109  230 1    
   217  110  111 1    
   218  110  112 1    
   219  110  231 1    
   220  111  232 1    
   221  111  233 1    
   222  111  234 1    
   223  112  113 2    
   224  112  114 am   BACKBONE|DICT|INTERRES
   225  114  115 1    
   226  114  235 1    
   227  115  116 1    
   228  115  117 1    
   229  115  236 1    
   230  116  237 1    
   231  116  238 1    
   232  116  239 1    
   233  117  118 2    
   234  117  119 am   BACKBONE|DICT|INTERRES
   235  119  120 1    
   236  119  240 1    
   237  120  121 1    
   238  120  124 1    
   239  120  241 1    
   240  121  122 am   BACKBONE|DICT|INTERRES
   241  121  123 2    
   242  122  242 1    
   243  122  243 1    
   244  124  125 1    
   245  124  244 1    
   246  124  245 1    
   247  125  126 1    
   248  126  246 1    
   249  126  247 1    
@<TRIPOS>SUBSTRUCTURE
     1 UNK         1 GROUP             0       ****    0 ROOT    
