@<TRIPOS>MOLECULE
3R540
247   249    1
SMALL
USER_CHARGES


@<TRIPOS>ATOM
      1 CA         -1.6379  -16.4608  -50.2853 C.3       0 UNK        -0.1800 
      2 C          -1.9934  -16.2528  -48.8220 C.2       0 UNK         0.5000 
      3 O          -1.1061  -16.1848  -47.9735 O.2       0 UNK        -0.5000 
      4 N          -3.2904  -16.1148  -48.5243 N.am      1 UNK        -0.5000 
      5 CA         -3.8504  -15.9960  -47.1691 C.3       1 UNK         0.1400 
      6 C6         -5.3963  -16.0706  -47.1878 C.3       23 UNK        -0.0398 
      7 S7         -5.9786  -17.6657  -47.8545 S.3       23 UNK        -0.2404 
      8 C8         -6.3966  -18.5568  -46.3176 C.3       23 UNK        -0.0205 
      9 C9         -6.2624  -20.0719  -46.4374 C.ar      23 UNK        -0.0193 
     10 C10        -6.7122  -20.7574  -47.5700 C.ar      23 UNK        -0.1150 
     11 C11        -6.5705  -22.1443  -47.6706 C.ar      23 UNK        -0.0193 
     12 C12        -5.9921  -22.8550  -46.6139 C.ar      23 UNK        -0.1150 
     13 C13        -5.5699  -22.1900  -45.4575 C.ar      23 UNK        -0.0193 
     14 C14        -5.7076  -20.7994  -45.3810 C.ar      23 UNK        -0.1150 
     15 C15        -5.0366  -22.9847  -44.2687 C.3       23 UNK        -0.0205 
     16 S16        -3.5410  -22.2640  -43.5110 S.3       23 UNK        -0.2404 
     17 C17        -2.2265  -22.8299  -44.6382 C.3       23 UNK        -0.0398 
     18 CA         -1.8328  -21.7761  -45.6995 C.3       11 UNK         0.1400 
     19 N          -1.2400  -20.5596  -45.1290 N.am      11 UNK        -0.5000 
     20 C          -0.9605  -19.4552  -45.8387 C.2       10 UNK         0.5000 
     21 O          -1.2206  -19.3368  -47.0337 O.2       10 UNK        -0.5000 
     22 CA         -0.2024  -18.3217  -45.1232 C.3       10 UNK         0.1400 
     23 CB         -1.1383  -17.4906  -44.2350 C.3       10 UNK        -0.1800 
     24 N           0.9198  -18.8201  -44.3294 N.am      10 UNK        -0.5000 
     25 C           1.9924  -19.4404  -44.8407 C.2       9 UNK         0.5000 
     26 O           2.1757  -19.6089  -46.0453 O.2       9 UNK        -0.5000 
     27 CA          3.0101  -20.0113  -43.8386 C.3       9 UNK         0.1400 
     28 CB          4.0036  -18.9344  -43.3826 C.3       9 UNK        -0.1800 
     29 N           2.3604  -20.6045  -42.6713 N.am      9 UNK        -0.5000 
     30 C           1.6367  -21.7321  -42.7017 C.2       8 UNK         0.5000 
     31 O           1.4642  -22.4111  -43.7140 O.2       8 UNK        -0.5000 
     32 CA          0.9512  -22.1391  -41.3847 C.3       8 UNK         0.1400 
     33 CB          1.9373  -22.8674  -40.4594 C.3       8 UNK        -0.1800 
     34 N           0.3669  -20.9985  -40.6753 N.am      8 UNK        -0.5000 
     35 C          -0.6294  -20.2445  -41.1606 C.2       7 UNK         0.5000 
     36 O          -1.1489  -20.4276  -42.2587 O.2       7 UNK        -0.5000 
     37 CA         -1.0862  -19.0550  -40.2998 C.3       7 UNK         0.1400 
     38 CB         -2.0564  -19.5196  -39.2034 C.3       7 UNK        -0.1800 
     39 N           0.0213  -18.3131  -39.6928 N.am      7 UNK        -0.5000 
     40 C           0.9868  -17.6888  -40.3794 C.2       6 UNK         0.5000 
     41 O           1.1055  -17.7402  -41.6058 O.2       6 UNK        -0.5000 
     42 CA          2.0075  -16.8882  -39.5570 C.3       6 UNK         0.1400 
     43 CB          3.3670  -17.6034  -39.5289 C.3       6 UNK        -0.1800 
     44 N           2.1733  -15.5539  -40.1270 N.am      6 UNK        -0.5000 
     45 C           1.3039  -14.5467  -39.9649 C.2       5 UNK         0.5000 
     46 O           0.3093  -14.6122  -39.2411 O.2       5 UNK        -0.5000 
     47 CA          1.5946  -13.2458  -40.7367 C.3       5 UNK         0.1400 
     48 CB          2.4401  -12.2901  -39.8805 C.3       5 UNK        -0.1800 
     49 N           2.2832  -13.4894  -42.0061 N.am      5 UNK        -0.5000 
     50 C           1.6747  -13.9114  -43.1211 C.2       4 UNK         0.5000 
     51 O           0.4589  -14.0969  -43.2184 O.2       4 UNK        -0.5000 
     52 CA          2.5851  -14.1815  -44.3249 C.3       4 UNK         0.1400 
     53 CB          3.1692  -15.6012  -44.2609 C.3       4 UNK        -0.1800 
     54 N           1.8087  -14.0323  -45.5489 N.am      4 UNK        -0.5000 
     55 C           2.2763  -13.5654  -46.7112 C.2       3 UNK         0.5000 
     56 O           3.4512  -13.2413  -46.8913 O.2       3 UNK        -0.5000 
     57 CA          1.2753  -13.4352  -47.8756 C.3       3 UNK         0.1400 
     58 CB          1.5081  -14.5537  -48.9035 C.3       3 UNK        -0.1800 
     59 N          -0.1295  -13.4451  -47.4488 N.am      3 UNK        -0.5000 
     60 C          -0.7490  -12.3966  -46.8813 C.2       2 UNK         0.5000 
     61 O          -0.1738  -11.3351  -46.6362 O.2       2 UNK        -0.5000 
     62 CA         -2.2488  -12.5281  -46.5402 C.3       2 UNK         0.1400 
     63 CB         -3.0487  -11.3200  -47.0595 C.3       2 UNK        -0.1800 
     64 N          -2.8377  -13.7457  -47.0982 N.am      2 UNK        -0.5000 
     65 C          -3.3735  -14.7475  -46.3891 C.2       1 UNK         0.5000 
     66 O          -3.4953  -14.7264  -45.1641 O.2       1 UNK        -0.5000 
     67 C          -0.9154  -22.4210  -46.7576 C.2       11 UNK         0.5000 
     68 O          -1.4098  -22.8321  -47.8064 O.2       11 UNK        -0.5000 
     69 N           0.3976  -22.4837  -46.4866 N.am      12 UNK        -0.5000 
     70 CA          1.4013  -22.9975  -47.4213 C.3       12 UNK         0.1400 
     71 CB          2.7662  -23.1041  -46.7269 C.3       12 UNK        -0.1800 
     72 C           1.4995  -22.1552  -48.7053 C.2       12 UNK         0.5000 
     73 O           1.5496  -22.7214  -49.7965 O.2       12 UNK        -0.5000 
     74 N           1.4745  -20.8238  -48.5641 N.am      13 UNK        -0.5000 
     75 CA          1.4098  -19.8870  -49.6833 C.3       13 UNK         0.1400 
     76 CB          1.5818  -18.4492  -49.1704 C.3       13 UNK        -0.1800 
     77 C           0.1070  -20.0408  -50.4900 C.2       13 UNK         0.5000 
     78 O           0.1528  -20.1420  -51.7164 O.2       13 UNK        -0.5000 
     79 N          -1.0279  -20.0759  -49.7817 N.am      14 UNK        -0.5000 
     80 CA         -2.3625  -20.1827  -50.3583 C.3       14 UNK         0.1400 
     81 CB         -3.4147  -19.9901  -49.2542 C.3       14 UNK        -0.1800 
     82 C          -2.5984  -21.4987  -51.1172 C.2       14 UNK         0.5000 
     83 O          -3.0266  -21.4536  -52.2693 O.2       14 UNK        -0.5000 
     84 N          -2.3317  -22.6345  -50.4597 N.am      15 UNK        -0.5000 
     85 CA         -2.6904  -23.9610  -50.9526 C.3       15 UNK         0.1400 
     86 CB         -3.1497  -24.8398  -49.7756 C.3       15 UNK        -0.1800 
     87 C          -1.5412  -24.6316  -51.7165 C.2       15 UNK         0.5000 
     88 O          -1.7285  -25.0109  -52.8726 O.2       15 UNK        -0.5000 
     89 N          -0.3880  -24.8056  -51.0548 N.am      16 UNK        -0.5000 
     90 CA          0.7235  -25.6153  -51.5629 C.3       16 UNK         0.1400 
     91 CB          1.6468  -26.0395  -50.4091 C.3       16 UNK        -0.1800 
     92 C           1.5048  -24.9157  -52.6865 C.2       16 UNK         0.5000 
     93 O           1.7712  -25.5379  -53.7157 O.2       16 UNK        -0.5000 
     94 N           1.8290  -23.6309  -52.4886 N.am      17 UNK        -0.5000 
     95 CA          2.4543  -22.7828  -53.5088 C.3       17 UNK         0.1400 
     96 CB          3.2071  -21.6288  -52.8326 C.3       17 UNK        -0.1800 
     97 C           1.4358  -22.2484  -54.5368 C.2       17 UNK         0.5000 
     98 O           1.8460  -21.7972  -55.6068 O.2       17 UNK        -0.5000 
     99 N           0.1389  -22.3290  -54.2010 N.am      18 UNK        -0.5000 
    100 CA        -1.0236  -21.9760  -55.0196 C.3       18 UNK         0.1400 
    101 CB        -1.1403  -22.9261  -56.2301 C.3       18 UNK        -0.1800 
    102 C         -1.0615  -20.4849  -55.4143 C.2       18 UNK         0.5000 
    103 O         -1.3931  -20.1591  -56.5571 O.2       18 UNK        -0.5000 
    104 N         -0.7175  -19.5950  -54.4719 N.am      19 UNK        -0.5000 
    105 CA        -0.6465  -18.1441  -54.6650 C.3       19 UNK         0.1400 
    106 CB         0.2649  -17.5359  -53.5842 C.3       19 UNK        -0.1800 
    107 C         -2.0377  -17.4724  -54.7181 C.2       19 UNK         0.5000 
    108 O         -2.3548  -16.6376  -53.8693 O.2       19 UNK        -0.5000 
    109 N         -2.8287  -17.8440  -55.7350 N.am      20 UNK        -0.5000 
    110 CA        -4.1361  -17.2931  -56.1110 C.3       20 UNK         0.1400 
    111 CB        -3.9710  -15.8598  -56.6587 C.3       20 UNK        -0.1800 
    112 C         -5.1917  -17.3911  -54.9891 C.2       20 UNK         0.5000 
    113 O         -5.8811  -16.4122  -54.6939 O.2       20 UNK        -0.5000 
    114 N         -5.2983  -18.5773  -54.3829 N.am      21 UNK        -0.5000 
    115 CA        -6.2235  -18.8875  -53.2984 C.3       21 UNK         0.1400 
    116 CB        -5.5794  -18.4975  -51.9558 C.3       21 UNK        -0.1800 
    117 C         -6.5935  -20.3787  -53.3408 C.2       21 UNK         0.5000 
    118 O         -6.0006  -21.1421  -54.1079 O.2       21 UNK        -0.5000 
    119 N         -7.5759  -20.7524  -52.5115 N.am      22 UNK        -0.5000 
    120 CA        -8.0708  -22.1265  -52.2914 C.3       22 UNK         0.1400 
    121 C         -8.8737  -22.7391  -53.4801 C.2       22 UNK         0.5000 
    122 N         -9.2959  -21.9590  -54.4676 N.am      22 UNK        -0.7600 
    123 O         -9.1514  -23.9355  -53.4955 O.2       22 UNK        -0.5000 
    124 C124       -6.9905  -23.1069  -51.7446 C.3       23 UNK        -0.0398 
    125 S125       -6.0296  -22.4309  -50.3503 S.3       23 UNK        -0.2404 
    126 C126       -7.0607  -22.8617  -48.9196 C.3       23 UNK        -0.0205 
    127 H127       -1.2427  -15.5406  -50.7144 H         1 UNK         0.0600 
    128 H128       -2.5028  -16.7701  -50.8729 H         1 UNK         0.0600 
    129 H129       -0.8763  -17.2321  -50.3744 H         1 UNK         0.0600 
    130 H130       -3.9743  -16.1753  -49.2650 H         1 UNK         0.3000 
    131 H131       -3.4858  -16.8590  -46.6083 H         1 UNK         0.0600 
    132 H132       -5.8119  -15.9277  -46.1884 H         1 UNK         0.0800 
    133 H133       -5.8095  -15.2685  -47.8017 H         1 UNK         0.0800 
    134 H134       -7.4183  -18.3098  -46.0269 H         1 UNK         0.0800 
    135 H135       -5.7481  -18.1995  -45.5161 H         1 UNK         0.0800 
    136 H136       -7.1615  -20.2114  -48.3874 H         1 UNK         0.1150 
    137 H137       -5.8945  -23.9293  -46.6824 H         1 UNK         0.1150 
    138 H138       -5.3896  -20.2822  -44.4867 H         1 UNK         0.1150 
    139 H139       -5.8195  -23.0167  -43.5102 H         1 UNK         0.0800 
    140 H140       -4.8415  -24.0219  -44.5448 H         1 UNK         0.0800 
    141 H141       -2.5562  -23.7552  -45.1145 H         1 UNK         0.0800 
    142 H142       -1.3582  -23.0964  -44.0329 H         1 UNK         0.0800 
    143 H143       -2.7449  -21.4728  -46.2178 H         1 UNK         0.0600 
    144 H144       -1.0546  -20.5673  -44.1284 H         1 UNK         0.3000 
    145 H145        0.2046  -17.6594  -45.8906 H         1 UNK         0.0600 
    146 H146       -0.6041  -16.6662  -43.7621 H         1 UNK         0.0600 
    147 H147       -1.9463  -17.0583  -44.8231 H         1 UNK         0.0600 
    148 H148       -1.5924  -18.0910  -43.4479 H         1 UNK         0.0600 
    149 H149        0.8690  -18.6750  -43.3256 H         1 UNK         0.3000 
    150 H150        3.5746  -20.7950  -44.3478 H         1 UNK         0.0600 
    151 H151        4.5086  -18.4821  -44.2371 H         1 UNK         0.0600 
    152 H152        4.7725  -19.3550  -42.7344 H         1 UNK         0.0600 
    153 H153        3.5039  -18.1362  -42.8357 H         1 UNK         0.0600 
    154 H154        2.4022  -20.0795  -41.8109 H         1 UNK         0.3000 
    155 H155        0.1422  -22.8296  -41.6332 H         1 UNK         0.0600 
    156 H156        2.7552  -22.2167  -40.1473 H         1 UNK         0.0600 
    157 H157        2.3772  -23.7305  -40.9608 H         1 UNK         0.0600 
    158 H158        1.4384  -23.2339  -39.5621 H         1 UNK         0.0600 
    159 H159        0.7484  -20.7741  -39.7683 H         1 UNK         0.3000 
    160 H160       -1.6225  -18.3648  -40.9543 H         1 UNK         0.0600 
    161 H161       -2.4661  -18.6719  -38.6540 H         1 UNK         0.0600 
    162 H162       -1.5695  -20.1818  -38.4864 H         1 UNK         0.0600 
    163 H163       -2.8986  -20.0637  -39.6335 H         1 UNK         0.0600 
    164 H164        0.0016  -18.2239  -38.6872 H         1 UNK         0.3000 
    165 H165        1.6501  -16.7936  -38.5293 H         1 UNK         0.0600 
    166 H166        4.0794  -17.0664  -38.9024 H         1 UNK         0.0600 
    167 H167        3.2712  -18.6104  -39.1208 H         1 UNK         0.0600 
    168 H168        3.8007  -17.6919  -40.5247 H         1 UNK         0.0600 
    169 H169        2.9368  -15.4313  -40.7739 H         1 UNK         0.3000 
    170 H170        0.6380  -12.7596  -40.9410 H         1 UNK         0.0600 
    171 H171        1.9424  -12.0699  -38.9351 H         1 UNK         0.0600 
    172 H172        3.4170  -12.7146  -39.6458 H         1 UNK         0.0600 
    173 H173        2.5997  -11.3402  -40.3910 H         1 UNK         0.0600 
    174 H174        3.2828  -13.3451  -42.0125 H         1 UNK         0.3000 
    175 H175        3.3973  -13.4514  -44.3105 H         1 UNK         0.0600 
    176 H176        3.7781  -15.7341  -43.3664 H         1 UNK         0.0600 
    177 H177        3.8050  -15.8094  -45.1215 H         1 UNK         0.0600 
    178 H178        2.3795  -16.3528  -44.2385 H         1 UNK         0.0600 
    179 H179        0.8206  -14.2265  -45.4518 H         1 UNK         0.3000 
    180 H180        1.4754  -12.4828  -48.3711 H         1 UNK         0.0600 
    181 H181        1.3928  -15.5406  -48.4550 H         1 UNK         0.0600 
    182 H182        2.5168  -14.5013  -49.3148 H         1 UNK         0.0600 
    183 H183        0.8133  -14.4771  -49.7395 H         1 UNK         0.0600 
    184 H184       -0.6284  -14.3212  -47.5742 H         1 UNK         0.3000 
    185 H185       -2.3146  -12.5348  -45.4505 H         1 UNK         0.0600 
    186 H186       -2.6832  -10.3878  -46.6271 H         1 UNK         0.0600 
    187 H187       -2.9807  -11.2295  -48.1442 H         1 UNK         0.0600 
    188 H188       -4.1030  -11.4045  -46.7957 H         1 UNK         0.0600 
    189 H189       -2.7791  -13.8530  -48.1009 H         1 UNK         0.3000 
    190 H190        0.7346  -22.1711  -45.5817 H         1 UNK         0.3000 
    191 H191        1.0951  -24.0044  -47.7123 H         1 UNK         0.0600 
    192 H192        3.1271  -22.1316  -46.3933 H         1 UNK         0.0600 
    193 H193        3.5154  -23.5176  -47.4031 H         1 UNK         0.0600 
    194 H194        2.7161  -23.7594  -45.8573 H         1 UNK         0.0600 
    195 H195        1.4835  -20.4235  -47.6295 H         1 UNK         0.3000 
    196 H196        2.2492  -20.1036  -50.3436 H         1 UNK         0.0600 
    197 H197        1.5555  -17.7346  -49.9938 H         1 UNK         0.0600 
    198 H198        2.5374  -18.3243  -48.6613 H         1 UNK         0.0600 
    199 H199        0.7948  -18.1728  -48.4684 H         1 UNK         0.0600 
    200 H200       -0.9834  -19.9547  -48.7718 H         1 UNK         0.3000 
    201 H201       -2.4670  -19.3650  -51.0735 H         1 UNK         0.0600 
    202 H202       -3.3007  -19.0262  -48.7606 H         1 UNK         0.0600 
    203 H203       -3.3464  -20.7642  -48.4896 H         1 UNK         0.0600 
    204 H204       -4.4256  -20.0252  -49.6580 H         1 UNK         0.0600 
    205 H205       -1.9665  -22.5865  -49.5099 H         1 UNK         0.3000 
    206 H206       -3.5375  -23.8757  -51.6373 H         1 UNK         0.0600 
    207 H207       -3.9818  -24.3810  -49.2415 H         1 UNK         0.0600 
    208 H208       -3.4879  -25.8148  -50.1279 H         1 UNK         0.0600 
    209 H209       -2.3507  -25.0119  -49.0541 H         1 UNK         0.0600 
    210 H210       -0.2807  -24.4039  -50.1343 H         1 UNK         0.3000 
    211 H211        0.3003  -26.5298  -51.9848 H         1 UNK         0.0600 
    212 H212        2.1537  -25.1922  -49.9503 H         1 UNK         0.0600 
    213 H213        2.4195  -26.7214  -50.7659 H         1 UNK         0.0600 
    214 H214        1.0907  -26.5602  -49.6295 H         1 UNK         0.0600 
    215 H215        1.6204  -23.2051  -51.5868 H         1 UNK         0.3000 
    216 H216        3.1888  -23.3797  -54.0536 H         1 UNK         0.0600 
    217 H217        3.8382  -21.1064  -53.5524 H         1 UNK         0.0600 
    218 H218        3.8517  -21.9852  -52.0290 H         1 UNK         0.0600 
    219 H219        2.5205  -20.8949  -52.4188 H         1 UNK         0.0600 
    220 H220       -0.0718  -22.6918  -53.2827 H         1 UNK         0.3000 
    221 H221       -1.9007  -22.1517  -54.3999 H         1 UNK         0.0600 
    222 H222       -2.0749  -22.7612  -56.7674 H         1 UNK         0.0600 
    223 H223       -1.1306  -23.9689  -55.9120 H         1 UNK         0.0600 
    224 H224       -0.3251  -22.7833  -56.9399 H         1 UNK         0.0600 
    225 H225       -0.4635  -19.9326  -53.5464 H         1 UNK         0.3000 
    226 H226       -0.1674  -17.9547  -55.6279 H         1 UNK         0.0600 
    227 H227        0.4139  -16.4688  -53.7530 H         1 UNK         0.0600 
    228 H228       -0.1622  -17.6523  -52.5893 H         1 UNK         0.0600 
    229 H229        1.2482  -18.0068  -53.5837 H         1 UNK         0.0600 
    230 H230       -2.4739  -18.5885  -56.3298 H         1 UNK         0.3000 
    231 H231       -4.5056  -17.9141  -56.9283 H         1 UNK         0.0600 
    232 H232       -3.2516  -15.8310  -57.4771 H         1 UNK         0.0600 
    233 H233       -3.6289  -15.1689  -55.8873 H         1 UNK         0.0600 
    234 H234       -4.9159  -15.4769  -57.0460 H         1 UNK         0.0600 
    235 H235       -4.7451  -19.3628  -54.7011 H         1 UNK         0.3000 
    236 H236       -7.1469  -18.3204  -53.4336 H         1 UNK         0.0600 
    237 H237       -5.3720  -17.4283  -51.9105 H         1 UNK         0.0600 
    238 H238       -6.2248  -18.7386  -51.1104 H         1 UNK         0.0600 
    239 H239       -4.6378  -19.0240  -51.8142 H         1 UNK         0.0600 
    240 H240       -8.0114  -20.0471  -51.9352 H         1 UNK         0.3000 
    241 H241       -8.8161  -22.0218  -51.5027 H         1 UNK         0.0600 
    242 H242       -9.8240  -22.3603  -55.2267 H         1 UNK         0.3800 
    243 H243       -9.0852  -20.9741  -54.4685 H         1 UNK         0.3800 
    244 H244       -6.2848  -23.3655  -52.5354 H         1 UNK         0.0800 
    245 H245       -7.4458  -24.0468  -51.4283 H         1 UNK         0.0800 
    246 H246       -7.0513  -23.9436  -48.7800 H         1 UNK         0.0800 
    247 H247       -8.0957  -22.5769  -49.1124 H         1 UNK         0.0800 
@<TRIPOS>BOND
     1    1    2 1    
     2    1  127 1    
     3    1  128 1    
     4    1  129 1    
     5    2    3 2    
     6    2    4 am   BACKBONE|DICT|INTERRES
     7    4    5 1    
     8    4  130 1    
     9    5    6 1    
    10    5   65 1    
    11    5  131 1    
    12    6    7 1    
    13    6  132 1    
    14    6  133 1    
    15    7    8 1    
    16    8    9 1    
    17    8  134 1    
    18    8  135 1    
    19    9   10 ar   
    20    9   14 ar   
    21   10   11 ar   
    22   10  136 1    
    23   11   12 ar   
    24   11  126 1    
    25   12   13 ar   
    26   12  137 1    
    27   13   14 ar   
    28   13   15 1    
    29   14  138 1    
    30   15   16 1    
    31   15  139 1    
    32   15  140 1    
    33   16   17 1    
    34   17   18 1    
    35   17  141 1    
    36   17  142 1    
    37   18   19 1    
    38   18   67 1    
    39   18  143 1    
    40   19   20 am   BACKBONE|DICT|INTERRES
    41   19  144 1    
    42   20   21 2    
    43   20   22 1    
    44   22   23 1    
    45   22   24 1    
    46   22  145 1    
    47   23  146 1    
    48   23  147 1    
    49   23  148 1    
    50   24   25 am   BACKBONE|DICT|INTERRES
    51   24  149 1    
    52   25   26 2    
    53   25   27 1    
    54   27   28 1    
    55   27   29 1    
    56   27  150 1    
    57   28  151 1    
    58   28  152 1    
    59   28  153 1    
    60   29   30 am   BACKBONE|DICT|INTERRES
    61   29  154 1    
    62   30   31 2    
    63   30   32 1    
    64   32   33 1    
    65   32   34 1    
    66   32  155 1    
    67   33  156 1    
    68   33  157 1    
    69   33  158 1    
    70   34   35 am   BACKBONE|DICT|INTERRES
    71   34  159 1    
    72   35   36 2    
    73   35   37 1    
    74   37   38 1    
    75   37   39 1    
    76   37  160 1    
    77   38  161 1    
    78   38  162 1    
    79   38  163 1    
    80   39   40 am   BACKBONE|DICT|INTERRES
    81   39  164 1    
    82   40   41 2    
    83   40   42 1    
    84   42   43 1    
    85   42   44 1    
    86   42  165 1    
    87   43  166 1    
    88   43  167 1    
    89   43  168 1    
    90   44   45 am   BACKBONE|DICT|INTERRES
    91   44  169 1    
    92   45   46 2    
    93   45   47 1    
    94   47   48 1    
    95   47   49 1    
    96   47  170 1    
    97   48  171 1    
    98   48  172 1    
    99   48  173 1    
   100   49   50 am   BACKBONE|DICT|INTERRES
   101   49  174 1    
   102   50   51 2    
   103   50   52 1    
   104   52   53 1    
   105   52   54 1    
   106   52  175 1    
   107   53  176 1    
   108   53  177 1    
   109   53  178 1    
   110   54   55 am   BACKBONE|DICT|INTERRES
   111   54  179 1    
   112   55   56 2    
   113   55   57 1    
   114   57   58 1    
   115   57   59 1    
   116   57  180 1    
   117   58  181 1    
   118   58  182 1    
   119   58  183 1    
   120   59   60 am   BACKBONE|DICT|INTERRES
   121   59  184 1    
   122   60   61 2    
   123   60   62 1    
   124   62   63 1    
   125   62   64 1    
   126   62  185 1    
   127   63  186 1    
   128   63  187 1    
   129   63  188 1    
   130   64   65 am   BACKBONE|DICT|INTERRES
   131   64  189 1    
   132   65   66 2    
   133   67   68 2    
   134   67   69 am   BACKBONE|DICT|INTERRES
   135   69   70 1    
   136   69  190 1    
   137   70   71 1    
   138   70   72 1    
   139   70  191 1    
   140   71  192 1    
   141   71  193 1    
   142   71  194 1    
   143   72   73 2    
   144   72   74 am   BACKBONE|DICT|INTERRES
   145   74   75 1    
   146   74  195 1    
   147   75   76 1    
   148   75   77 1    
   149   75  196 1    
   150   76  197 1    
   151   76  198 1    
   152   76  199 1    
   153   77   78 2    
   154   77   79 am   BACKBONE|DICT|INTERRES
   155   79   80 1    
   156   79  200 1    
   157   80   81 1    
   158   80   82 1    
   159   80  201 1    
   160   81  202 1    
   161   81  203 1    
   162   81  204 1    
   163   82   83 2    
   164   82   84 am   BACKBONE|DICT|INTERRES
   165   84   85 1    
   166   84  205 1    
   167   85   86 1    
   168   85   87 1    
   169   85  206 1    
   170   86  207 1    
   171   86  208 1    
   172   86  209 1    
   173   87   88 2    
   174   87   89 am   BACKBONE|DICT|INTERRES
   175   89   90 1    
   176   89  210 1    
   177   90   91 1    
   178   90   92 1    
   179   90  211 1    
   180   91  212 1    
   181   91  213 1    
   182   91  214 1    
   183   92   93 2    
   184   92   94 am   BACKBONE|DICT|INTERRES
   185   94   95 1    
   186   94  215 1    
   187   95   96 1    
   188   95   97 1    
   189   95  216 1    
   190   96  217 1    
   191   96  218 1    
   192   96  219 1    
   193   97   98 2    
   194   97   99 am   BACKBONE|DICT|INTERRES
   195   99  100 1    
   196   99  220 1    
   197  100  101 1    
   198  100  102 1    
   199  100  221 1    
   200  101  222 1    
   201  101  223 1    
   202  101  224 1    
   203  102  103 2    
   204  102  104 am   BACKBONE|DICT|INTERRES
   205  104  105 1    
   206  104  225 1    
   207  105  106 1    
   208  105  107 1    
   209  105  226 1    
   210  106  227 1    
   211  106  228 1    
   212  106  229 1    
   213  107  108 2    
   214  107  109 am   BACKBONE|DICT|INTERRES
   215  109  110 1    
   216  109  230 1    
   217  110  111 1    
   218  110  112 1    
   219  110  231 1    
   220  111  232 1    
   221  111  233 1    
   222  111  234 1    
   223  112  113 2    
   224  112  114 am   BACKBONE|DICT|INTERRES
   225  114  115 1    
   226  114  235 1    
   227  115  116 1    
   228  115  117 1    
   229  115  236 1    
   230  116  237 1    
   231  116  238 1    
   232  116  239 1    
   233  117  118 2    
   234  117  119 am   BACKBONE|DICT|INTERRES
   235  119  120 1    
   236  119  240 1    
   237  120  121 1    
   238  120  124 1    
   239  120  241 1    
   240  121  122 am   BACKBONE|DICT|INTERRES
   241  121  123 2    
   242  122  242 1    
   243  122  243 1    
   244  124  125 1    
   245  124  244 1    
   246  124  245 1    
   247  125  126 1    
   248  126  246 1    
   249  126  247 1    
@<TRIPOS>SUBSTRUCTURE
     1 UNK         1 GROUP             0       ****    0 ROOT    
