@<TRIPOS>MOLECULE
3R540
247   249    1
SMALL
USER_CHARGES


@<TRIPOS>ATOM
      1 CA         -4.6098  -17.4508  -43.1418 C.3       0 UNK        -0.1800 
      2 C          -4.1354  -16.0097  -43.2733 C.2       0 UNK         0.5000 
      3 O          -4.2636  -15.2293  -42.3297 O.2       0 UNK        -0.5000 
      4 N          -3.5773  -15.6535  -44.4343 N.am      1 UNK        -0.5000 
      5 CA         -3.1033  -14.3096  -44.7727 C.3       1 UNK         0.1400 
      6 C6         -3.2711  -14.0147  -46.2831 C.3       23 UNK        -0.0398 
      7 S7         -5.0057  -13.8233  -46.8134 S.3       23 UNK        -0.2404 
      8 C8         -5.4465  -15.5020  -47.3885 C.3       23 UNK        -0.0205 
      9 C9         -4.6141  -16.0840  -48.5346 C.ar      23 UNK        -0.0193 
     10 C10        -3.8117  -15.3048  -49.3786 C.ar      23 UNK        -0.1150 
     11 C11        -3.0448  -15.8925  -50.3904 C.ar      23 UNK        -0.0193 
     12 C12        -3.0995  -17.2822  -50.5564 C.ar      23 UNK        -0.1150 
     13 C13        -3.9329  -18.0737  -49.7649 C.ar      23 UNK        -0.0193 
     14 C14        -4.6827  -17.4615  -48.7542 C.ar      23 UNK        -0.1150 
     15 C15        -4.0394  -19.5676  -50.0764 C.3       23 UNK        -0.0205 
     16 S16        -4.5981  -20.6087  -48.6879 S.3       23 UNK        -0.2404 
     17 C17        -3.1279  -20.6161  -47.6049 C.3       23 UNK        -0.0398 
     18 CA         -2.6584  -22.0156  -47.1237 C.3       11 UNK         0.1400 
     19 N          -1.4767  -21.8597  -46.2691 N.am      11 UNK        -0.5000 
     20 C          -0.9469  -22.7194  -45.3872 C.2       10 UNK         0.5000 
     21 O          -1.2937  -23.8933  -45.2681 O.2       10 UNK        -0.5000 
     22 CA          0.0944  -22.1435  -44.4100 C.3       10 UNK         0.1400 
     23 CB          1.5120  -22.5161  -44.8646 C.3       10 UNK        -0.1800 
     24 N          -0.0007  -20.6891  -44.2240 N.am      10 UNK        -0.5000 
     25 C          -1.0776  -20.0191  -43.7783 C.2       9 UNK         0.5000 
     26 O          -2.1424  -20.5561  -43.4682 O.2       9 UNK        -0.5000 
     27 CA         -0.9607  -18.4875  -43.7329 C.3       9 UNK         0.1400 
     28 CB         -0.1328  -18.0386  -42.5218 C.3       9 UNK        -0.1800 
     29 N          -0.3756  -17.9775  -44.9734 N.am      9 UNK        -0.5000 
     30 C          -1.0733  -17.7202  -46.0904 C.2       8 UNK         0.5000 
     31 O          -2.3032  -17.6773  -46.1205 O.2       8 UNK        -0.5000 
     32 CA         -0.2827  -17.5199  -47.4019 C.3       8 UNK         0.1400 
     33 CB         -0.2832  -16.0595  -47.8674 C.3       8 UNK        -0.1800 
     34 N           1.1030  -17.9695  -47.3018 N.am      8 UNK        -0.5000 
     35 C           1.4989  -19.2461  -47.3665 C.2       7 UNK         0.5000 
     36 O           0.7284  -20.1906  -47.5322 O.2       7 UNK        -0.5000 
     37 CA          3.0060  -19.4990  -47.1664 C.3       7 UNK         0.1400 
     38 CB          3.7500  -19.3769  -48.5028 C.3       7 UNK        -0.1800 
     39 N           3.6107  -18.5772  -46.2009 N.am      7 UNK        -0.5000 
     40 C           3.2966  -18.5208  -44.8986 C.2       6 UNK         0.5000 
     41 O           2.4948  -19.2836  -44.3625 O.2       6 UNK        -0.5000 
     42 CA          3.9241  -17.3738  -44.0824 C.3       6 UNK         0.1400 
     43 CB          5.3010  -17.7838  -43.5405 C.3       6 UNK        -0.1800 
     44 N           4.0509  -16.1384  -44.8630 N.am      6 UNK        -0.5000 
     45 C           3.0093  -15.4356  -45.3272 C.2       5 UNK         0.5000 
     46 O           1.8354  -15.7191  -45.0849 O.2       5 UNK        -0.5000 
     47 CA          3.3339  -14.2901  -46.2928 C.3       5 UNK         0.1400 
     48 CB          3.6399  -14.8658  -47.6925 C.3       5 UNK        -0.1800 
     49 N           2.2038  -13.3659  -46.3570 N.am      5 UNK        -0.5000 
     50 C           2.2236  -12.1651  -46.9507 C.2       4 UNK         0.5000 
     51 O           3.2179  -11.6852  -47.4968 O.2       4 UNK        -0.5000 
     52 CA          0.9233  -11.3486  -46.9095 C.3       4 UNK         0.1400 
     53 CB         -0.1523  -11.9622  -47.8228 C.3       4 UNK        -0.1800 
     54 N           0.4231  -11.2411  -45.5406 N.am      4 UNK        -0.5000 
     55 C           0.8268  -10.3078  -44.6649 C.2       3 UNK         0.5000 
     56 O           1.6221   -9.4100  -44.9459 O.2       3 UNK        -0.5000 
     57 CA          0.2479  -10.3674  -43.2360 C.3       3 UNK         0.1400 
     58 CB         -0.9254   -9.3858  -43.0922 C.3       3 UNK        -0.1800 
     59 N          -0.2053  -11.7023  -42.8494 N.am      3 UNK        -0.5000 
     60 C           0.6012  -12.7426  -42.6001 C.2       2 UNK         0.5000 
     61 O           1.8298  -12.6646  -42.5750 O.2       2 UNK        -0.5000 
     62 CA         -0.0796  -14.1067  -42.3700 C.3       2 UNK         0.1400 
     63 CB         -0.2099  -14.3972  -40.8671 C.3       2 UNK        -0.1800 
     64 N          -1.4003  -14.2428  -43.0000 N.am      2 UNK        -0.5000 
     65 C          -1.6396  -14.1380  -44.3143 C.2       1 UNK         0.5000 
     66 O          -0.7572  -13.8911  -45.1372 O.2       1 UNK        -0.5000 
     67 C          -3.8131  -22.7869  -46.4405 C.2       11 UNK         0.5000 
     68 O          -4.3734  -23.6984  -47.0517 O.2       11 UNK        -0.5000 
     69 N          -4.1175  -22.4299  -45.1838 N.am      12 UNK        -0.5000 
     70 CA         -5.1946  -23.0205  -44.3890 C.3       12 UNK         0.1400 
     71 CB         -5.3965  -22.1726  -43.1240 C.3       12 UNK        -0.1800 
     72 C          -4.9634  -24.4989  -44.0174 C.2       12 UNK         0.5000 
     73 O          -5.9351  -25.2437  -43.8848 O.2       12 UNK        -0.5000 
     74 N          -3.6952  -24.8981  -43.8589 N.am      13 UNK        -0.5000 
     75 CA         -3.2903  -26.2683  -43.5432 C.3       13 UNK         0.1400 
     76 CB         -2.0415  -26.2281  -42.6482 C.3       13 UNK        -0.1800 
     77 C          -3.0110  -27.0800  -44.8191 C.2       13 UNK         0.5000 
     78 O          -3.3464  -28.2631  -44.8780 O.2       13 UNK        -0.5000 
     79 N          -2.4046  -26.4260  -45.8175 N.am      14 UNK        -0.5000 
     80 CA         -1.9901  -27.0115  -47.0921 C.3       14 UNK         0.1400 
     81 CB         -0.9068  -26.1075  -47.7005 C.3       14 UNK        -0.1800 
     82 C          -3.1392  -27.2111  -48.0984 C.2       14 UNK         0.5000 
     83 O          -2.9076  -27.8103  -49.1482 O.2       14 UNK        -0.5000 
     84 N          -4.3309  -26.6745  -47.7958 N.am      15 UNK        -0.5000 
     85 CA         -5.5171  -26.6176  -48.6590 C.3       15 UNK         0.1400 
     86 CB         -6.0821  -28.0278  -48.9295 C.3       15 UNK        -0.1800 
     87 C          -5.2357  -25.8095  -49.9428 C.2       15 UNK         0.5000 
     88 O          -5.5115  -26.2667  -51.0527 O.2       15 UNK        -0.5000 
     89 N          -4.6415  -24.6266  -49.7393 N.am      16 UNK        -0.5000 
     90 CA         -4.2213  -23.6263  -50.7243 C.3       16 UNK         0.1400 
     91 CB         -5.4109  -23.1173  -51.5620 C.3       16 UNK        -0.1800 
     92 C          -3.0143  -24.0063  -51.5995 C.2       16 UNK         0.5000 
     93 O          -2.5661  -23.1622  -52.3731 O.2       16 UNK        -0.5000 
     94 N          -2.4561  -25.2149  -51.4417 N.am      17 UNK        -0.5000 
     95 CA         -1.3021  -25.6930  -52.2116 C.3       17 UNK         0.1400 
     96 CB         -1.1031  -27.1923  -51.9467 C.3       17 UNK        -0.1800 
     97 C           0.0028  -24.9182  -51.9327 C.2       17 UNK         0.5000 
     98 O           0.8753  -24.8724  -52.8001 O.2       17 UNK        -0.5000 
     99 N           0.1104  -24.3186  -50.7382 N.am      18 UNK        -0.5000 
    100 CA         1.2671  -23.5369  -50.2962 C.3       18 UNK         0.1400 
    101 CB         1.1840  -23.3274  -48.7755 C.3       18 UNK        -0.1800 
    102 C          1.4143  -22.1790  -51.0092 C.2       18 UNK         0.5000 
    103 O          2.5342  -21.6787  -51.1113 O.2       18 UNK        -0.5000 
    104 N          0.3008  -21.6040  -51.4807 N.am      19 UNK        -0.5000 
    105 CA         0.2479  -20.2712  -52.0796 C.3       19 UNK         0.1400 
    106 CB         0.0716  -19.2052  -50.9805 C.3       19 UNK        -0.1800 
    107 C         -0.8289  -20.2239  -53.1738 C.2       19 UNK         0.5000 
    108 O         -1.6422  -19.3003  -53.2165 O.2       19 UNK        -0.5000 
    109 N         -0.8061  -21.2298  -54.0591 N.am      20 UNK        -0.5000 
    110 CA        -1.7545  -21.3987  -55.1659 C.3       20 UNK         0.1400 
    111 CB        -1.5068  -22.7609  -55.8309 C.3       20 UNK        -0.1800 
    112 C         -1.7010  -20.2641  -56.2100 C.2       20 UNK         0.5000 
    113 O         -2.6985  -20.0095  -56.8872 O.2       20 UNK        -0.5000 
    114 N         -0.5537  -19.5733  -56.2871 N.am      21 UNK        -0.5000 
    115 CA        -0.3044  -18.3982  -57.1255 C.3       21 UNK         0.1400 
    116 CB         1.1711  -17.9945  -56.9810 C.3       21 UNK        -0.1800 
    117 C         -1.2234  -17.1946  -56.8261 C.2       21 UNK         0.5000 
    118 O         -1.3884  -16.3389  -57.6968 O.2       21 UNK        -0.5000 
    119 N         -1.8191  -17.1536  -55.6259 N.am      22 UNK        -0.5000 
    120 CA        -2.8545  -16.1798  -55.2435 C.3       22 UNK         0.1400 
    121 C         -4.2289  -16.4041  -55.9456 C.2       22 UNK         0.5000 
    122 N         -4.4779  -17.5354  -56.5977 N.am      22 UNK        -0.7600 
    123 O         -5.0872  -15.5271  -55.9026 O.2       22 UNK        -0.5000 
    124 C124       -3.0463  -16.1129  -53.7078 C.3       23 UNK        -0.0398 
    125 S125       -1.5090  -15.7253  -52.7985 S.3       23 UNK        -0.2404 
    126 C126       -2.1689  -14.9852  -51.2607 C.3       23 UNK        -0.0205 
    127 H127       -4.0957  -17.9445  -42.3171 H         1 UNK         0.0600 
    128 H128       -4.4239  -18.0232  -44.0516 H         1 UNK         0.0600 
    129 H129       -5.6805  -17.4753  -42.9399 H         1 UNK         0.0600 
    130 H130       -3.3972  -16.3643  -45.1384 H         1 UNK         0.3000 
    131 H131       -3.6905  -13.5679  -44.2271 H         1 UNK         0.0600 
    132 H132       -2.7717  -13.0820  -46.5507 H         1 UNK         0.0800 
    133 H133       -2.7901  -14.7938  -46.8675 H         1 UNK         0.0800 
    134 H134       -6.4905  -15.4864  -47.7033 H         1 UNK         0.0800 
    135 H135       -5.3981  -16.1756  -46.5318 H         1 UNK         0.0800 
    136 H136       -3.7670  -14.2337  -49.2461 H         1 UNK         0.1150 
    137 H137       -2.5122  -17.7622  -51.3233 H         1 UNK         0.1150 
    138 H138       -5.3352  -18.0533  -48.1293 H         1 UNK         0.1150 
    139 H139       -3.0887  -19.9520  -50.4472 H         1 UNK         0.0800 
    140 H140       -4.7509  -19.6872  -50.8942 H         1 UNK         0.0800 
    141 H141       -3.3642  -19.9874  -46.7451 H         1 UNK         0.0800 
    142 H142       -2.3065  -20.1162  -48.1199 H         1 UNK         0.0800 
    143 H143       -2.3451  -22.5953  -47.9933 H         1 UNK         0.0600 
    144 H144       -1.0180  -20.9601  -46.3277 H         1 UNK         0.3000 
    145 H145       -0.0851  -22.6059  -43.4376 H         1 UNK         0.0600 
    146 H146        2.2648  -22.1374  -44.1731 H         1 UNK         0.0600 
    147 H147        1.6318  -23.5991  -44.9161 H         1 UNK         0.0600 
    148 H148        1.7311  -22.1187  -45.8544 H         1 UNK         0.0600 
    149 H149        0.8516  -20.1645  -44.4046 H         1 UNK         0.3000 
    150 H150       -1.9620  -18.0769  -43.6146 H         1 UNK         0.0600 
    151 H151        0.8810  -18.4358  -42.5393 H         1 UNK         0.0600 
    152 H152       -0.5966  -18.3682  -41.5914 H         1 UNK         0.0600 
    153 H153       -0.0648  -16.9560  -42.4821 H         1 UNK         0.0600 
    154 H154        0.6330  -17.9375  -45.0179 H         1 UNK         0.3000 
    155 H155       -0.7830  -18.1099  -48.1724 H         1 UNK         0.0600 
    156 H156        0.1097  -15.3900  -47.1043 H         1 UNK         0.0600 
    157 H157       -1.2904  -15.7363  -48.1141 H         1 UNK         0.0600 
    158 H158        0.3156  -15.9309  -48.7692 H         1 UNK         0.0600 
    159 H159        1.7903  -17.2573  -47.1083 H         1 UNK         0.3000 
    160 H160        3.1334  -20.5165  -46.7939 H         1 UNK         0.0600 
    161 H161        3.6802  -18.3695  -48.9154 H         1 UNK         0.0600 
    162 H162        3.3343  -20.0616  -49.2408 H         1 UNK         0.0600 
    163 H163        4.8059  -19.6237  -48.3919 H         1 UNK         0.0600 
    164 H164        4.2878  -17.9215  -46.5610 H         1 UNK         0.3000 
    165 H165        3.2670  -17.1736  -43.2332 H         1 UNK         0.0600 
    166 H166        5.7201  -17.0064  -42.9014 H         1 UNK         0.0600 
    167 H167        6.0116  -17.9773  -44.3450 H         1 UNK         0.0600 
    168 H168        5.2287  -18.6920  -42.9404 H         1 UNK         0.0600 
    169 H169        4.9886  -15.8484  -45.1012 H         1 UNK         0.3000 
    170 H170        4.2058  -13.7545  -45.9122 H         1 UNK         0.0600 
    171 H171        4.4436  -15.6018  -47.6538 H         1 UNK         0.0600 
    172 H172        2.7665  -15.3548  -48.1249 H         1 UNK         0.0600 
    173 H173        3.9606  -14.0894  -48.3865 H         1 UNK         0.0600 
    174 H174        1.3583  -13.6965  -45.9002 H         1 UNK         0.3000 
    175 H175        1.1404  -10.3487  -47.2918 H         1 UNK         0.0600 
    176 H176       -0.3957  -12.9868  -47.5450 H         1 UNK         0.0600 
    177 H177       -1.0731  -11.3797  -47.7935 H         1 UNK         0.0600 
    178 H178        0.1869  -11.9817  -48.8590 H         1 UNK         0.0600 
    179 H179       -0.1716  -11.9979  -45.2223 H         1 UNK         0.3000 
    180 H180        1.0374  -10.0602  -42.5469 H         1 UNK         0.0600 
    181 H181       -1.7543   -9.6498  -43.7503 H         1 UNK         0.0600 
    182 H182       -0.6178   -8.3698  -43.3436 H         1 UNK         0.0600 
    183 H183       -1.3007   -9.3659  -42.0689 H         1 UNK         0.0600 
    184 H184       -1.2023  -11.8568  -42.8324 H         1 UNK         0.3000 
    185 H185        0.5785  -14.8541  -42.8150 H         1 UNK         0.0600 
    186 H186       -0.6178  -15.3918  -40.6872 H         1 UNK         0.0600 
    187 H187        0.7624  -14.3521  -40.3746 H         1 UNK         0.0600 
    188 H188       -0.8617  -13.6745  -40.3748 H         1 UNK         0.0600 
    189 H189       -2.1818  -14.4545  -42.3913 H         1 UNK         0.3000 
    190 H190       -3.5683  -21.7077  -44.7320 H         1 UNK         0.3000 
    191 H191       -6.1107  -22.9720  -44.9815 H         1 UNK         0.0600 
    192 H192       -6.2113  -22.5652  -42.5144 H         1 UNK         0.0600 
    193 H193       -5.6465  -21.1416  -43.3755 H         1 UNK         0.0600 
    194 H194       -4.4988  -22.1569  -42.5043 H         1 UNK         0.0600 
    195 H195       -2.9497  -24.2413  -44.0553 H         1 UNK         0.3000 
    196 H196       -4.0846  -26.7728  -42.9888 H         1 UNK         0.0600 
    197 H197       -1.2035  -25.7351  -43.1428 H         1 UNK         0.0600 
    198 H198       -2.2415  -25.6950  -41.7186 H         1 UNK         0.0600 
    199 H199       -1.7194  -27.2357  -42.3824 H         1 UNK         0.0600 
    200 H200       -2.1194  -25.4621  -45.6579 H         1 UNK         0.3000 
    201 H201       -1.5509  -27.9922  -46.8987 H         1 UNK         0.0600 
    202 H202       -1.2966  -25.1142  -47.9258 H         1 UNK         0.0600 
    203 H203       -0.5113  -26.5286  -48.6251 H         1 UNK         0.0600 
    204 H204       -0.0669  -25.9890  -47.0156 H         1 UNK         0.0600 
    205 H205       -4.3922  -26.1483  -46.9346 H         1 UNK         0.3000 
    206 H206       -6.2743  -26.0607  -48.1050 H         1 UNK         0.0600 
    207 H207       -6.2706  -28.5611  -47.9978 H         1 UNK         0.0600 
    208 H208       -7.0287  -27.9694  -49.4678 H         1 UNK         0.0600 
    209 H209       -5.4036  -28.6331  -49.5310 H         1 UNK         0.0600 
    210 H210       -4.4846  -24.3592  -48.7689 H         1 UNK         0.3000 
    211 H211       -3.8569  -22.7911  -50.1340 H         1 UNK         0.0600 
    212 H212       -5.1173  -22.2706  -52.1838 H         1 UNK         0.0600 
    213 H213       -6.2253  -22.7783  -50.9217 H         1 UNK         0.0600 
    214 H214       -5.8010  -23.8882  -52.2266 H         1 UNK         0.0600 
    215 H215       -2.8833  -25.8710  -50.8020 H         1 UNK         0.3000 
    216 H216       -1.5352  -25.5654  -53.2709 H         1 UNK         0.0600 
    217 H217       -0.8414  -27.3866  -50.9065 H         1 UNK         0.0600 
    218 H218       -0.3009  -27.5951  -52.5663 H         1 UNK         0.0600 
    219 H219       -2.0063  -27.7583  -52.1760 H         1 UNK         0.0600 
    220 H220       -0.6554  -24.4105  -50.0896 H         1 UNK         0.3000 
    221 H221        2.1694  -24.1141  -50.5089 H         1 UNK         0.0600 
    222 H222        1.2409  -24.2747  -48.2414 H         1 UNK         0.0600 
    223 H223        0.2587  -22.8281  -48.4868 H         1 UNK         0.0600 
    224 H224        2.0098  -22.7101  -48.4187 H         1 UNK         0.0600 
    225 H225       -0.5768  -22.1055  -51.4315 H         1 UNK         0.3000 
    226 H226        1.1893  -20.0652  -52.5931 H         1 UNK         0.0600 
    227 H227       -0.8108  -19.3966  -50.3715 H         1 UNK         0.0600 
    228 H228        0.9343  -19.1865  -50.3158 H         1 UNK         0.0600 
    229 H229       -0.0247  -18.2054  -51.4054 H         1 UNK         0.0600 
    230 H230       -0.1200  -21.9609  -53.9392 H         1 UNK         0.3000 
    231 H231       -2.7605  -21.4034  -54.7411 H         1 UNK         0.0600 
    232 H232       -0.5022  -22.8277  -56.2500 H         1 UNK         0.0600 
    233 H233       -2.2150  -22.9346  -56.6422 H         1 UNK         0.0600 
    234 H234       -1.6282  -23.5748  -55.1156 H         1 UNK         0.0600 
    235 H235        0.2031  -19.8602  -55.6848 H         1 UNK         0.3000 
    236 H236       -0.4816  -18.6903  -58.1624 H         1 UNK         0.0600 
    237 H237        1.8347  -18.8083  -57.2743 H         1 UNK         0.0600 
    238 H238        1.4074  -17.1403  -57.6170 H         1 UNK         0.0600 
    239 H239        1.4120  -17.7158  -55.9543 H         1 UNK         0.0600 
    240 H240       -1.6317  -17.8864  -54.9525 H         1 UNK         0.3000 
    241 H241       -2.5098  -15.1965  -55.5688 H         1 UNK         0.0600 
    242 H242       -5.3709  -17.6572  -57.0483 H         1 UNK         0.3800 
    243 H243       -3.7887  -18.2771  -56.6503 H         1 UNK         0.3800 
    244 H244       -3.4380  -17.0636  -53.3439 H         1 UNK         0.0800 
    245 H245       -3.7920  -15.3576  -53.4531 H         1 UNK         0.0800 
    246 H246       -2.7304  -14.0884  -51.5270 H         1 UNK         0.0800 
    247 H247       -1.3242  -14.6497  -50.6576 H         1 UNK         0.0800 
@<TRIPOS>BOND
     1    1    2 1    
     2    1  127 1    
     3    1  128 1    
     4    1  129 1    
     5    2    3 2    
     6    2    4 am   BACKBONE|DICT|INTERRES
     7    4    5 1    
     8    4  130 1    
     9    5    6 1    
    10    5   65 1    
    11    5  131 1    
    12    6    7 1    
    13    6  132 1    
    14    6  133 1    
    15    7    8 1    
    16    8    9 1    
    17    8  134 1    
    18    8  135 1    
    19    9   10 ar   
    20    9   14 ar   
    21   10   11 ar   
    22   10  136 1    
    23   11   12 ar   
    24   11  126 1    
    25   12   13 ar   
    26   12  137 1    
    27   13   14 ar   
    28   13   15 1    
    29   14  138 1    
    30   15   16 1    
    31   15  139 1    
    32   15  140 1    
    33   16   17 1    
    34   17   18 1    
    35   17  141 1    
    36   17  142 1    
    37   18   19 1    
    38   18   67 1    
    39   18  143 1    
    40   19   20 am   BACKBONE|DICT|INTERRES
    41   19  144 1    
    42   20   21 2    
    43   20   22 1    
    44   22   23 1    
    45   22   24 1    
    46   22  145 1    
    47   23  146 1    
    48   23  147 1    
    49   23  148 1    
    50   24   25 am   BACKBONE|DICT|INTERRES
    51   24  149 1    
    52   25   26 2    
    53   25   27 1    
    54   27   28 1    
    55   27   29 1    
    56   27  150 1    
    57   28  151 1    
    58   28  152 1    
    59   28  153 1    
    60   29   30 am   BACKBONE|DICT|INTERRES
    61   29  154 1    
    62   30   31 2    
    63   30   32 1    
    64   32   33 1    
    65   32   34 1    
    66   32  155 1    
    67   33  156 1    
    68   33  157 1    
    69   33  158 1    
    70   34   35 am   BACKBONE|DICT|INTERRES
    71   34  159 1    
    72   35   36 2    
    73   35   37 1    
    74   37   38 1    
    75   37   39 1    
    76   37  160 1    
    77   38  161 1    
    78   38  162 1    
    79   38  163 1    
    80   39   40 am   BACKBONE|DICT|INTERRES
    81   39  164 1    
    82   40   41 2    
    83   40   42 1    
    84   42   43 1    
    85   42   44 1    
    86   42  165 1    
    87   43  166 1    
    88   43  167 1    
    89   43  168 1    
    90   44   45 am   BACKBONE|DICT|INTERRES
    91   44  169 1    
    92   45   46 2    
    93   45   47 1    
    94   47   48 1    
    95   47   49 1    
    96   47  170 1    
    97   48  171 1    
    98   48  172 1    
    99   48  173 1    
   100   49   50 am   BACKBONE|DICT|INTERRES
   101   49  174 1    
   102   50   51 2    
   103   50   52 1    
   104   52   53 1    
   105   52   54 1    
   106   52  175 1    
   107   53  176 1    
   108   53  177 1    
   109   53  178 1    
   110   54   55 am   BACKBONE|DICT|INTERRES
   111   54  179 1    
   112   55   56 2    
   113   55   57 1    
   114   57   58 1    
   115   57   59 1    
   116   57  180 1    
   117   58  181 1    
   118   58  182 1    
   119   58  183 1    
   120   59   60 am   BACKBONE|DICT|INTERRES
   121   59  184 1    
   122   60   61 2    
   123   60   62 1    
   124   62   63 1    
   125   62   64 1    
   126   62  185 1    
   127   63  186 1    
   128   63  187 1    
   129   63  188 1    
   130   64   65 am   BACKBONE|DICT|INTERRES
   131   64  189 1    
   132   65   66 2    
   133   67   68 2    
   134   67   69 am   BACKBONE|DICT|INTERRES
   135   69   70 1    
   136   69  190 1    
   137   70   71 1    
   138   70   72 1    
   139   70  191 1    
   140   71  192 1    
   141   71  193 1    
   142   71  194 1    
   143   72   73 2    
   144   72   74 am   BACKBONE|DICT|INTERRES
   145   74   75 1    
   146   74  195 1    
   147   75   76 1    
   148   75   77 1    
   149   75  196 1    
   150   76  197 1    
   151   76  198 1    
   152   76  199 1    
   153   77   78 2    
   154   77   79 am   BACKBONE|DICT|INTERRES
   155   79   80 1    
   156   79  200 1    
   157   80   81 1    
   158   80   82 1    
   159   80  201 1    
   160   81  202 1    
   161   81  203 1    
   162   81  204 1    
   163   82   83 2    
   164   82   84 am   BACKBONE|DICT|INTERRES
   165   84   85 1    
   166   84  205 1    
   167   85   86 1    
   168   85   87 1    
   169   85  206 1    
   170   86  207 1    
   171   86  208 1    
   172   86  209 1    
   173   87   88 2    
   174   87   89 am   BACKBONE|DICT|INTERRES
   175   89   90 1    
   176   89  210 1    
   177   90   91 1    
   178   90   92 1    
   179   90  211 1    
   180   91  212 1    
   181   91  213 1    
   182   91  214 1    
   183   92   93 2    
   184   92   94 am   BACKBONE|DICT|INTERRES
   185   94   95 1    
   186   94  215 1    
   187   95   96 1    
   188   95   97 1    
   189   95  216 1    
   190   96  217 1    
   191   96  218 1    
   192   96  219 1    
   193   97   98 2    
   194   97   99 am   BACKBONE|DICT|INTERRES
   195   99  100 1    
   196   99  220 1    
   197  100  101 1    
   198  100  102 1    
   199  100  221 1    
   200  101  222 1    
   201  101  223 1    
   202  101  224 1    
   203  102  103 2    
   204  102  104 am   BACKBONE|DICT|INTERRES
   205  104  105 1    
   206  104  225 1    
   207  105  106 1    
   208  105  107 1    
   209  105  226 1    
   210  106  227 1    
   211  106  228 1    
   212  106  229 1    
   213  107  108 2    
   214  107  109 am   BACKBONE|DICT|INTERRES
   215  109  110 1    
   216  109  230 1    
   217  110  111 1    
   218  110  112 1    
   219  110  231 1    
   220  111  232 1    
   221  111  233 1    
   222  111  234 1    
   223  112  113 2    
   224  112  114 am   BACKBONE|DICT|INTERRES
   225  114  115 1    
   226  114  235 1    
   227  115  116 1    
   228  115  117 1    
   229  115  236 1    
   230  116  237 1    
   231  116  238 1    
   232  116  239 1    
   233  117  118 2    
   234  117  119 am   BACKBONE|DICT|INTERRES
   235  119  120 1    
   236  119  240 1    
   237  120  121 1    
   238  120  124 1    
   239  120  241 1    
   240  121  122 am   BACKBONE|DICT|INTERRES
   241  121  123 2    
   242  122  242 1    
   243  122  243 1    
   244  124  125 1    
   245  124  244 1    
   246  124  245 1    
   247  125  126 1    
   248  126  246 1    
   249  126  247 1    
@<TRIPOS>SUBSTRUCTURE
     1 UNK         1 GROUP             0       ****    0 ROOT    
