@<TRIPOS>MOLECULE
3R540
247   249    1
SMALL
USER_CHARGES


@<TRIPOS>ATOM
      1 CA          4.5913  -15.6255  -45.2220 C.3       0 UNK        -0.1800 
      2 C           3.1771  -15.1528  -45.5155 C.2       0 UNK         0.5000 
      3 O           2.5333  -14.5710  -44.6435 O.2       0 UNK        -0.5000 
      4 N           2.6883  -15.3888  -46.7392 N.am      1 UNK        -0.5000 
      5 CA          1.3494  -15.0158  -47.2223 C.3       1 UNK         0.1400 
      6 C6          1.0487  -15.6111  -48.6218 C.3       23 UNK        -0.0398 
      7 S7          2.3503  -15.2961  -49.8643 S.3       23 UNK        -0.2404 
      8 C8          1.4575  -15.6312  -51.4188 C.3       23 UNK        -0.0205 
      9 C9          0.8292  -17.0209  -51.4843 C.ar      23 UNK        -0.0193 
     10 C10        -0.5102  -17.1580  -51.8625 C.ar      23 UNK        -0.1150 
     11 C11        -1.0965  -18.4234  -51.9771 C.ar      23 UNK        -0.0193 
     12 C12        -0.3384  -19.5551  -51.6696 C.ar      23 UNK        -0.1150 
     13 C13         0.9944  -19.4357  -51.2697 C.ar      23 UNK        -0.0193 
     14 C14         1.5791  -18.1677  -51.1981 C.ar      23 UNK        -0.1150 
     15 C15         1.7960  -20.6806  -50.9144 C.3       23 UNK        -0.0205 
     16 S16         2.0744  -20.8294  -49.1194 S.3       23 UNK        -0.2404 
     17 C17         0.3712  -20.8811  -48.4600 C.3       23 UNK        -0.0398 
     18 CA          0.1336  -22.0537  -47.4825 C.3       11 UNK         0.1400 
     19 N           1.0490  -22.0398  -46.3367 N.am      11 UNK        -0.5000 
     20 C           1.2425  -23.0777  -45.5064 C.2       10 UNK         0.5000 
     21 O           0.5604  -24.1030  -45.5590 O.2       10 UNK        -0.5000 
     22 CA          2.3651  -22.9871  -44.4554 C.3       10 UNK         0.1400 
     23 CB          3.3976  -24.1111  -44.6506 C.3       10 UNK        -0.1800 
     24 N           3.0401  -21.6926  -44.4795 N.am      10 UNK        -0.5000 
     25 C           3.5578  -21.0608  -43.4231 C.2       9 UNK         0.5000 
     26 O           3.6410  -21.5509  -42.2965 O.2       9 UNK        -0.5000 
     27 CA          4.0108  -19.6068  -43.6585 C.3       9 UNK         0.1400 
     28 CB          5.0963  -19.4948  -44.7494 C.3       9 UNK        -0.1800 
     29 N           2.8643  -18.7249  -43.9123 N.am      9 UNK        -0.5000 
     30 C           2.0160  -18.7456  -44.9522 C.2       8 UNK         0.5000 
     31 O           2.1878  -19.4147  -45.9718 O.2       8 UNK        -0.5000 
     32 CA          0.7130  -17.9470  -44.7589 C.3       8 UNK         0.1400 
     33 CB         -0.3262  -18.1724  -45.8725 C.3       8 UNK        -0.1800 
     34 N           0.1091  -18.1956  -43.4523 N.am      8 UNK        -0.5000 
     35 C          -0.2598  -19.3739  -42.9269 C.2       7 UNK         0.5000 
     36 O          -0.1448  -20.4565  -43.5051 O.2       7 UNK        -0.5000 
     37 CA         -0.8697  -19.3190  -41.5176 C.3       7 UNK         0.1400 
     38 CB          0.2444  -19.2666  -40.4607 C.3       7 UNK        -0.1800 
     39 N          -1.7247  -18.1387  -41.3756 N.am      7 UNK        -0.5000 
     40 C          -3.0619  -18.1631  -41.2993 C.2       6 UNK         0.5000 
     41 O          -3.7277  -19.1953  -41.2149 O.2       6 UNK        -0.5000 
     42 CA         -3.7867  -16.8008  -41.3354 C.3       6 UNK         0.1400 
     43 CB         -4.0052  -16.2711  -39.9100 C.3       6 UNK        -0.1800 
     44 N          -3.0784  -15.7846  -42.1180 N.am      6 UNK        -0.5000 
     45 C          -2.8652  -15.8435  -43.4404 C.2       5 UNK         0.5000 
     46 O          -3.3300  -16.7247  -44.1629 O.2       5 UNK        -0.5000 
     47 CA         -1.9747  -14.7496  -44.0706 C.3       5 UNK         0.1400 
     48 CB         -2.8497  -13.7233  -44.8064 C.3       5 UNK        -0.1800 
     49 N          -1.0824  -14.0291  -43.1520 N.am      5 UNK        -0.5000 
     50 C          -0.1761  -14.5657  -42.3243 C.2       4 UNK         0.5000 
     51 O          -0.0310  -15.7781  -42.1573 O.2       4 UNK        -0.5000 
     52 CA          0.7217  -13.5698  -41.5819 C.3       4 UNK         0.1400 
     53 CB          1.5707  -14.2346  -40.4804 C.3       4 UNK        -0.1800 
     54 N           1.5955  -12.9171  -42.5511 N.am      4 UNK        -0.5000 
     55 C           2.1005  -11.6858  -42.4182 C.2       3 UNK         0.5000 
     56 O           1.8020  -10.9207  -41.5001 O.2       3 UNK        -0.5000 
     57 CA          3.1238  -11.2340  -43.4714 C.3       3 UNK         0.1400 
     58 CB          4.4966  -11.8633  -43.1816 C.3       3 UNK        -0.1800 
     59 N           2.7190  -11.5878  -44.8325 N.am      3 UNK        -0.5000 
     60 C           2.2233  -10.7220  -45.7279 C.2       2 UNK         0.5000 
     61 O           1.9532   -9.5500  -45.4614 O.2       2 UNK        -0.5000 
     62 CA          2.0284  -11.2181  -47.1759 C.3       2 UNK         0.1400 
     63 CB          3.0928  -10.6009  -48.0975 C.3       2 UNK        -0.1800 
     64 N           2.1037  -12.6740  -47.2980 N.am      2 UNK        -0.5000 
     65 C           1.0588  -13.5001  -47.1664 C.2       1 UNK         0.5000 
     66 O          -0.0943  -13.1153  -46.9745 O.2       1 UNK        -0.5000 
     67 C          -1.3526  -22.1403  -47.0809 C.2       11 UNK         0.5000 
     68 O          -2.1534  -22.5925  -47.8987 O.2       11 UNK        -0.5000 
     69 N          -1.7059  -21.7793  -45.8371 N.am      12 UNK        -0.5000 
     70 CA         -3.0546  -21.9752  -45.2950 C.3       12 UNK         0.1400 
     71 CB         -3.2225  -21.1720  -43.9991 C.3       12 UNK        -0.1800 
     72 C          -3.4103  -23.4582  -45.0694 C.2       12 UNK         0.5000 
     73 O          -4.5954  -23.7822  -45.0007 O.2       12 UNK        -0.5000 
     74 N          -2.3946  -24.3276  -44.9828 N.am      13 UNK        -0.5000 
     75 CA         -2.5443  -25.7786  -44.9361 C.3       13 UNK         0.1400 
     76 CB         -1.6259  -26.3510  -43.8441 C.3       13 UNK        -0.1800 
     77 C          -2.2158  -26.3945  -46.3055 C.2       13 UNK         0.5000 
     78 O          -3.0043  -27.1890  -46.8169 O.2       13 UNK        -0.5000 
     79 N          -1.0620  -26.0185  -46.8766 N.am      14 UNK        -0.5000 
     80 CA         -0.4981  -26.6247  -48.0852 C.3       14 UNK         0.1400 
     81 CB          0.9810  -26.2255  -48.2047 C.3       14 UNK        -0.1800 
     82 C          -1.2563  -26.2849  -49.3820 C.2       14 UNK         0.5000 
     83 O          -1.3138  -27.1263  -50.2794 O.2       14 UNK        -0.5000 
     84 N          -1.8154  -25.0715  -49.4615 N.am      15 UNK        -0.5000 
     85 CA         -2.5581  -24.5598  -50.6176 C.3       15 UNK         0.1400 
     86 CB         -1.7844  -23.3601  -51.1970 C.3       15 UNK        -0.1800 
     87 C          -3.9973  -24.1598  -50.2388 C.2       15 UNK         0.5000 
     88 O          -4.7045  -23.5897  -51.0699 O.2       15 UNK        -0.5000 
     89 N          -4.3920  -24.4057  -48.9780 N.am      16 UNK        -0.5000 
     90 CA         -5.6607  -24.0218  -48.3403 C.3       16 UNK         0.1400 
     91 CB         -6.8299  -24.8048  -48.9726 C.3       16 UNK        -0.1800 
     92 C          -5.9307  -22.4967  -48.3258 C.2       16 UNK         0.5000 
     93 O          -7.0694  -22.0857  -48.0982 O.2       16 UNK        -0.5000 
     94 N          -4.8941  -21.6914  -48.6140 N.am      17 UNK        -0.5000 
     95 CA         -4.9273  -20.2612  -48.9442 C.3       17 UNK         0.1400 
     96 CB         -5.2080  -19.4154  -47.6846 C.3       17 UNK        -0.1800 
     97 C          -5.8688  -19.9124  -50.1250 C.2       17 UNK         0.5000 
     98 O          -6.3593  -18.7842  -50.2008 O.2       17 UNK        -0.5000 
     99 N          -6.1233  -20.8793  -51.0197 N.am      18 UNK        -0.5000 
    100 CA        -7.0318  -20.7350  -52.1545 C.3       18 UNK         0.1400 
    101 CB        -7.4415  -22.1295  -52.6519 C.3       18 UNK        -0.1800 
    102 C         -6.3757  -19.9288  -53.2844 C.2       18 UNK         0.5000 
    103 O         -5.2265  -20.2023  -53.6318 O.2       18 UNK        -0.5000 
    104 N         -7.1283  -18.9870  -53.8697 N.am      19 UNK        -0.5000 
    105 CA        -6.6704  -18.0717  -54.9224 C.3       19 UNK         0.1400 
    106 CB        -7.8063  -17.0989  -55.2732 C.3       19 UNK        -0.1800 
    107 C         -6.1543  -18.7760  -56.1925 C.2       19 UNK         0.5000 
    108 O         -5.2126  -18.2932  -56.8214 O.2       19 UNK        -0.5000 
    109 N         -6.7625  -19.9215  -56.5261 N.am      20 UNK        -0.5000 
    110 CA        -6.3721  -20.7763  -57.6475 C.3       20 UNK         0.1400 
    111 CB        -7.5437  -21.7135  -57.9802 C.3       20 UNK        -0.1800 
    112 C         -5.0914  -21.5934  -57.3802 C.2       20 UNK         0.5000 
    113 O         -4.4786  -22.0717  -58.3355 O.2       20 UNK        -0.5000 
    114 N         -4.7184  -21.7571  -56.1036 N.am      21 UNK        -0.5000 
    115 CA        -3.5611  -22.5369  -55.6649 C.3       21 UNK         0.1400 
    116 CB        -3.9519  -23.3262  -54.4066 C.3       21 UNK        -0.1800 
    117 C         -2.3195  -21.6629  -55.4026 C.2       21 UNK         0.5000 
    118 O         -1.2420  -22.2167  -55.1785 O.2       21 UNK        -0.5000 
    119 N         -2.4733  -20.3314  -55.4294 N.am      22 UNK        -0.5000 
    120 CA        -1.3774  -19.3597  -55.3024 C.3       22 UNK         0.1400 
    121 C         -0.3488  -19.4532  -56.4657 C.2       22 UNK         0.5000 
    122 N          0.9318  -19.2491  -56.1870 N.am      22 UNK        -0.7600 
    123 O         -0.7042  -19.6614  -57.6238 O.2       22 UNK        -0.5000 
    124 C124       -1.9017  -17.9037  -55.1869 C.3       23 UNK        -0.0398 
    125 S125       -3.0382  -17.5098  -53.8063 S.3       23 UNK        -0.2404 
    126 C126       -2.5454  -18.5964  -52.4232 C.3       23 UNK        -0.0205 
    127 H127        4.9813  -16.2543  -46.0227 H         1 UNK         0.0600 
    128 H128        4.6072  -16.2014  -44.2969 H         1 UNK         0.0600 
    129 H129        5.2550  -14.7694  -45.1024 H         1 UNK         0.0600 
    130 H130        3.2714  -15.8505  -47.4240 H         1 UNK         0.3000 
    131 H131        0.6341  -15.4625  -46.5314 H         1 UNK         0.0600 
    132 H132        0.0877  -15.2557  -48.9990 H         1 UNK         0.0800 
    133 H133        0.9484  -16.6932  -48.5405 H         1 UNK         0.0800 
    134 H134        0.6993  -14.8582  -51.5536 H         1 UNK         0.0800 
    135 H135        2.1537  -15.5251  -52.2516 H         1 UNK         0.0800 
    136 H136       -1.0946  -16.2773  -52.0883 H         1 UNK         0.1150 
    137 H137       -0.7881  -20.5352  -51.7441 H         1 UNK         0.1150 
    138 H138        2.6142  -18.0735  -50.9012 H         1 UNK         0.1150 
    139 H139        1.2965  -21.5813  -51.2753 H         1 UNK         0.0800 
    140 H140        2.7617  -20.6435  -51.4202 H         1 UNK         0.0800 
    141 H141       -0.3290  -20.9526  -49.2916 H         1 UNK         0.0800 
    142 H142        0.1695  -19.9255  -47.9821 H         1 UNK         0.0800 
    143 H143        0.3415  -22.9693  -48.0381 H         1 UNK         0.0600 
    144 H144        1.5697  -21.1767  -46.2192 H         1 UNK         0.3000 
    145 H145        1.8813  -23.1184  -43.4852 H         1 UNK         0.0600 
    146 H146        4.1523  -24.0955  -43.8643 H         1 UNK         0.0600 
    147 H147        2.9222  -25.0925  -44.6223 H         1 UNK         0.0600 
    148 H148        3.9095  -24.0203  -45.6093 H         1 UNK         0.0600 
    149 H149        2.9901  -21.1681  -45.3444 H         1 UNK         0.3000 
    150 H150        4.4562  -19.2603  -42.7246 H         1 UNK         0.0600 
    151 H151        5.9490  -20.1308  -44.5095 H         1 UNK         0.0600 
    152 H152        5.4693  -18.4747  -44.8282 H         1 UNK         0.0600 
    153 H153        4.7389  -19.7946  -45.7343 H         1 UNK         0.0600 
    154 H154        2.5890  -18.1624  -43.1197 H         1 UNK         0.3000 
    155 H155        0.9890  -16.8945  -44.7624 H         1 UNK         0.0600 
    156 H156       -1.1995  -17.5367  -45.7334 H         1 UNK         0.0600 
    157 H157        0.0906  -17.9380  -46.8494 H         1 UNK         0.0600 
    158 H158       -0.6727  -19.2038  -45.8967 H         1 UNK         0.0600 
    159 H159        0.0065  -17.3604  -42.8782 H         1 UNK         0.3000 
    160 H160       -1.4423  -20.2360  -41.3659 H         1 UNK         0.0600 
    161 H161        0.8476  -18.3622  -40.5523 H         1 UNK         0.0600 
    162 H162        0.9152  -20.1217  -40.5571 H         1 UNK         0.0600 
    163 H163       -0.1707  -19.2900  -39.4531 H         1 UNK         0.0600 
    164 H164       -1.2678  -17.2379  -41.4621 H         1 UNK         0.3000 
    165 H165       -4.7640  -16.9596  -41.7961 H         1 UNK         0.0600 
    166 H166       -4.5858  -15.3484  -39.9162 H         1 UNK         0.0600 
    167 H167       -4.5532  -16.9943  -39.3046 H         1 UNK         0.0600 
    168 H168       -3.0590  -16.0706  -39.4056 H         1 UNK         0.0600 
    169 H169       -2.6685  -15.0193  -41.6040 H         1 UNK         0.3000 
    170 H170       -1.3379  -15.2427  -44.8070 H         1 UNK         0.0600 
    171 H171       -3.4836  -14.2091  -45.5495 H         1 UNK         0.0600 
    172 H172       -3.5028  -13.1864  -44.1174 H         1 UNK         0.0600 
    173 H173       -2.2425  -12.9878  -45.3336 H         1 UNK         0.0600 
    174 H174       -1.1127  -13.0219  -43.2193 H         1 UNK         0.3000 
    175 H175        0.0649  -12.8325  -41.1153 H         1 UNK         0.0600 
    176 H176        0.9395  -14.7587  -39.7617 H         1 UNK         0.0600 
    177 H177        2.2705  -14.9604  -40.8969 H         1 UNK         0.0600 
    178 H178        2.1481  -13.4949  -39.9256 H         1 UNK         0.0600 
    179 H179        1.8861  -13.4953  -43.3387 H         1 UNK         0.3000 
    180 H180        3.2346  -10.1513  -43.3800 H         1 UNK         0.0600 
    181 H181        4.4672  -12.9514  -43.2497 H         1 UNK         0.0600 
    182 H182        4.8396  -11.6069  -42.1783 H         1 UNK         0.0600 
    183 H183        5.2495  -11.5046  -43.8835 H         1 UNK         0.0600 
    184 H184        2.8316  -12.5575  -45.0988 H         1 UNK         0.3000 
    185 H185        1.0491  -10.8714  -47.5129 H         1 UNK         0.0600 
    186 H186        2.9401  -10.9039  -49.1337 H         1 UNK         0.0600 
    187 H187        3.0513   -9.5112  -48.0702 H         1 UNK         0.0600 
    188 H188        4.1006  -10.8985  -47.8053 H         1 UNK         0.0600 
    189 H189        3.0155  -13.0729  -47.4686 H         1 UNK         0.3000 
    190 H190       -1.0038  -21.4225  -45.1967 H         1 UNK         0.3000 
    191 H191       -3.7692  -21.5867  -46.0202 H         1 UNK         0.0600 
    192 H192       -2.5753  -21.5492  -43.2073 H         1 UNK         0.0600 
    193 H193       -4.2485  -21.2302  -43.6338 H         1 UNK         0.0600 
    194 H194       -2.9956  -20.1167  -44.1537 H         1 UNK         0.0600 
    195 H195       -1.4467  -23.9787  -45.0620 H         1 UNK         0.3000 
    196 H196       -3.5711  -26.0517  -44.6838 H         1 UNK         0.0600 
    197 H197       -1.7110  -27.4372  -43.7928 H         1 UNK         0.0600 
    198 H198       -1.8930  -25.9577  -42.8632 H         1 UNK         0.0600 
    199 H199       -0.5772  -26.1116  -44.0238 H         1 UNK         0.0600 
    200 H200       -0.4609  -25.3623  -46.3824 H         1 UNK         0.3000 
    201 H201       -0.5400  -27.7090  -47.9612 H         1 UNK         0.0600 
    202 H202        1.5429  -26.5236  -47.3193 H         1 UNK         0.0600 
    203 H203        1.1022  -25.1499  -48.3294 H         1 UNK         0.0600 
    204 H204        1.4479  -26.7090  -49.0637 H         1 UNK         0.0600 
    205 H205       -1.7296  -24.4300  -48.6817 H         1 UNK         0.3000 
    206 H206       -2.6424  -25.3208  -51.3956 H         1 UNK         0.0600 
    207 H207       -0.7698  -23.6431  -51.4770 H         1 UNK         0.0600 
    208 H208       -2.2664  -22.9672  -52.0912 H         1 UNK         0.0600 
    209 H209       -1.7180  -22.5402  -50.4836 H         1 UNK         0.0600 
    210 H210       -3.7335  -24.8795  -48.3776 H         1 UNK         0.3000 
    211 H211       -5.5875  -24.3334  -47.2996 H         1 UNK         0.0600 
    212 H212       -6.6298  -25.8763  -48.9775 H         1 UNK         0.0600 
    213 H213       -7.7533  -24.6523  -48.4127 H         1 UNK         0.0600 
    214 H214       -7.0170  -24.4933  -50.0007 H         1 UNK         0.0600 
    215 H215       -3.9865  -22.1340  -48.7105 H         1 UNK         0.3000 
    216 H216       -3.9226  -20.0106  -49.2878 H         1 UNK         0.0600 
    217 H217       -6.1916  -19.6278  -47.2652 H         1 UNK         0.0600 
    218 H218       -5.1713  -18.3487  -47.9083 H         1 UNK         0.0600 
    219 H219       -4.4640  -19.5968  -46.9104 H         1 UNK         0.0600 
    220 H220       -5.6466  -21.7716  -50.9363 H         1 UNK         0.3000 
    221 H221       -7.9311  -20.2152  -51.8172 H         1 UNK         0.0600 
    222 H222       -7.9313  -22.7000  -51.8625 H         1 UNK         0.0600 
    223 H223       -6.5808  -22.7058  -52.9923 H         1 UNK         0.0600 
    224 H224       -8.1408  -22.0591  -53.4859 H         1 UNK         0.0600 
    225 H225       -8.0683  -18.8384  -53.5318 H         1 UNK         0.3000 
    226 H226       -5.8454  -17.4885  -54.5125 H         1 UNK         0.0600 
    227 H227       -8.1130  -16.5192  -54.4024 H         1 UNK         0.0600 
    228 H228       -7.4899  -16.3887  -56.0385 H         1 UNK         0.0600 
    229 H229       -8.6831  -17.6237  -55.6546 H         1 UNK         0.0600 
    230 H230       -7.5269  -20.2442  -55.9514 H         1 UNK         0.3000 
    231 H231       -6.1829  -20.1441  -58.5177 H         1 UNK         0.0600 
    232 H232       -7.7854  -22.3687  -57.1422 H         1 UNK         0.0600 
    233 H233       -7.3066  -22.3482  -58.8351 H         1 UNK         0.0600 
    234 H234       -8.4406  -21.1490  -58.2360 H         1 UNK         0.0600 
    235 H235       -5.2270  -21.2773  -55.3693 H         1 UNK         0.3000 
    236 H236       -3.2878  -23.2601  -56.4359 H         1 UNK         0.0600 
    237 H237       -4.8329  -23.9436  -54.5822 H         1 UNK         0.0600 
    238 H238       -3.1470  -23.9936  -54.0975 H         1 UNK         0.0600 
    239 H239       -4.1696  -22.6622  -53.5702 H         1 UNK         0.0600 
    240 H240       -3.3928  -19.9516  -55.6019 H         1 UNK         0.3000 
    241 H241       -0.8382  -19.6128  -54.3915 H         1 UNK         0.0600 
    242 H242        1.6074  -19.2907  -56.9344 H         1 UNK         0.3800 
    243 H243        1.2471  -19.0674  -55.2467 H         1 UNK         0.3800 
    244 H244       -2.4106  -17.6212  -56.1104 H         1 UNK         0.0800 
    245 H245       -1.0581  -17.2173  -55.0935 H         1 UNK         0.0800 
    246 H246       -3.1952  -18.3844  -51.5737 H         1 UNK         0.0800 
    247 H247       -2.7449  -19.6320  -52.7023 H         1 UNK         0.0800 
@<TRIPOS>BOND
     1    1    2 1    
     2    1  127 1    
     3    1  128 1    
     4    1  129 1    
     5    2    3 2    
     6    2    4 am   BACKBONE|DICT|INTERRES
     7    4    5 1    
     8    4  130 1    
     9    5    6 1    
    10    5   65 1    
    11    5  131 1    
    12    6    7 1    
    13    6  132 1    
    14    6  133 1    
    15    7    8 1    
    16    8    9 1    
    17    8  134 1    
    18    8  135 1    
    19    9   10 ar   
    20    9   14 ar   
    21   10   11 ar   
    22   10  136 1    
    23   11   12 ar   
    24   11  126 1    
    25   12   13 ar   
    26   12  137 1    
    27   13   14 ar   
    28   13   15 1    
    29   14  138 1    
    30   15   16 1    
    31   15  139 1    
    32   15  140 1    
    33   16   17 1    
    34   17   18 1    
    35   17  141 1    
    36   17  142 1    
    37   18   19 1    
    38   18   67 1    
    39   18  143 1    
    40   19   20 am   BACKBONE|DICT|INTERRES
    41   19  144 1    
    42   20   21 2    
    43   20   22 1    
    44   22   23 1    
    45   22   24 1    
    46   22  145 1    
    47   23  146 1    
    48   23  147 1    
    49   23  148 1    
    50   24   25 am   BACKBONE|DICT|INTERRES
    51   24  149 1    
    52   25   26 2    
    53   25   27 1    
    54   27   28 1    
    55   27   29 1    
    56   27  150 1    
    57   28  151 1    
    58   28  152 1    
    59   28  153 1    
    60   29   30 am   BACKBONE|DICT|INTERRES
    61   29  154 1    
    62   30   31 2    
    63   30   32 1    
    64   32   33 1    
    65   32   34 1    
    66   32  155 1    
    67   33  156 1    
    68   33  157 1    
    69   33  158 1    
    70   34   35 am   BACKBONE|DICT|INTERRES
    71   34  159 1    
    72   35   36 2    
    73   35   37 1    
    74   37   38 1    
    75   37   39 1    
    76   37  160 1    
    77   38  161 1    
    78   38  162 1    
    79   38  163 1    
    80   39   40 am   BACKBONE|DICT|INTERRES
    81   39  164 1    
    82   40   41 2    
    83   40   42 1    
    84   42   43 1    
    85   42   44 1    
    86   42  165 1    
    87   43  166 1    
    88   43  167 1    
    89   43  168 1    
    90   44   45 am   BACKBONE|DICT|INTERRES
    91   44  169 1    
    92   45   46 2    
    93   45   47 1    
    94   47   48 1    
    95   47   49 1    
    96   47  170 1    
    97   48  171 1    
    98   48  172 1    
    99   48  173 1    
   100   49   50 am   BACKBONE|DICT|INTERRES
   101   49  174 1    
   102   50   51 2    
   103   50   52 1    
   104   52   53 1    
   105   52   54 1    
   106   52  175 1    
   107   53  176 1    
   108   53  177 1    
   109   53  178 1    
   110   54   55 am   BACKBONE|DICT|INTERRES
   111   54  179 1    
   112   55   56 2    
   113   55   57 1    
   114   57   58 1    
   115   57   59 1    
   116   57  180 1    
   117   58  181 1    
   118   58  182 1    
   119   58  183 1    
   120   59   60 am   BACKBONE|DICT|INTERRES
   121   59  184 1    
   122   60   61 2    
   123   60   62 1    
   124   62   63 1    
   125   62   64 1    
   126   62  185 1    
   127   63  186 1    
   128   63  187 1    
   129   63  188 1    
   130   64   65 am   BACKBONE|DICT|INTERRES
   131   64  189 1    
   132   65   66 2    
   133   67   68 2    
   134   67   69 am   BACKBONE|DICT|INTERRES
   135   69   70 1    
   136   69  190 1    
   137   70   71 1    
   138   70   72 1    
   139   70  191 1    
   140   71  192 1    
   141   71  193 1    
   142   71  194 1    
   143   72   73 2    
   144   72   74 am   BACKBONE|DICT|INTERRES
   145   74   75 1    
   146   74  195 1    
   147   75   76 1    
   148   75   77 1    
   149   75  196 1    
   150   76  197 1    
   151   76  198 1    
   152   76  199 1    
   153   77   78 2    
   154   77   79 am   BACKBONE|DICT|INTERRES
   155   79   80 1    
   156   79  200 1    
   157   80   81 1    
   158   80   82 1    
   159   80  201 1    
   160   81  202 1    
   161   81  203 1    
   162   81  204 1    
   163   82   83 2    
   164   82   84 am   BACKBONE|DICT|INTERRES
   165   84   85 1    
   166   84  205 1    
   167   85   86 1    
   168   85   87 1    
   169   85  206 1    
   170   86  207 1    
   171   86  208 1    
   172   86  209 1    
   173   87   88 2    
   174   87   89 am   BACKBONE|DICT|INTERRES
   175   89   90 1    
   176   89  210 1    
   177   90   91 1    
   178   90   92 1    
   179   90  211 1    
   180   91  212 1    
   181   91  213 1    
   182   91  214 1    
   183   92   93 2    
   184   92   94 am   BACKBONE|DICT|INTERRES
   185   94   95 1    
   186   94  215 1    
   187   95   96 1    
   188   95   97 1    
   189   95  216 1    
   190   96  217 1    
   191   96  218 1    
   192   96  219 1    
   193   97   98 2    
   194   97   99 am   BACKBONE|DICT|INTERRES
   195   99  100 1    
   196   99  220 1    
   197  100  101 1    
   198  100  102 1    
   199  100  221 1    
   200  101  222 1    
   201  101  223 1    
   202  101  224 1    
   203  102  103 2    
   204  102  104 am   BACKBONE|DICT|INTERRES
   205  104  105 1    
   206  104  225 1    
   207  105  106 1    
   208  105  107 1    
   209  105  226 1    
   210  106  227 1    
   211  106  228 1    
   212  106  229 1    
   213  107  108 2    
   214  107  109 am   BACKBONE|DICT|INTERRES
   215  109  110 1    
   216  109  230 1    
   217  110  111 1    
   218  110  112 1    
   219  110  231 1    
   220  111  232 1    
   221  111  233 1    
   222  111  234 1    
   223  112  113 2    
   224  112  114 am   BACKBONE|DICT|INTERRES
   225  114  115 1    
   226  114  235 1    
   227  115  116 1    
   228  115  117 1    
   229  115  236 1    
   230  116  237 1    
   231  116  238 1    
   232  116  239 1    
   233  117  118 2    
   234  117  119 am   BACKBONE|DICT|INTERRES
   235  119  120 1    
   236  119  240 1    
   237  120  121 1    
   238  120  124 1    
   239  120  241 1    
   240  121  122 am   BACKBONE|DICT|INTERRES
   241  121  123 2    
   242  122  242 1    
   243  122  243 1    
   244  124  125 1    
   245  124  244 1    
   246  124  245 1    
   247  125  126 1    
   248  126  246 1    
   249  126  247 1    
@<TRIPOS>SUBSTRUCTURE
     1 UNK         1 GROUP             0       ****    0 ROOT    
