@<TRIPOS>MOLECULE
3R540
247   249    1
SMALL
USER_CHARGES


@<TRIPOS>ATOM
      1 CA          3.3424  -15.2285  -46.5856 C.3       0 UNK        -0.1800 
      2 C           2.5905  -13.9811  -46.1530 C.2       0 UNK         0.5000 
      3 O           2.4160  -13.7566  -44.9542 O.2       0 UNK        -0.5000 
      4 N           2.1506  -13.1606  -47.1155 N.am      1 UNK        -0.5000 
      5 CA          1.4278  -11.9026  -46.8801 C.3       1 UNK         0.1400 
      6 C6          0.8245  -11.3105  -48.1758 C.3       23 UNK        -0.0398 
      7 S7         -0.5003  -12.3716  -48.8412 S.3       23 UNK        -0.2404 
      8 C8          0.3173  -13.2148  -50.2331 C.3       23 UNK        -0.0205 
      9 C9         -0.0769  -14.6832  -50.2839 C.ar      23 UNK        -0.0193 
     10 C10        -1.3675  -15.0504  -50.6792 C.ar      23 UNK        -0.1150 
     11 C11        -1.7468  -16.3955  -50.7040 C.ar      23 UNK        -0.0193 
     12 C12        -0.8170  -17.3752  -50.3496 C.ar      23 UNK        -0.1150 
     13 C13         0.4757  -17.0238  -49.9515 C.ar      23 UNK        -0.0193 
     14 C14         0.8414  -15.6752  -49.9239 C.ar      23 UNK        -0.1150 
     15 C15         1.4682  -18.1043  -49.5435 C.3       23 UNK        -0.0205 
     16 S16         1.6874  -18.2263  -47.7348 S.3       23 UNK        -0.2404 
     17 C17        -0.0272  -18.3403  -47.1206 C.3       23 UNK        -0.0398 
     18 CA         -0.7582  -19.6429  -47.5234 C.3       11 UNK         0.1400 
     19 N          -0.1282  -20.8319  -46.9333 N.am      11 UNK        -0.5000 
     20 C           0.5873  -21.7275  -47.6312 C.2       10 UNK         0.5000 
     21 O           0.6841  -21.7120  -48.8571 O.2       10 UNK        -0.5000 
     22 CA          1.3675  -22.8092  -46.8561 C.3       10 UNK         0.1400 
     23 CB          2.8762  -22.5234  -46.9220 C.3       10 UNK        -0.1800 
     24 N           0.9816  -22.9227  -45.4520 N.am      10 UNK        -0.5000 
     25 C          -0.0970  -23.5774  -45.0093 C.2       9 UNK         0.5000 
     26 O          -0.8651  -24.2007  -45.7428 O.2       9 UNK        -0.5000 
     27 CA         -0.3899  -23.4966  -43.4969 C.3       9 UNK         0.1400 
     28 CB          0.1357  -24.7519  -42.7855 C.3       9 UNK        -0.1800 
     29 N           0.1463  -22.3048  -42.8235 N.am      9 UNK        -0.5000 
     30 C          -0.1536  -21.0402  -43.1448 C.2       8 UNK         0.5000 
     31 O          -0.8393  -20.7334  -44.1220 O.2       8 UNK        -0.5000 
     32 CA          0.4387  -19.9318  -42.2689 C.3       8 UNK         0.1400 
     33 CB          1.8122  -19.4923  -42.8020 C.3       8 UNK        -0.1800 
     34 N          -0.4766  -18.7984  -42.3039 N.am      8 UNK        -0.5000 
     35 C          -0.7427  -17.9652  -41.2955 C.2       7 UNK         0.5000 
     36 O          -0.1872  -18.0260  -40.1969 O.2       7 UNK        -0.5000 
     37 CA         -1.7977  -16.8772  -41.5846 C.3       7 UNK         0.1400 
     38 CB         -2.1326  -16.0245  -40.3479 C.3       7 UNK        -0.1800 
     39 N          -1.3647  -16.0000  -42.6748 N.am      7 UNK        -0.5000 
     40 C          -1.4987  -16.2780  -43.9805 C.2       6 UNK         0.5000 
     41 O          -2.0105  -17.3226  -44.3852 O.2       6 UNK        -0.5000 
     42 CA         -0.9295  -15.2766  -45.0103 C.3       6 UNK         0.1400 
     43 CB         -1.8690  -15.0750  -46.2188 C.3       6 UNK        -0.1800 
     44 N          -0.4985  -13.9930  -44.4455 N.am      6 UNK        -0.5000 
     45 C          -1.2591  -13.0325  -43.8974 C.2       5 UNK         0.5000 
     46 O          -2.4883  -13.0794  -43.8351 O.2       5 UNK        -0.5000 
     47 CA         -0.4981  -11.8307  -43.2892 C.3       5 UNK         0.1400 
     48 CB         -1.3359  -11.0625  -42.2454 C.3       5 UNK        -0.1800 
     49 N           0.8148  -12.1894  -42.7272 N.am      5 UNK        -0.5000 
     50 C           1.0401  -13.1022  -41.7686 C.2       4 UNK         0.5000 
     51 O           0.1429  -13.7729  -41.2586 O.2       4 UNK        -0.5000 
     52 CA          2.4944  -13.3304  -41.3225 C.3       4 UNK         0.1400 
     53 CB          2.7270  -14.7707  -40.8172 C.3       4 UNK        -0.1800 
     54 N           3.4555  -13.0246  -42.3834 N.am      4 UNK        -0.5000 
     55 C           4.7239  -12.6587  -42.1568 C.2       3 UNK         0.5000 
     56 O           5.1730  -12.3956  -41.0401 O.2       3 UNK        -0.5000 
     57 CA          5.6606  -12.6068  -43.3735 C.3       3 UNK         0.1400 
     58 CB          6.0123  -14.0272  -43.8450 C.3       3 UNK        -0.1800 
     59 N           5.0933  -11.8521  -44.4878 N.am      3 UNK        -0.5000 
     60 C           5.1234  -10.5166  -44.5928 C.2       2 UNK         0.5000 
     61 O           5.5854   -9.7722  -43.7274 O.2       2 UNK        -0.5000 
     62 CA          4.5701   -9.9077  -45.8961 C.3       2 UNK         0.1400 
     63 CB          5.7136   -9.6319  -46.8847 C.3       2 UNK        -0.1800 
     64 N           3.5799  -10.7689  -46.5453 N.am      2 UNK        -0.5000 
     65 C           2.3029  -10.8622  -46.1529 C.2       1 UNK         0.5000 
     66 O           1.8233  -10.2016  -45.2318 O.2       1 UNK        -0.5000 
     67 C          -2.2606  -19.5321  -47.1983 C.2       11 UNK         0.5000 
     68 O          -2.9983  -18.9499  -47.9934 O.2       11 UNK        -0.5000 
     69 N          -2.6957  -20.0931  -46.0642 N.am      12 UNK        -0.5000 
     70 CA         -4.0800  -20.0961  -45.5926 C.3       12 UNK         0.1400 
     71 CB         -4.1425  -20.6891  -44.1747 C.3       12 UNK        -0.1800 
     72 C          -5.1199  -20.7620  -46.5292 C.2       12 UNK         0.5000 
     73 O          -6.1955  -20.1873  -46.6907 O.2       12 UNK        -0.5000 
     74 N          -4.8760  -21.9252  -47.1532 N.am      13 UNK        -0.5000 
     75 CA         -3.7529  -22.8460  -47.0084 C.3       13 UNK         0.1400 
     76 CB         -2.9509  -22.8686  -48.3211 C.3       13 UNK        -0.1800 
     77 C          -4.2938  -24.2528  -46.7278 C.2       13 UNK         0.5000 
     78 O          -5.3885  -24.5977  -47.1796 O.2       13 UNK        -0.5000 
     79 N          -3.4776  -25.0534  -46.0373 N.am      14 UNK        -0.5000 
     80 CA         -3.6165  -26.5052  -45.9516 C.3       14 UNK         0.1400 
     81 CB         -2.9468  -26.9981  -44.6601 C.3       14 UNK        -0.1800 
     82 C          -2.9803  -27.1790  -47.1827 C.2       14 UNK         0.5000 
     83 O          -3.4247  -28.2550  -47.5838 O.2       14 UNK        -0.5000 
     84 N          -1.9645  -26.5242  -47.7682 N.am      15 UNK        -0.5000 
     85 CA         -1.3440  -26.8840  -49.0396 C.3       15 UNK         0.1400 
     86 CB         -0.0838  -26.0268  -49.2422 C.3       15 UNK        -0.1800 
     87 C          -2.3411  -26.6898  -50.1959 C.2       15 UNK         0.5000 
     88 O          -2.7224  -25.5538  -50.4876 O.2       15 UNK        -0.5000 
     89 N          -2.7554  -27.8006  -50.8184 N.am      16 UNK        -0.5000 
     90 CA         -3.8028  -27.8501  -51.8418 C.3       16 UNK         0.1400 
     91 CB         -4.0651  -29.3127  -52.2300 C.3       16 UNK        -0.1800 
     92 C          -3.5019  -27.0062  -53.0926 C.2       16 UNK         0.5000 
     93 O          -4.4180  -26.3969  -53.6422 O.2       16 UNK        -0.5000 
     94 N          -2.2258  -26.9571  -53.4990 N.am      17 UNK        -0.5000 
     95 CA         -1.7534  -26.1611  -54.6330 C.3       17 UNK         0.1400 
     96 CB         -0.2960  -26.5321  -54.9459 C.3       17 UNK        -0.1800 
     97 C          -1.8913  -24.6470  -54.3929 C.2       17 UNK         0.5000 
     98 O          -2.3090  -23.9236  -55.2967 O.2       17 UNK        -0.5000 
     99 N          -1.5728  -24.2022  -53.1694 N.am      18 UNK        -0.5000 
    100 CA        -1.7177  -22.8116  -52.7416 C.3       18 UNK         0.1400 
    101 CB        -0.9307  -22.5823  -51.4464 C.3       18 UNK        -0.1800 
    102 C         -3.1926  -22.4218  -52.5644 C.2       18 UNK         0.5000 
    103 O         -3.5849  -21.3341  -52.9848 O.2       18 UNK        -0.5000 
    104 N         -3.9928  -23.3357  -51.9964 N.am      19 UNK        -0.5000 
    105 CA        -5.4404  -23.1862  -51.8494 C.3       19 UNK         0.1400 
    106 CB        -6.0019  -24.3601  -51.0336 C.3       19 UNK        -0.1800 
    107 C         -6.1578  -23.0598  -53.2070 C.2       19 UNK         0.5000 
    108 O         -7.0058  -22.1816  -53.3644 O.2       19 UNK        -0.5000 
    109 N         -5.7717  -23.9017  -54.1763 N.am      20 UNK        -0.5000 
    110 CA        -6.2675  -23.8668  -55.5527 C.3       20 UNK         0.1400 
    111 CB        -5.7801  -25.1139  -56.3057 C.3       20 UNK        -0.1800 
    112 C         -5.8661  -22.5873  -56.3105 C.2       20 UNK         0.5000 
    113 O         -6.6675  -22.0775  -57.0944 O.2       20 UNK        -0.5000 
    114 N         -4.6455  -22.0907  -56.0643 N.am      21 UNK        -0.5000 
    115 CA        -4.1246  -20.8568  -56.6511 C.3       21 UNK         0.1400 
    116 CB        -2.6045  -20.7798  -56.4384 C.3       21 UNK        -0.1800 
    117 C         -4.8222  -19.6005  -56.0997 C.2       21 UNK         0.5000 
    118 O         -5.2470  -18.7516  -56.8854 O.2       21 UNK        -0.5000 
    119 N         -4.9220  -19.5014  -54.7684 N.am      22 UNK        -0.5000 
    120 CA        -5.5435  -18.3637  -54.0722 C.3       22 UNK         0.1400 
    121 C         -7.0980  -18.3778  -54.0890 C.2       22 UNK         0.5000 
    122 N         -7.7581  -19.5254  -54.1746 N.am      22 UNK        -0.7600 
    123 O         -7.7197  -17.3203  -54.0323 O.2       22 UNK        -0.5000 
    124 C124       -5.0104  -18.2138  -52.6268 C.3       23 UNK        -0.0398 
    125 S125       -3.2344  -17.7932  -52.5872 S.3       23 UNK        -0.2404 
    126 C126       -3.1691  -16.7960  -51.0667 C.3       23 UNK        -0.0205 
    127 H127        4.4130  -15.0945  -46.4355 H         1 UNK         0.0600 
    128 H128        3.1715  -15.4586  -47.6365 H         1 UNK         0.0600 
    129 H129        3.0187  -16.0840  -45.9931 H         1 UNK         0.0600 
    130 H130        2.3099  -13.4022  -48.0817 H         1 UNK         0.3000 
    131 H131        0.5977  -12.1292  -46.2102 H         1 UNK         0.0600 
    132 H132        0.3753  -10.3358  -47.9751 H         1 UNK         0.0800 
    133 H133        1.5934  -11.1369  -48.9303 H         1 UNK         0.0800 
    134 H134        0.0323  -12.7253  -51.1654 H         1 UNK         0.0800 
    135 H135        1.4009  -13.1196  -50.1575 H         1 UNK         0.0800 
    136 H136       -2.0814  -14.2834  -50.9449 H         1 UNK         0.1150 
    137 H137       -1.1140  -18.4133  -50.3783 H         1 UNK         0.1150 
    138 H138        1.8398  -15.4021  -49.6158 H         1 UNK         0.1150 
    139 H139        1.1594  -19.0758  -49.9326 H         1 UNK         0.0800 
    140 H140        2.4368  -17.8951  -49.9993 H         1 UNK         0.0800 
    141 H141       -0.5666  -17.4626  -47.4758 H         1 UNK         0.0800 
    142 H142        0.0033  -18.2541  -46.0335 H         1 UNK         0.0800 
    143 H143       -0.7242  -19.7252  -48.6089 H         1 UNK         0.0600 
    144 H144       -0.1805  -20.9157  -45.9242 H         1 UNK         0.3000 
    145 H145        1.1808  -23.7641  -47.3521 H         1 UNK         0.0600 
    146 H146        3.4492  -23.3079  -46.4274 H         1 UNK         0.0600 
    147 H147        3.2210  -22.4742  -47.9558 H         1 UNK         0.0600 
    148 H148        3.1259  -21.5729  -46.4483 H         1 UNK         0.0600 
    149 H149        1.5579  -22.4379  -44.7805 H         1 UNK         0.3000 
    150 H150       -1.4760  -23.4724  -43.3861 H         1 UNK         0.0600 
    151 H151        1.2243  -24.8084  -42.8231 H         1 UNK         0.0600 
    152 H152       -0.2550  -25.6594  -43.2468 H         1 UNK         0.0600 
    153 H153       -0.1662  -24.7677  -41.7381 H         1 UNK         0.0600 
    154 H154        0.7375  -22.4762  -42.0226 H         1 UNK         0.3000 
    155 H155        0.5374  -20.3056  -41.2477 H         1 UNK         0.0600 
    156 H156        2.2334  -18.6934  -42.1913 H         1 UNK         0.0600 
    157 H157        1.7477  -19.1281  -43.8286 H         1 UNK         0.0600 
    158 H158        2.5222  -20.3200  -42.7890 H         1 UNK         0.0600 
    159 H159       -1.0023  -18.6989  -43.1679 H         1 UNK         0.3000 
    160 H160       -2.7164  -17.3872  -41.8825 H         1 UNK         0.0600 
    161 H161       -1.2483  -15.5353  -39.9392 H         1 UNK         0.0600 
    162 H162       -2.5582  -16.6411  -39.5555 H         1 UNK         0.0600 
    163 H163       -2.8629  -15.2512  -40.5868 H         1 UNK         0.0600 
    164 H164       -0.8942  -15.1458  -42.3943 H         1 UNK         0.3000 
    165 H165       -0.0200  -15.7448  -45.3886 H         1 UNK         0.0600 
    166 H166       -2.1575  -16.0252  -46.6678 H         1 UNK         0.0600 
    167 H167       -2.7921  -14.5665  -45.9428 H         1 UNK         0.0600 
    168 H168       -1.3817  -14.4899  -46.9972 H         1 UNK         0.0600 
    169 H169        0.5074  -13.8532  -44.4281 H         1 UNK         0.3000 
    170 H170       -0.3120  -11.1468  -44.1160 H         1 UNK         0.0600 
    171 H171       -2.2511  -10.6693  -42.6893 H         1 UNK         0.0600 
    172 H172       -1.6259  -11.6998  -41.4094 H         1 UNK         0.0600 
    173 H173       -0.7824  -10.2136  -41.8440 H         1 UNK         0.0600 
    174 H174        1.6055  -11.6889  -43.1100 H         1 UNK         0.3000 
    175 H175        2.6538  -12.6445  -40.4882 H         1 UNK         0.0600 
    176 H176        3.7458  -14.9074  -40.4547 H         1 UNK         0.0600 
    177 H177        2.0602  -15.0149  -39.9893 H         1 UNK         0.0600 
    178 H178        2.5519  -15.5020  -41.6074 H         1 UNK         0.0600 
    179 H179        3.1566  -13.2410  -43.3325 H         1 UNK         0.3000 
    180 H180        6.5894  -12.1238  -43.0612 H         1 UNK         0.0600 
    181 H181        5.1267  -14.5863  -44.1478 H         1 UNK         0.0600 
    182 H182        6.4952  -14.5920  -43.0465 H         1 UNK         0.0600 
    183 H183        6.7018  -14.0049  -44.6890 H         1 UNK         0.0600 
    184 H184        4.6645  -12.3839  -45.2288 H         1 UNK         0.3000 
    185 H185        4.1027   -8.9531  -45.6446 H         1 UNK         0.0600 
    186 H186        6.4601   -8.9699  -46.4436 H         1 UNK         0.0600 
    187 H187        6.2228  -10.5503  -47.1796 H         1 UNK         0.0600 
    188 H188        5.3449   -9.1466  -47.7886 H         1 UNK         0.0600 
    189 H189        3.9037  -11.3467  -47.3073 H         1 UNK         0.3000 
    190 H190       -2.0115  -20.4683  -45.4124 H         1 UNK         0.3000 
    191 H191       -4.3696  -19.0463  -45.5088 H         1 UNK         0.0600 
    192 H192       -3.5494  -20.0954  -43.4785 H         1 UNK         0.0600 
    193 H193       -5.1663  -20.6986  -43.7988 H         1 UNK         0.0600 
    194 H194       -3.7699  -21.7125  -44.1386 H         1 UNK         0.0600 
    195 H195       -5.6275  -22.3191  -47.7014 H         1 UNK         0.3000 
    196 H196       -3.1006  -22.5702  -46.1827 H         1 UNK         0.0600 
    197 H197       -2.0567  -23.4837  -48.2221 H         1 UNK         0.0600 
    198 H198       -2.6266  -21.8762  -48.6255 H         1 UNK         0.0600 
    199 H199       -3.5386  -23.2789  -49.1421 H         1 UNK         0.0600 
    200 H200       -2.5705  -24.6858  -45.7562 H         1 UNK         0.3000 
    201 H201       -4.6747  -26.7733  -45.9193 H         1 UNK         0.0600 
    202 H202       -3.0719  -28.0754  -44.5438 H         1 UNK         0.0600 
    203 H203       -1.8765  -26.7900  -44.6582 H         1 UNK         0.0600 
    204 H204       -3.3835  -26.5222  -43.7820 H         1 UNK         0.0600 
    205 H205       -1.6566  -25.6560  -47.3526 H         1 UNK         0.3000 
    206 H206       -1.0420  -27.9323  -48.9937 H         1 UNK         0.0600 
    207 H207        0.6458  -26.2088  -48.4529 H         1 UNK         0.0600 
    208 H208        0.3993  -26.2595  -50.1919 H         1 UNK         0.0600 
    209 H209       -0.3125  -24.9607  -49.2428 H         1 UNK         0.0600 
    210 H210       -2.4037  -28.6920  -50.5000 H         1 UNK         0.3000 
    211 H211       -4.7143  -27.4521  -51.3920 H         1 UNK         0.0600 
    212 H212       -3.1756  -29.7844  -52.6495 H         1 UNK         0.0600 
    213 H213       -4.8573  -29.3826  -52.9768 H         1 UNK         0.0600 
    214 H214       -4.3820  -29.8992  -51.3673 H         1 UNK         0.0600 
    215 H215       -1.5357  -27.4868  -52.9875 H         1 UNK         0.3000 
    216 H216       -2.3639  -26.4155  -55.5021 H         1 UNK         0.0600 
    217 H217        0.0766  -25.9623  -55.7983 H         1 UNK         0.0600 
    218 H218       -0.2037  -27.5887  -55.1977 H         1 UNK         0.0600 
    219 H219        0.3635  -26.3288  -54.1013 H         1 UNK         0.0600 
    220 H220       -1.2996  -24.8696  -52.4632 H         1 UNK         0.3000 
    221 H221       -1.2915  -22.1666  -53.5129 H         1 UNK         0.0600 
    222 H222       -1.2828  -23.2249  -50.6407 H         1 UNK         0.0600 
    223 H223        0.1322  -22.7778  -51.5882 H         1 UNK         0.0600 
    224 H224       -1.0285  -21.5499  -51.1074 H         1 UNK         0.0600 
    225 H225       -3.5798  -24.1927  -51.6405 H         1 UNK         0.3000 
    226 H226       -5.6211  -22.2663  -51.2894 H         1 UNK         0.0600 
    227 H227       -7.0709  -24.2355  -50.8579 H         1 UNK         0.0600 
    228 H228       -5.8633  -25.3107  -51.5477 H         1 UNK         0.0600 
    229 H229       -5.5185  -24.4347  -50.0595 H         1 UNK         0.0600 
    230 H230       -5.1061  -24.6372  -53.9539 H         1 UNK         0.3000 
    231 H231       -7.3583  -23.8991  -55.5147 H         1 UNK         0.0600 
    232 H232       -4.6910  -25.1642  -56.3369 H         1 UNK         0.0600 
    233 H233       -6.1400  -25.1162  -57.3353 H         1 UNK         0.0600 
    234 H234       -6.1435  -26.0263  -55.8327 H         1 UNK         0.0600 
    235 H235       -4.0261  -22.5975  -55.4434 H         1 UNK         0.3000 
    236 H236       -4.3072  -20.8924  -57.7272 H         1 UNK         0.0600 
    237 H237       -2.1944  -19.8707  -56.8797 H         1 UNK         0.0600 
    238 H238       -2.3429  -20.7770  -55.3801 H         1 UNK         0.0600 
    239 H239       -2.0984  -21.6247  -56.9055 H         1 UNK         0.0600 
    240 H240       -4.5148  -20.2241  -54.1793 H         1 UNK         0.3000 
    241 H241       -5.2552  -17.4571  -54.6086 H         1 UNK         0.0600 
    242 H242       -7.2801  -20.4197  -54.1206 H         1 UNK         0.3800 
    243 H243       -8.7649  -19.5100  -54.1927 H         1 UNK         0.3800 
    244 H244       -5.1679  -19.1337  -52.0609 H         1 UNK         0.0800 
    245 H245       -5.5601  -17.4312  -52.1003 H         1 UNK         0.0800 
    246 H246       -3.7980  -15.9129  -51.1893 H         1 UNK         0.0800 
    247 H247       -3.5940  -17.3696  -50.2414 H         1 UNK         0.0800 
@<TRIPOS>BOND
     1    1    2 1    
     2    1  127 1    
     3    1  128 1    
     4    1  129 1    
     5    2    3 2    
     6    2    4 am   BACKBONE|DICT|INTERRES
     7    4    5 1    
     8    4  130 1    
     9    5    6 1    
    10    5   65 1    
    11    5  131 1    
    12    6    7 1    
    13    6  132 1    
    14    6  133 1    
    15    7    8 1    
    16    8    9 1    
    17    8  134 1    
    18    8  135 1    
    19    9   10 ar   
    20    9   14 ar   
    21   10   11 ar   
    22   10  136 1    
    23   11   12 ar   
    24   11  126 1    
    25   12   13 ar   
    26   12  137 1    
    27   13   14 ar   
    28   13   15 1    
    29   14  138 1    
    30   15   16 1    
    31   15  139 1    
    32   15  140 1    
    33   16   17 1    
    34   17   18 1    
    35   17  141 1    
    36   17  142 1    
    37   18   19 1    
    38   18   67 1    
    39   18  143 1    
    40   19   20 am   BACKBONE|DICT|INTERRES
    41   19  144 1    
    42   20   21 2    
    43   20   22 1    
    44   22   23 1    
    45   22   24 1    
    46   22  145 1    
    47   23  146 1    
    48   23  147 1    
    49   23  148 1    
    50   24   25 am   BACKBONE|DICT|INTERRES
    51   24  149 1    
    52   25   26 2    
    53   25   27 1    
    54   27   28 1    
    55   27   29 1    
    56   27  150 1    
    57   28  151 1    
    58   28  152 1    
    59   28  153 1    
    60   29   30 am   BACKBONE|DICT|INTERRES
    61   29  154 1    
    62   30   31 2    
    63   30   32 1    
    64   32   33 1    
    65   32   34 1    
    66   32  155 1    
    67   33  156 1    
    68   33  157 1    
    69   33  158 1    
    70   34   35 am   BACKBONE|DICT|INTERRES
    71   34  159 1    
    72   35   36 2    
    73   35   37 1    
    74   37   38 1    
    75   37   39 1    
    76   37  160 1    
    77   38  161 1    
    78   38  162 1    
    79   38  163 1    
    80   39   40 am   BACKBONE|DICT|INTERRES
    81   39  164 1    
    82   40   41 2    
    83   40   42 1    
    84   42   43 1    
    85   42   44 1    
    86   42  165 1    
    87   43  166 1    
    88   43  167 1    
    89   43  168 1    
    90   44   45 am   BACKBONE|DICT|INTERRES
    91   44  169 1    
    92   45   46 2    
    93   45   47 1    
    94   47   48 1    
    95   47   49 1    
    96   47  170 1    
    97   48  171 1    
    98   48  172 1    
    99   48  173 1    
   100   49   50 am   BACKBONE|DICT|INTERRES
   101   49  174 1    
   102   50   51 2    
   103   50   52 1    
   104   52   53 1    
   105   52   54 1    
   106   52  175 1    
   107   53  176 1    
   108   53  177 1    
   109   53  178 1    
   110   54   55 am   BACKBONE|DICT|INTERRES
   111   54  179 1    
   112   55   56 2    
   113   55   57 1    
   114   57   58 1    
   115   57   59 1    
   116   57  180 1    
   117   58  181 1    
   118   58  182 1    
   119   58  183 1    
   120   59   60 am   BACKBONE|DICT|INTERRES
   121   59  184 1    
   122   60   61 2    
   123   60   62 1    
   124   62   63 1    
   125   62   64 1    
   126   62  185 1    
   127   63  186 1    
   128   63  187 1    
   129   63  188 1    
   130   64   65 am   BACKBONE|DICT|INTERRES
   131   64  189 1    
   132   65   66 2    
   133   67   68 2    
   134   67   69 am   BACKBONE|DICT|INTERRES
   135   69   70 1    
   136   69  190 1    
   137   70   71 1    
   138   70   72 1    
   139   70  191 1    
   140   71  192 1    
   141   71  193 1    
   142   71  194 1    
   143   72   73 2    
   144   72   74 am   BACKBONE|DICT|INTERRES
   145   74   75 1    
   146   74  195 1    
   147   75   76 1    
   148   75   77 1    
   149   75  196 1    
   150   76  197 1    
   151   76  198 1    
   152   76  199 1    
   153   77   78 2    
   154   77   79 am   BACKBONE|DICT|INTERRES
   155   79   80 1    
   156   79  200 1    
   157   80   81 1    
   158   80   82 1    
   159   80  201 1    
   160   81  202 1    
   161   81  203 1    
   162   81  204 1    
   163   82   83 2    
   164   82   84 am   BACKBONE|DICT|INTERRES
   165   84   85 1    
   166   84  205 1    
   167   85   86 1    
   168   85   87 1    
   169   85  206 1    
   170   86  207 1    
   171   86  208 1    
   172   86  209 1    
   173   87   88 2    
   174   87   89 am   BACKBONE|DICT|INTERRES
   175   89   90 1    
   176   89  210 1    
   177   90   91 1    
   178   90   92 1    
   179   90  211 1    
   180   91  212 1    
   181   91  213 1    
   182   91  214 1    
   183   92   93 2    
   184   92   94 am   BACKBONE|DICT|INTERRES
   185   94   95 1    
   186   94  215 1    
   187   95   96 1    
   188   95   97 1    
   189   95  216 1    
   190   96  217 1    
   191   96  218 1    
   192   96  219 1    
   193   97   98 2    
   194   97   99 am   BACKBONE|DICT|INTERRES
   195   99  100 1    
   196   99  220 1    
   197  100  101 1    
   198  100  102 1    
   199  100  221 1    
   200  101  222 1    
   201  101  223 1    
   202  101  224 1    
   203  102  103 2    
   204  102  104 am   BACKBONE|DICT|INTERRES
   205  104  105 1    
   206  104  225 1    
   207  105  106 1    
   208  105  107 1    
   209  105  226 1    
   210  106  227 1    
   211  106  228 1    
   212  106  229 1    
   213  107  108 2    
   214  107  109 am   BACKBONE|DICT|INTERRES
   215  109  110 1    
   216  109  230 1    
   217  110  111 1    
   218  110  112 1    
   219  110  231 1    
   220  111  232 1    
   221  111  233 1    
   222  111  234 1    
   223  112  113 2    
   224  112  114 am   BACKBONE|DICT|INTERRES
   225  114  115 1    
   226  114  235 1    
   227  115  116 1    
   228  115  117 1    
   229  115  236 1    
   230  116  237 1    
   231  116  238 1    
   232  116  239 1    
   233  117  118 2    
   234  117  119 am   BACKBONE|DICT|INTERRES
   235  119  120 1    
   236  119  240 1    
   237  120  121 1    
   238  120  124 1    
   239  120  241 1    
   240  121  122 am   BACKBONE|DICT|INTERRES
   241  121  123 2    
   242  122  242 1    
   243  122  243 1    
   244  124  125 1    
   245  124  244 1    
   246  124  245 1    
   247  125  126 1    
   248  126  246 1    
   249  126  247 1    
@<TRIPOS>SUBSTRUCTURE
     1 UNK         1 GROUP             0       ****    0 ROOT    
