@<TRIPOS>MOLECULE
3R540
247   249    1
SMALL
USER_CHARGES


@<TRIPOS>ATOM
      1 CA         -0.3944   -9.3842  -47.3923 C.3       0 UNK        -0.1800 
      2 C           0.0974  -10.2678  -46.2565 C.2       0 UNK         0.5000 
      3 O           1.2519  -10.1509  -45.8459 O.2       0 UNK        -0.5000 
      4 N          -0.7774  -11.1359  -45.7308 N.am      1 UNK        -0.5000 
      5 CA         -0.5036  -12.1374  -44.6856 C.3       1 UNK         0.1400 
      6 C6         -1.7198  -13.0725  -44.4750 C.3       23 UNK        -0.0398 
      7 S7         -1.7801  -14.3692  -45.7485 S.3       23 UNK        -0.2404 
      8 C8         -3.1324  -13.8339  -46.8360 C.3       23 UNK        -0.0205 
      9 C9         -3.4377  -14.9476  -47.8222 C.ar      23 UNK        -0.0193 
     10 C10        -2.7026  -15.0649  -49.0040 C.ar      23 UNK        -0.1150 
     11 C11        -2.8959  -16.1578  -49.8538 C.ar      23 UNK        -0.0193 
     12 C12        -3.8387  -17.1333  -49.5155 C.ar      23 UNK        -0.1150 
     13 C13        -4.5993  -17.0144  -48.3482 C.ar      23 UNK        -0.0193 
     14 C14        -4.4046  -15.9071  -47.5153 C.ar      23 UNK        -0.1150 
     15 C15        -5.6040  -18.1041  -47.9852 C.3       23 UNK        -0.0205 
     16 S16        -5.5652  -18.5979  -46.2254 S.3       23 UNK        -0.2404 
     17 C17        -3.8086  -19.0337  -45.9788 C.3       23 UNK        -0.0398 
     18 CA         -3.4984  -20.5071  -46.3241 C.3       11 UNK         0.1400 
     19 N          -2.0763  -20.7098  -46.6188 N.am      11 UNK        -0.5000 
     20 C          -1.5263  -21.8506  -47.0556 C.2       10 UNK         0.5000 
     21 O          -2.1740  -22.8676  -47.2958 O.2       10 UNK        -0.5000 
     22 CA          0.0040  -21.8836  -47.2033 C.3       10 UNK         0.1400 
     23 CB          0.4444  -21.2167  -48.5148 C.3       10 UNK        -0.1800 
     24 N           0.6778  -21.2639  -46.0614 N.am      10 UNK        -0.5000 
     25 C           0.6337  -21.7536  -44.8129 C.2       9 UNK         0.5000 
     26 O           0.0958  -22.8213  -44.5198 O.2       9 UNK        -0.5000 
     27 CA          1.2501  -20.8908  -43.6963 C.3       9 UNK         0.1400 
     28 CB          2.7680  -21.1079  -43.6128 C.3       9 UNK        -0.1800 
     29 N           0.9633  -19.4646  -43.8559 N.am      9 UNK        -0.5000 
     30 C          -0.2621  -18.9212  -43.8143 C.2       8 UNK         0.5000 
     31 O          -1.2869  -19.5633  -43.5834 O.2       8 UNK        -0.5000 
     32 CA         -0.3663  -17.4210  -44.1489 C.3       8 UNK         0.1400 
     33 CB          0.0062  -16.5522  -42.9384 C.3       8 UNK        -0.1800 
     34 N           0.4628  -17.0511  -45.2965 N.am      8 UNK        -0.5000 
     35 C           0.2825  -17.5212  -46.5392 C.2       7 UNK         0.5000 
     36 O          -0.6250  -18.2878  -46.8556 O.2       7 UNK        -0.5000 
     37 CA          1.3336  -17.1285  -47.5885 C.3       7 UNK         0.1400 
     38 CB          1.0191  -15.7559  -48.2002 C.3       7 UNK        -0.1800 
     39 N           2.6818  -17.1355  -47.0199 N.am      7 UNK        -0.5000 
     40 C           3.3424  -18.2528  -46.6811 C.2       6 UNK         0.5000 
     41 O           2.9007  -19.3869  -46.8663 O.2       6 UNK        -0.5000 
     42 CA          4.7046  -18.0748  -45.9838 C.3       6 UNK         0.1400 
     43 CB          5.8237  -17.9009  -47.0211 C.3       6 UNK        -0.1800 
     44 N           4.7231  -16.9419  -45.0571 N.am      6 UNK        -0.5000 
     45 C           4.0099  -16.8753  -43.9236 C.2       5 UNK         0.5000 
     46 O           3.3039  -17.7939  -43.5106 O.2       5 UNK        -0.5000 
     47 CA          4.0515  -15.5418  -43.1496 C.3       5 UNK         0.1400 
     48 CB          5.1816  -15.5551  -42.1104 C.3       5 UNK        -0.1800 
     49 N           4.2046  -14.3689  -44.0155 N.am      5 UNK        -0.5000 
     50 C           3.3497  -14.0137  -44.9819 C.2       4 UNK         0.5000 
     51 O           2.3091  -14.6280  -45.2242 O.2       4 UNK        -0.5000 
     52 CA          3.7470  -12.7863  -45.8220 C.3       4 UNK         0.1400 
     53 CB          2.9706  -12.7078  -47.1483 C.3       4 UNK        -0.1800 
     54 N           3.5513  -11.5430  -45.0812 N.am      4 UNK        -0.5000 
     55 C           4.3785  -11.0576  -44.1453 C.2       3 UNK         0.5000 
     56 O           5.4012  -11.6386  -43.7778 O.2       3 UNK        -0.5000 
     57 CA          4.0088   -9.7042  -43.5152 C.3       3 UNK         0.1400 
     58 CB          4.4429   -8.5498  -44.4322 C.3       3 UNK        -0.1800 
     59 N           2.5697   -9.6070  -43.2738 N.am      3 UNK        -0.5000 
     60 C           1.9946   -9.4912  -42.0684 C.2       2 UNK         0.5000 
     61 O           2.6237   -9.3871  -41.0145 O.2       2 UNK        -0.5000 
     62 CA          0.4507   -9.5035  -42.0227 C.3       2 UNK         0.1400 
     63 CB         -0.0984   -8.0687  -42.0217 C.3       2 UNK        -0.1800 
     64 N          -0.1523  -10.2421  -43.1339 N.am      2 UNK        -0.5000 
     65 C          -0.0125  -11.5594  -43.3382 C.2       1 UNK         0.5000 
     66 O           0.5170  -12.3142  -42.5218 O.2       1 UNK        -0.5000 
     67 C          -4.0136  -21.4712  -45.2352 C.2       11 UNK         0.5000 
     68 O          -5.0657  -22.0847  -45.4180 O.2       11 UNK        -0.5000 
     69 N          -3.2264  -21.6504  -44.1643 N.am      12 UNK        -0.5000 
     70 CA         -3.4764  -22.6154  -43.0888 C.3       12 UNK         0.1400 
     71 CB         -2.4520  -22.3959  -41.9657 C.3       12 UNK        -0.1800 
     72 C          -3.4655  -24.0858  -43.5598 C.2       12 UNK         0.5000 
     73 O          -4.1205  -24.9242  -42.9406 O.2       12 UNK        -0.5000 
     74 N          -2.7651  -24.3616  -44.6673 N.am      13 UNK        -0.5000 
     75 CA         -2.7374  -25.6419  -45.3732 C.3       13 UNK         0.1400 
     76 CB         -1.3074  -25.8899  -45.8871 C.3       13 UNK        -0.1800 
     77 C          -3.7788  -25.7018  -46.5139 C.2       13 UNK         0.5000 
     78 O          -3.6059  -26.4878  -47.4454 O.2       13 UNK        -0.5000 
     79 N          -4.8313  -24.8716  -46.4403 N.am      14 UNK        -0.5000 
     80 CA         -5.9447  -24.7532  -47.3890 C.3       14 UNK         0.1400 
     81 CB         -6.7761  -26.0531  -47.4303 C.3       14 UNK        -0.1800 
     82 C          -5.4801  -24.2869  -48.7823 C.2       14 UNK         0.5000 
     83 O          -5.8166  -24.9080  -49.7910 O.2       14 UNK        -0.5000 
     84 N          -4.6755  -23.2149  -48.7980 N.am      15 UNK        -0.5000 
     85 CA         -3.9991  -22.6322  -49.9644 C.3       15 UNK         0.1400 
     86 CB         -5.0159  -22.0160  -50.9456 C.3       15 UNK        -0.1800 
     87 C          -3.0387  -23.6424  -50.6240 C.2       15 UNK         0.5000 
     88 O          -3.0455  -23.8082  -51.8457 O.2       15 UNK        -0.5000 
     89 N          -2.2609  -24.3252  -49.7703 N.am      16 UNK        -0.5000 
     90 CA         -1.3522  -25.4332  -50.0753 C.3       16 UNK         0.1400 
     91 CB         -0.1306  -24.9189  -50.8655 C.3       16 UNK        -0.1800 
     92 C          -2.0840  -26.5944  -50.7793 C.2       16 UNK         0.5000 
     93 O          -1.6746  -27.0159  -51.8593 O.2       16 UNK        -0.5000 
     94 N          -3.1976  -27.0439  -50.1820 N.am      17 UNK        -0.5000 
     95 CA         -4.1594  -28.0142  -50.7222 C.3       17 UNK         0.1400 
     96 CB         -3.5470  -29.4296  -50.7427 C.3       17 UNK        -0.1800 
     97 C          -4.7294  -27.5785  -52.0918 C.2       17 UNK         0.5000 
     98 O          -4.8341  -28.3890  -53.0142 O.2       17 UNK        -0.5000 
     99 N          -5.0476  -26.2807  -52.1924 N.am      18 UNK        -0.5000 
    100 CA        -5.5029  -25.5376  -53.3703 C.3       18 UNK         0.1400 
    101 CB        -6.8902  -26.0357  -53.8243 C.3       18 UNK        -0.1800 
    102 C         -4.4867  -25.4750  -54.5337 C.2       18 UNK         0.5000 
    103 O         -4.8788  -25.1281  -55.6487 O.2       18 UNK        -0.5000 
    104 N         -3.2086  -25.7909  -54.2792 N.am      19 UNK        -0.5000 
    105 CA        -2.1483  -25.7875  -55.2885 C.3       19 UNK         0.1400 
    106 CB        -1.1331  -26.8973  -54.9732 C.3       19 UNK        -0.1800 
    107 C         -1.4326  -24.4304  -55.4156 C.2       19 UNK         0.5000 
    108 O         -0.6939  -24.2534  -56.3855 O.2       19 UNK        -0.5000 
    109 N         -1.6294  -23.5096  -54.4560 N.am      20 UNK        -0.5000 
    110 CA        -1.0159  -22.1757  -54.4472 C.3       20 UNK         0.1400 
    111 CB        -1.3263  -21.4249  -53.1403 C.3       20 UNK        -0.1800 
    112 C         -1.3089  -21.3239  -55.7068 C.2       20 UNK         0.5000 
    113 O         -0.3546  -20.8545  -56.3245 O.2       20 UNK        -0.5000 
    114 N         -2.5618  -21.1436  -56.1560 N.am      21 UNK        -0.5000 
    115 CA        -3.8336  -21.3492  -55.4513 C.3       21 UNK         0.1400 
    116 CB        -4.8773  -21.8265  -56.4722 C.3       21 UNK        -0.1800 
    117 C         -4.3178  -20.0549  -54.7619 C.2       21 UNK         0.5000 
    118 O         -5.2662  -20.1067  -53.9795 O.2       21 UNK        -0.5000 
    119 N         -3.6543  -18.9273  -55.0546 N.am      22 UNK        -0.5000 
    120 CA        -3.9717  -17.5696  -54.5879 C.3       22 UNK         0.1400 
    121 C         -5.3164  -17.0044  -55.1450 C.2       22 UNK         0.5000 
    122 N         -5.8038  -15.8891  -54.6179 N.am      22 UNK        -0.7600 
    123 O         -5.9034  -17.5363  -56.0853 O.2       22 UNK        -0.5000 
    124 C124       -3.8130  -17.4176  -53.0450 C.3       23 UNK        -0.0398 
    125 S125       -3.0155  -15.8351  -52.5996 S.3       23 UNK        -0.2404 
    126 C126       -2.0626  -16.2954  -51.1186 C.3       23 UNK        -0.0205 
    127 H127        0.2113   -9.5509  -48.2829 H         1 UNK         0.0600 
    128 H128       -0.3103   -8.3340  -47.1130 H         1 UNK         0.0600 
    129 H129       -1.4351   -9.5886  -47.6446 H         1 UNK         0.0600 
    130 H130       -1.7135  -11.1593  -46.1077 H         1 UNK         0.3000 
    131 H131        0.3325  -12.7402  -45.0453 H         1 UNK         0.0600 
    132 H132       -2.6550  -12.5114  -44.4478 H         1 UNK         0.0800 
    133 H133       -1.6611  -13.5969  -43.5192 H         1 UNK         0.0800 
    134 H134       -4.0176  -13.5977  -46.2436 H         1 UNK         0.0800 
    135 H135       -2.8473  -12.9232  -47.3644 H         1 UNK         0.0800 
    136 H136       -1.9537  -14.3224  -49.2415 H         1 UNK         0.1150 
    137 H137       -3.9755  -17.9889  -50.1610 H         1 UNK         0.1150 
    138 H138       -4.9708  -15.8170  -46.5991 H         1 UNK         0.1150 
    139 H139       -6.6059  -17.7479  -48.2272 H         1 UNK         0.0800 
    140 H140       -5.4383  -18.9943  -48.5941 H         1 UNK         0.0800 
    141 H141       -3.5336  -18.8042  -44.9482 H         1 UNK         0.0800 
    142 H142       -3.1968  -18.3707  -46.5883 H         1 UNK         0.0800 
    143 H143       -4.0285  -20.7496  -47.2468 H         1 UNK         0.0600 
    144 H144       -1.4739  -19.8971  -46.5042 H         1 UNK         0.3000 
    145 H145        0.3091  -22.9314  -47.2431 H         1 UNK         0.0600 
    146 H146        1.5239  -21.2880  -48.6487 H         1 UNK         0.0600 
    147 H147       -0.0231  -21.7006  -49.3734 H         1 UNK         0.0600 
    148 H148        0.1735  -20.1620  -48.5473 H         1 UNK         0.0600 
    149 H149        1.1888  -20.4060  -46.2375 H         1 UNK         0.3000 
    150 H150        0.8099  -21.2122  -42.7501 H         1 UNK         0.0600 
    151 H151        3.0041  -22.1627  -43.4669 H         1 UNK         0.0600 
    152 H152        3.1989  -20.5592  -42.7752 H         1 UNK         0.0600 
    153 H153        3.2729  -20.7808  -44.5217 H         1 UNK         0.0600 
    154 H154        1.7635  -18.8524  -43.9875 H         1 UNK         0.3000 
    155 H155       -1.4048  -17.2088  -44.4114 H         1 UNK         0.0600 
    156 H156       -0.6787  -16.7306  -42.1088 H         1 UNK         0.0600 
    157 H157       -0.0438  -15.4908  -43.1818 H         1 UNK         0.0600 
    158 H158        1.0132  -16.7644  -42.5812 H         1 UNK         0.0600 
    159 H159        1.2072  -16.3816  -45.1358 H         1 UNK         0.3000 
    160 H160        1.2990  -17.8674  -48.3919 H         1 UNK         0.0600 
    161 H161        0.9508  -14.9762  -47.4420 H         1 UNK         0.0600 
    162 H162        0.0627  -15.7823  -48.7211 H         1 UNK         0.0600 
    163 H163        1.7763  -15.4601  -48.9260 H         1 UNK         0.0600 
    164 H164        3.0718  -16.2388  -46.7689 H         1 UNK         0.3000 
    165 H165        4.9069  -18.9833  -45.4126 H         1 UNK         0.0600 
    166 H166        6.8015  -17.8510  -46.5417 H         1 UNK         0.0600 
    167 H167        5.8459  -18.7423  -47.7150 H         1 UNK         0.0600 
    168 H168        5.6912  -16.9927  -47.6105 H         1 UNK         0.0600 
    169 H169        5.2851  -16.1454  -45.3182 H         1 UNK         0.3000 
    170 H170        3.1019  -15.4384  -42.6211 H         1 UNK         0.0600 
    171 H171        5.0800  -16.4048  -41.4339 H         1 UNK         0.0600 
    172 H172        6.1622  -15.6258  -42.5827 H         1 UNK         0.0600 
    173 H173        5.1668  -14.6516  -41.5005 H         1 UNK         0.0600 
    174 H174        5.0009  -13.7669  -43.8414 H         1 UNK         0.3000 
    175 H175        4.8059  -12.8831  -46.0713 H         1 UNK         0.0600 
    176 H176        1.8943  -12.6425  -46.9882 H         1 UNK         0.0600 
    177 H177        3.2733  -11.8382  -47.7318 H         1 UNK         0.0600 
    178 H178        3.1584  -13.5900  -47.7607 H         1 UNK         0.0600 
    179 H179        2.7267  -11.0054  -45.3392 H         1 UNK         0.3000 
    180 H180        4.5643   -9.6196  -42.5790 H         1 UNK         0.0600 
    181 H181        3.9172   -8.5740  -45.3878 H         1 UNK         0.0600 
    182 H182        5.5122   -8.5975  -44.6422 H         1 UNK         0.0600 
    183 H183        4.2454   -7.5841  -43.9667 H         1 UNK         0.0600 
    184 H184        1.9721   -9.7015  -44.0888 H         1 UNK         0.3000 
    185 H185        0.1507   -9.9874  -41.0908 H         1 UNK         0.0600 
    186 H186        0.3104   -7.4948  -41.1890 H         1 UNK         0.0600 
    187 H187        0.1562   -7.5400  -42.9412 H         1 UNK         0.0600 
    188 H188       -1.1836   -8.0611  -41.9181 H         1 UNK         0.0600 
    189 H189       -0.5986   -9.6942  -43.8547 H         1 UNK         0.3000 
    190 H190       -2.3960  -21.0712  -44.0686 H         1 UNK         0.3000 
    191 H191       -4.4706  -22.4101  -42.6871 H         1 UNK         0.0600 
    192 H192       -1.4337  -22.5781  -42.3086 H         1 UNK         0.0600 
    193 H193       -2.4983  -21.3761  -41.5830 H         1 UNK         0.0600 
    194 H194       -2.6411  -23.0672  -41.1272 H         1 UNK         0.0600 
    195 H195       -2.2609  -23.6064  -45.1144 H         1 UNK         0.3000 
    196 H196       -2.9840  -26.4472  -44.6788 H         1 UNK         0.0600 
    197 H197       -0.5848  -25.8468  -45.0720 H         1 UNK         0.0600 
    198 H198       -1.0105  -25.1518  -46.6316 H         1 UNK         0.0600 
    199 H199       -1.2174  -26.8750  -46.3463 H         1 UNK         0.0600 
    200 H200       -4.8516  -24.2042  -45.6787 H         1 UNK         0.3000 
    201 H201       -6.5921  -23.9638  -47.0045 H         1 UNK         0.0600 
    202 H202       -7.6691  -25.9238  -48.0428 H         1 UNK         0.0600 
    203 H203       -7.1065  -26.3410  -46.4324 H         1 UNK         0.0600 
    204 H204       -6.2126  -26.8865  -47.8505 H         1 UNK         0.0600 
    205 H205       -4.3821  -22.8505  -47.9017 H         1 UNK         0.3000 
    206 H206       -3.3753  -21.8186  -49.5925 H         1 UNK         0.0600 
    207 H207       -5.6448  -21.2781  -50.4478 H         1 UNK         0.0600 
    208 H208       -5.6690  -22.7681  -51.3867 H         1 UNK         0.0600 
    209 H209       -4.5071  -21.5065  -51.7632 H         1 UNK         0.0600 
    210 H210       -2.3355  -24.0761  -48.7881 H         1 UNK         0.3000 
    211 H211       -0.9957  -25.8215  -49.1205 H         1 UNK         0.0600 
    212 H212        0.3757  -24.1165  -50.3292 H         1 UNK         0.0600 
    213 H213        0.5970  -25.7163  -51.0200 H         1 UNK         0.0600 
    214 H214       -0.4117  -24.5394  -51.8484 H         1 UNK         0.0600 
    215 H215       -3.4329  -26.6677  -49.2650 H         1 UNK         0.3000 
    216 H216       -5.0022  -28.0263  -50.0295 H         1 UNK         0.0600 
    217 H217       -4.2910  -30.1729  -51.0310 H         1 UNK         0.0600 
    218 H218       -2.7198  -29.5032  -51.4494 H         1 UNK         0.0600 
    219 H219       -3.1731  -29.7102  -49.7581 H         1 UNK         0.0600 
    220 H220       -4.9767  -25.7212  -51.3467 H         1 UNK         0.3000 
    221 H221       -5.6223  -24.5071  -53.0354 H         1 UNK         0.0600 
    222 H222       -6.8426  -27.0422  -54.2406 H         1 UNK         0.0600 
    223 H223       -7.5951  -26.0482  -52.9929 H         1 UNK         0.0600 
    224 H224       -7.3099  -25.3846  -54.5920 H         1 UNK         0.0600 
    225 H225       -2.9398  -26.0569  -53.3384 H         1 UNK         0.3000 
    226 H226       -2.5838  -26.0169  -56.2633 H         1 UNK         0.0600 
    227 H227       -1.6285  -27.8475  -54.7725 H         1 UNK         0.0600 
    228 H228       -0.4575  -27.0532  -55.8150 H         1 UNK         0.0600 
    229 H229       -0.5162  -26.6468  -54.1102 H         1 UNK         0.0600 
    230 H230       -2.2268  -23.7418  -53.6676 H         1 UNK         0.3000 
    231 H231        0.0627  -22.3468  -54.4484 H         1 UNK         0.0600 
    232 H232       -0.9215  -20.4123  -53.1630 H         1 UNK         0.0600 
    233 H233       -0.8765  -21.9317  -52.2863 H         1 UNK         0.0600 
    234 H234       -2.3941  -21.3462  -52.9481 H         1 UNK         0.0600 
    235 H235       -2.6587  -20.6825  -57.0485 H         1 UNK         0.3000 
    236 H236       -3.7497  -22.1170  -54.6845 H         1 UNK         0.0600 
    237 H237       -5.0746  -21.0704  -57.2332 H         1 UNK         0.0600 
    238 H238       -4.5462  -22.7333  -56.9786 H         1 UNK         0.0600 
    239 H239       -5.8246  -22.0572  -55.9831 H         1 UNK         0.0600 
    240 H240       -2.8960  -18.9878  -55.7176 H         1 UNK         0.3000 
    241 H241       -3.2065  -16.9614  -55.0716 H         1 UNK         0.0600 
    242 H242       -6.6616  -15.5045  -54.9825 H         1 UNK         0.3800 
    243 H243       -5.3224  -15.4154  -53.8680 H         1 UNK         0.3800 
    244 H244       -3.1937  -18.2266  -52.6560 H         1 UNK         0.0800 
    245 H245       -4.7701  -17.5107  -52.5288 H         1 UNK         0.0800 
    246 H246       -1.6731  -17.3105  -51.2048 H         1 UNK         0.0800 
    247 H247       -1.1874  -15.6465  -51.0609 H         1 UNK         0.0800 
@<TRIPOS>BOND
     1    1    2 1    
     2    1  127 1    
     3    1  128 1    
     4    1  129 1    
     5    2    3 2    
     6    2    4 am   BACKBONE|DICT|INTERRES
     7    4    5 1    
     8    4  130 1    
     9    5    6 1    
    10    5   65 1    
    11    5  131 1    
    12    6    7 1    
    13    6  132 1    
    14    6  133 1    
    15    7    8 1    
    16    8    9 1    
    17    8  134 1    
    18    8  135 1    
    19    9   10 ar   
    20    9   14 ar   
    21   10   11 ar   
    22   10  136 1    
    23   11   12 ar   
    24   11  126 1    
    25   12   13 ar   
    26   12  137 1    
    27   13   14 ar   
    28   13   15 1    
    29   14  138 1    
    30   15   16 1    
    31   15  139 1    
    32   15  140 1    
    33   16   17 1    
    34   17   18 1    
    35   17  141 1    
    36   17  142 1    
    37   18   19 1    
    38   18   67 1    
    39   18  143 1    
    40   19   20 am   BACKBONE|DICT|INTERRES
    41   19  144 1    
    42   20   21 2    
    43   20   22 1    
    44   22   23 1    
    45   22   24 1    
    46   22  145 1    
    47   23  146 1    
    48   23  147 1    
    49   23  148 1    
    50   24   25 am   BACKBONE|DICT|INTERRES
    51   24  149 1    
    52   25   26 2    
    53   25   27 1    
    54   27   28 1    
    55   27   29 1    
    56   27  150 1    
    57   28  151 1    
    58   28  152 1    
    59   28  153 1    
    60   29   30 am   BACKBONE|DICT|INTERRES
    61   29  154 1    
    62   30   31 2    
    63   30   32 1    
    64   32   33 1    
    65   32   34 1    
    66   32  155 1    
    67   33  156 1    
    68   33  157 1    
    69   33  158 1    
    70   34   35 am   BACKBONE|DICT|INTERRES
    71   34  159 1    
    72   35   36 2    
    73   35   37 1    
    74   37   38 1    
    75   37   39 1    
    76   37  160 1    
    77   38  161 1    
    78   38  162 1    
    79   38  163 1    
    80   39   40 am   BACKBONE|DICT|INTERRES
    81   39  164 1    
    82   40   41 2    
    83   40   42 1    
    84   42   43 1    
    85   42   44 1    
    86   42  165 1    
    87   43  166 1    
    88   43  167 1    
    89   43  168 1    
    90   44   45 am   BACKBONE|DICT|INTERRES
    91   44  169 1    
    92   45   46 2    
    93   45   47 1    
    94   47   48 1    
    95   47   49 1    
    96   47  170 1    
    97   48  171 1    
    98   48  172 1    
    99   48  173 1    
   100   49   50 am   BACKBONE|DICT|INTERRES
   101   49  174 1    
   102   50   51 2    
   103   50   52 1    
   104   52   53 1    
   105   52   54 1    
   106   52  175 1    
   107   53  176 1    
   108   53  177 1    
   109   53  178 1    
   110   54   55 am   BACKBONE|DICT|INTERRES
   111   54  179 1    
   112   55   56 2    
   113   55   57 1    
   114   57   58 1    
   115   57   59 1    
   116   57  180 1    
   117   58  181 1    
   118   58  182 1    
   119   58  183 1    
   120   59   60 am   BACKBONE|DICT|INTERRES
   121   59  184 1    
   122   60   61 2    
   123   60   62 1    
   124   62   63 1    
   125   62   64 1    
   126   62  185 1    
   127   63  186 1    
   128   63  187 1    
   129   63  188 1    
   130   64   65 am   BACKBONE|DICT|INTERRES
   131   64  189 1    
   132   65   66 2    
   133   67   68 2    
   134   67   69 am   BACKBONE|DICT|INTERRES
   135   69   70 1    
   136   69  190 1    
   137   70   71 1    
   138   70   72 1    
   139   70  191 1    
   140   71  192 1    
   141   71  193 1    
   142   71  194 1    
   143   72   73 2    
   144   72   74 am   BACKBONE|DICT|INTERRES
   145   74   75 1    
   146   74  195 1    
   147   75   76 1    
   148   75   77 1    
   149   75  196 1    
   150   76  197 1    
   151   76  198 1    
   152   76  199 1    
   153   77   78 2    
   154   77   79 am   BACKBONE|DICT|INTERRES
   155   79   80 1    
   156   79  200 1    
   157   80   81 1    
   158   80   82 1    
   159   80  201 1    
   160   81  202 1    
   161   81  203 1    
   162   81  204 1    
   163   82   83 2    
   164   82   84 am   BACKBONE|DICT|INTERRES
   165   84   85 1    
   166   84  205 1    
   167   85   86 1    
   168   85   87 1    
   169   85  206 1    
   170   86  207 1    
   171   86  208 1    
   172   86  209 1    
   173   87   88 2    
   174   87   89 am   BACKBONE|DICT|INTERRES
   175   89   90 1    
   176   89  210 1    
   177   90   91 1    
   178   90   92 1    
   179   90  211 1    
   180   91  212 1    
   181   91  213 1    
   182   91  214 1    
   183   92   93 2    
   184   92   94 am   BACKBONE|DICT|INTERRES
   185   94   95 1    
   186   94  215 1    
   187   95   96 1    
   188   95   97 1    
   189   95  216 1    
   190   96  217 1    
   191   96  218 1    
   192   96  219 1    
   193   97   98 2    
   194   97   99 am   BACKBONE|DICT|INTERRES
   195   99  100 1    
   196   99  220 1    
   197  100  101 1    
   198  100  102 1    
   199  100  221 1    
   200  101  222 1    
   201  101  223 1    
   202  101  224 1    
   203  102  103 2    
   204  102  104 am   BACKBONE|DICT|INTERRES
   205  104  105 1    
   206  104  225 1    
   207  105  106 1    
   208  105  107 1    
   209  105  226 1    
   210  106  227 1    
   211  106  228 1    
   212  106  229 1    
   213  107  108 2    
   214  107  109 am   BACKBONE|DICT|INTERRES
   215  109  110 1    
   216  109  230 1    
   217  110  111 1    
   218  110  112 1    
   219  110  231 1    
   220  111  232 1    
   221  111  233 1    
   222  111  234 1    
   223  112  113 2    
   224  112  114 am   BACKBONE|DICT|INTERRES
   225  114  115 1    
   226  114  235 1    
   227  115  116 1    
   228  115  117 1    
   229  115  236 1    
   230  116  237 1    
   231  116  238 1    
   232  116  239 1    
   233  117  118 2    
   234  117  119 am   BACKBONE|DICT|INTERRES
   235  119  120 1    
   236  119  240 1    
   237  120  121 1    
   238  120  124 1    
   239  120  241 1    
   240  121  122 am   BACKBONE|DICT|INTERRES
   241  121  123 2    
   242  122  242 1    
   243  122  243 1    
   244  124  125 1    
   245  124  244 1    
   246  124  245 1    
   247  125  126 1    
   248  126  246 1    
   249  126  247 1    
@<TRIPOS>SUBSTRUCTURE
     1 UNK         1 GROUP             0       ****    0 ROOT    
