@<TRIPOS>MOLECULE
3R540
247   249    1
SMALL
USER_CHARGES


@<TRIPOS>ATOM
      1 CA          1.7081  -18.2688  -45.2992 C.3       0 UNK        -0.1800 
      2 C           0.7269  -17.1209  -45.4619 C.2       0 UNK         0.5000 
      3 O          -0.4382  -17.2422  -45.0830 O.2       0 UNK        -0.5000 
      4 N           1.1926  -16.0006  -46.0217 N.am      1 UNK        -0.5000 
      5 CA          0.4230  -14.7655  -46.1772 C.3       1 UNK         0.1400 
      6 C6          0.9261  -13.9088  -47.3647 C.3       23 UNK        -0.0398 
      7 S7          0.6444  -14.7664  -48.9509 S.3       23 UNK        -0.2404 
      8 C8          2.3073  -15.3947  -49.3498 C.3       23 UNK        -0.0205 
      9 C9          2.2453  -16.7657  -50.0096 C.ar      23 UNK        -0.0193 
     10 C10         1.6482  -16.9181  -51.2656 C.ar      23 UNK        -0.1150 
     11 C11         1.5990  -18.1718  -51.8821 C.ar      23 UNK        -0.0193 
     12 C12         2.1669  -19.2751  -51.2400 C.ar      23 UNK        -0.1150 
     13 C13         2.7642  -19.1386  -49.9854 C.ar      23 UNK        -0.0193 
     14 C14         2.8000  -17.8818  -49.3736 C.ar      23 UNK        -0.1150 
     15 C15         3.3836  -20.3490  -49.3034 C.3       23 UNK        -0.0205 
     16 S16         2.3884  -20.9342  -47.8985 S.3       23 UNK        -0.2404 
     17 C17         0.8321  -21.4393  -48.7100 C.3       23 UNK        -0.0398 
     18 CA         -0.1216  -22.1494  -47.7191 C.3       11 UNK         0.1400 
     19 N          -0.4554  -21.2982  -46.5677 N.am      11 UNK        -0.5000 
     20 C          -1.0259  -21.7243  -45.4338 C.2       10 UNK         0.5000 
     21 O          -1.3899  -22.8860  -45.2451 O.2       10 UNK        -0.5000 
     22 CA         -1.2801  -20.6579  -44.3539 C.3       10 UNK         0.1400 
     23 CB         -2.7879  -20.4296  -44.1652 C.3       10 UNK        -0.1800 
     24 N          -0.6770  -20.9841  -43.0623 N.am      10 UNK        -0.5000 
     25 C           0.6272  -21.1903  -42.8405 C.2       9 UNK         0.5000 
     26 O           1.4922  -21.1619  -43.7169 O.2       9 UNK        -0.5000 
     27 CA          1.0400  -21.4004  -41.3736 C.3       9 UNK         0.1400 
     28 CB          2.2441  -22.3495  -41.2416 C.3       9 UNK        -0.1800 
     29 N           1.3826  -20.1168  -40.7647 N.am      9 UNK        -0.5000 
     30 C           0.5001  -19.2146  -40.3141 C.2       8 UNK         0.5000 
     31 O          -0.7191  -19.3886  -40.3285 O.2       8 UNK        -0.5000 
     32 CA          1.0718  -17.9063  -39.7335 C.3       8 UNK         0.1400 
     33 CB          1.1785  -18.0036  -38.2037 C.3       8 UNK        -0.1800 
     34 N           2.3886  -17.5669  -40.2815 N.am      8 UNK        -0.5000 
     35 C           2.5713  -16.9283  -41.4429 C.2       7 UNK         0.5000 
     36 O           1.6518  -16.5372  -42.1645 O.2       7 UNK        -0.5000 
     37 CA          4.0231  -16.6901  -41.8775 C.3       7 UNK         0.1400 
     38 CB          4.5789  -17.9252  -42.6139 C.3       7 UNK        -0.1800 
     39 N           4.0453  -15.5093  -42.7350 N.am      7 UNK        -0.5000 
     40 C           5.1274  -14.8667  -43.1876 C.2       6 UNK         0.5000 
     41 O           6.2857  -15.2195  -42.9629 O.2       6 UNK        -0.5000 
     42 CA          4.8647  -13.5906  -44.0078 C.3       6 UNK         0.1400 
     43 CB          4.4292  -13.9370  -45.4394 C.3       6 UNK        -0.1800 
     44 N           3.8590  -12.7271  -43.3847 N.am      6 UNK        -0.5000 
     45 C           4.0693  -12.0157  -42.2660 C.2       5 UNK         0.5000 
     46 O           5.1331  -12.0323  -41.6439 O.2       5 UNK        -0.5000 
     47 CA          2.9009  -11.1411  -41.7605 C.3       5 UNK         0.1400 
     48 CB          3.3582   -9.9923  -40.8376 C.3       5 UNK        -0.1800 
     49 N           2.0467  -10.6344  -42.8380 N.am      5 UNK        -0.5000 
     50 C           2.3874   -9.8281  -43.8567 C.2       4 UNK         0.5000 
     51 O           3.5041   -9.3259  -43.9887 O.2       4 UNK        -0.5000 
     52 CA          1.3085   -9.5538  -44.9260 C.3       4 UNK         0.1400 
     53 CB          1.7944  -10.0062  -46.3140 C.3       4 UNK        -0.1800 
     54 N           0.0548  -10.2488  -44.6268 N.am      4 UNK        -0.5000 
     55 C          -1.0095   -9.7049  -44.0209 C.2       3 UNK         0.5000 
     56 O          -1.0914   -8.5139  -43.7195 O.2       3 UNK        -0.5000 
     57 CA         -2.1717  -10.6576  -43.6684 C.3       3 UNK         0.1400 
     58 CB         -3.2481  -10.6179  -44.7636 C.3       3 UNK        -0.1800 
     59 N          -1.7474  -12.0469  -43.4688 N.am      3 UNK        -0.5000 
     60 C          -0.9588  -12.4759  -42.4728 C.2       2 UNK         0.5000 
     61 O          -0.5384  -11.7474  -41.5750 O.2       2 UNK        -0.5000 
     62 CA         -0.5023  -13.9459  -42.5276 C.3       2 UNK         0.1400 
     63 CB         -1.4565  -14.8422  -41.7249 C.3       2 UNK        -0.1800 
     64 N          -0.3794  -14.4732  -43.8889 N.am      2 UNK        -0.5000 
     65 C           0.4375  -14.0028  -44.8398 C.2       1 UNK         0.5000 
     66 O           1.1918  -13.0412  -44.6778 O.2       1 UNK        -0.5000 
     67 C          -1.3796  -22.6833  -48.4385 C.2       11 UNK         0.5000 
     68 O          -1.3140  -23.7252  -49.0889 O.2       11 UNK        -0.5000 
     69 N          -2.5197  -22.0024  -48.2515 N.am      12 UNK        -0.5000 
     70 CA         -3.8508  -22.4183  -48.6954 C.3       12 UNK         0.1400 
     71 CB         -4.8415  -21.2868  -48.3803 C.3       12 UNK        -0.1800 
     72 C          -4.3369  -23.7451  -48.0738 C.2       12 UNK         0.5000 
     73 O          -5.2247  -24.3821  -48.6371 O.2       12 UNK        -0.5000 
     74 N          -3.7497  -24.1568  -46.9403 N.am      13 UNK        -0.5000 
     75 CA         -4.0374  -25.4344  -46.2873 C.3       13 UNK         0.1400 
     76 CB         -3.5384  -25.3781  -44.8350 C.3       13 UNK        -0.1800 
     77 C          -3.4299  -26.6492  -47.0199 C.2       13 UNK         0.5000 
     78 O          -3.8249  -27.7775  -46.7229 O.2       13 UNK        -0.5000 
     79 N          -2.4783  -26.4194  -47.9396 N.am      14 UNK        -0.5000 
     80 CA         -1.7827  -27.4707  -48.6842 C.3       14 UNK         0.1400 
     81 CB         -0.5596  -26.8740  -49.3974 C.3       14 UNK        -0.1800 
     82 C          -2.6856  -28.2034  -49.6929 C.2       14 UNK         0.5000 
     83 O          -2.5600  -29.4203  -49.8380 O.2       14 UNK        -0.5000 
     84 N          -3.5751  -27.4603  -50.3628 N.am      15 UNK        -0.5000 
     85 CA         -4.5005  -27.9522  -51.3787 C.3       15 UNK         0.1400 
     86 CB         -3.7331  -28.3879  -52.6452 C.3       15 UNK        -0.1800 
     87 C          -5.4880  -26.8374  -51.7393 C.2       15 UNK         0.5000 
     88 O          -5.1610  -25.6571  -51.5945 O.2       15 UNK        -0.5000 
     89 N          -6.6455  -27.2232  -52.2915 N.am      16 UNK        -0.5000 
     90 CA         -7.6427  -26.3010  -52.8454 C.3       16 UNK         0.1400 
     91 CB         -8.8993  -27.0877  -53.2457 C.3       16 UNK        -0.1800 
     92 C          -7.1072  -25.4891  -54.0418 C.2       16 UNK         0.5000 
     93 O          -7.4892  -24.3324  -54.2121 O.2       16 UNK        -0.5000 
     94 N          -6.1918  -26.0903  -54.8157 N.am      17 UNK        -0.5000 
     95 CA         -5.4577  -25.4348  -55.8978 C.3       17 UNK         0.1400 
     96 CB         -4.6704  -26.4894  -56.6896 C.3       17 UNK        -0.1800 
     97 C          -4.5183  -24.3271  -55.3861 C.2       17 UNK         0.5000 
     98 O          -4.4306  -23.2729  -56.0144 O.2       17 UNK        -0.5000 
     99 N          -3.8667  -24.5652  -54.2373 N.am      18 UNK        -0.5000 
    100 CA        -3.0210  -23.5833  -53.5569 C.3       18 UNK         0.1400 
    101 CB        -2.1766  -24.2657  -52.4684 C.3       18 UNK        -0.1800 
    102 C         -3.8549  -22.4323  -52.9730 C.2       18 UNK         0.5000 
    103 O         -3.4588  -21.2761  -53.1036 O.2       18 UNK        -0.5000 
    104 N         -5.0199  -22.7587  -52.3940 N.am      19 UNK        -0.5000 
    105 CA        -5.9983  -21.7844  -51.9076 C.3       19 UNK         0.1400 
    106 CB        -7.1426  -22.5090  -51.1830 C.3       19 UNK        -0.1800 
    107 C         -6.5443  -20.8830  -53.0296 C.2       19 UNK         0.5000 
    108 O         -6.5960  -19.6651  -52.8573 O.2       19 UNK        -0.5000 
    109 N         -6.9020  -21.4905  -54.1693 N.am      20 UNK        -0.5000 
    110 CA        -7.3717  -20.7953  -55.3677 C.3       20 UNK         0.1400 
    111 CB        -7.8748  -21.8245  -56.3913 C.3       20 UNK        -0.1800 
    112 C         -6.3025  -19.8815  -55.9956 C.2       20 UNK         0.5000 
    113 O         -6.6345  -18.7821  -56.4408 O.2       20 UNK        -0.5000 
    114 N         -5.0461  -20.3463  -56.0167 N.am      21 UNK        -0.5000 
    115 CA        -3.9028  -19.6052  -56.5437 C.3       21 UNK         0.1400 
    116 CB        -2.7275  -20.5686  -56.7753 C.3       21 UNK        -0.1800 
    117 C         -3.4773  -18.4384  -55.6356 C.2       21 UNK         0.5000 
    118 O         -3.3188  -17.3185  -56.1246 O.2       21 UNK        -0.5000 
    119 N         -3.2699  -18.7263  -54.3456 N.am      22 UNK        -0.5000 
    120 CA        -2.6777  -17.7907  -53.3759 C.3       22 UNK         0.1400 
    121 C         -3.7097  -16.9060  -52.6236 C.2       22 UNK         0.5000 
    122 N         -4.9987  -17.2208  -52.6251 N.am      22 UNK        -0.7600 
    123 O         -3.3333  -15.8963  -52.0352 O.2       22 UNK        -0.5000 
    124 C124       -1.7357  -18.5129  -52.3780 C.3       23 UNK        -0.0398 
    125 S125       -0.4462  -19.5001  -53.2174 S.3       23 UNK        -0.2404 
    126 C126        0.9545  -18.3371  -53.2504 C.3       23 UNK        -0.0205 
    127 H127        1.3387  -19.1551  -45.8096 H         1 UNK         0.0600 
    128 H128        1.8196  -18.5083  -44.2424 H         1 UNK         0.0600 
    129 H129        2.6915  -18.0285  -45.7035 H         1 UNK         0.0600 
    130 H130        2.1572  -15.9577  -46.3107 H         1 UNK         0.3000 
    131 H131       -0.6189  -15.0194  -46.3864 H         1 UNK         0.0600 
    132 H132        0.3817  -12.9637  -47.4059 H         1 UNK         0.0800 
    133 H133        1.9785  -13.6445  -47.2544 H         1 UNK         0.0800 
    134 H134        2.8040  -14.6911  -50.0191 H         1 UNK         0.0800 
    135 H135        2.9182  -15.4416  -48.4477 H         1 UNK         0.0800 
    136 H136        1.2191  -16.0570  -51.7587 H         1 UNK         0.1150 
    137 H137        2.1364  -20.2436  -51.7195 H         1 UNK         0.1150 
    138 H138        3.2648  -17.7774  -48.4033 H         1 UNK         0.1150 
    139 H139        3.5218  -21.1674  -50.0117 H         1 UNK         0.0800 
    140 H140        4.3795  -20.0867  -48.9439 H         1 UNK         0.0800 
    141 H141        1.0793  -22.0993  -49.5438 H         1 UNK         0.0800 
    142 H142        0.3542  -20.5575  -49.1407 H         1 UNK         0.0800 
    143 H143        0.4012  -23.0262  -47.3301 H         1 UNK         0.0600 
    144 H144       -0.1690  -20.3332  -46.6398 H         1 UNK         0.3000 
    145 H145       -0.8382  -19.7196  -44.6837 H         1 UNK         0.0600 
    146 H146       -2.9783  -19.6169  -43.4638 H         1 UNK         0.0600 
    147 H147       -3.2644  -20.1603  -45.1088 H         1 UNK         0.0600 
    148 H148       -3.2867  -21.3237  -43.7885 H         1 UNK         0.0600 
    149 H149       -1.3015  -20.9871  -42.2682 H         1 UNK         0.3000 
    150 H150        0.2023  -21.8472  -40.8333 H         1 UNK         0.0600 
    151 H151        3.1370  -21.9439  -41.7195 H         1 UNK         0.0600 
    152 H152        2.0320  -23.3133  -41.7060 H         1 UNK         0.0600 
    153 H153        2.4824  -22.5388  -40.1948 H         1 UNK         0.0600 
    154 H154        2.3623  -19.8786  -40.7443 H         1 UNK         0.3000 
    155 H155        0.3675  -17.1055  -39.9699 H         1 UNK         0.0600 
    156 H156        1.8722  -18.7871  -37.8961 H         1 UNK         0.0600 
    157 H157        0.2089  -18.2302  -37.7582 H         1 UNK         0.0600 
    158 H158        1.5207  -17.0628  -37.7721 H         1 UNK         0.0600 
    159 H159        3.1918  -17.8430  -39.7348 H         1 UNK         0.3000 
    160 H160        4.6255  -16.4886  -40.9896 H         1 UNK         0.0600 
    161 H161        4.0733  -18.0878  -43.5649 H         1 UNK         0.0600 
    162 H162        4.4566  -18.8302  -42.0177 H         1 UNK         0.0600 
    163 H163        5.6441  -17.8226  -42.8193 H         1 UNK         0.0600 
    164 H164        3.1235  -15.1515  -42.9526 H         1 UNK         0.3000 
    165 H165        5.8013  -13.0321  -44.0689 H         1 UNK         0.0600 
    166 H166        5.1918  -14.5294  -45.9465 H         1 UNK         0.0600 
    167 H167        3.5068  -14.5145  -45.4469 H         1 UNK         0.0600 
    168 H168        4.2674  -13.0361  -46.0319 H         1 UNK         0.0600 
    169 H169        2.9524  -12.6733  -43.8390 H         1 UNK         0.3000 
    170 H170        2.2716  -11.8046  -41.1660 H         1 UNK         0.0600 
    171 H171        3.8635  -10.3788  -39.9519 H         1 UNK         0.0600 
    172 H172        4.0519   -9.3186  -41.3412 H         1 UNK         0.0600 
    173 H173        2.5085   -9.4032  -40.4925 H         1 UNK         0.0600 
    174 H174        1.0930  -10.9701  -42.8121 H         1 UNK         0.3000 
    175 H175        1.1438   -8.4750  -44.9570 H         1 UNK         0.0600 
    176 H176        1.0349   -9.8288  -47.0755 H         1 UNK         0.0600 
    177 H177        2.6877   -9.4574  -46.6144 H         1 UNK         0.0600 
    178 H178        2.0436  -11.0676  -46.3290 H         1 UNK         0.0600 
    179 H179        0.0604  -11.2457  -44.8026 H         1 UNK         0.3000 
    180 H180       -2.6167  -10.3030  -42.7363 H         1 UNK         0.0600 
    181 H181       -2.8652  -10.9813  -45.7181 H         1 UNK         0.0600 
    182 H182       -3.6085   -9.6003  -44.9206 H         1 UNK         0.0600 
    183 H183       -4.1102  -11.2276  -44.4924 H         1 UNK         0.0600 
    184 H184       -2.0480  -12.7172  -44.1611 H         1 UNK         0.3000 
    185 H185        0.4856  -13.9981  -42.0654 H         1 UNK         0.0600 
    186 H186       -1.5354  -14.5029  -40.6913 H         1 UNK         0.0600 
    187 H187       -2.4608  -14.8436  -42.1501 H         1 UNK         0.0600 
    188 H188       -1.1010  -15.8728  -41.7017 H         1 UNK         0.0600 
    189 H189       -0.8802  -15.3315  -44.0869 H         1 UNK         0.3000 
    190 H190       -2.4775  -21.1599  -47.6981 H         1 UNK         0.3000 
    191 H191       -3.8129  -22.5618  -49.7766 H         1 UNK         0.0600 
    192 H192       -4.5753  -20.3703  -48.9073 H         1 UNK         0.0600 
    193 H193       -5.8547  -21.5525  -48.6830 H         1 UNK         0.0600 
    194 H194       -4.8704  -21.0649  -47.3128 H         1 UNK         0.0600 
    195 H195       -3.0180  -23.5939  -46.5228 H         1 UNK         0.3000 
    196 H196       -5.1203  -25.5737  -46.2654 H         1 UNK         0.0600 
    197 H197       -3.8294  -26.2754  -44.2875 H         1 UNK         0.0600 
    198 H198       -3.9571  -24.5231  -44.3038 H         1 UNK         0.0600 
    199 H199       -2.4515  -25.3050  -44.7864 H         1 UNK         0.0600 
    200 H200       -2.2082  -25.4650  -48.1454 H         1 UNK         0.3000 
    201 H201       -1.4233  -28.2083  -47.9634 H         1 UNK         0.0600 
    202 H202        0.0206  -27.6535  -49.8926 H         1 UNK         0.0600 
    203 H203       -0.8510  -26.1506  -50.1599 H         1 UNK         0.0600 
    204 H204        0.1039  -26.3711  -48.6936 H         1 UNK         0.0600 
    205 H205       -3.6568  -26.4697  -50.1678 H         1 UNK         0.3000 
    206 H206       -5.0582  -28.7972  -50.9700 H         1 UNK         0.0600 
    207 H207       -3.0757  -29.2341  -52.4479 H         1 UNK         0.0600 
    208 H208       -4.4166  -28.6999  -53.4358 H         1 UNK         0.0600 
    209 H209       -3.1201  -27.5771  -53.0410 H         1 UNK         0.0600 
    210 H210       -6.8434  -28.2093  -52.3841 H         1 UNK         0.3000 
    211 H211       -7.9169  -25.5927  -52.0611 H         1 UNK         0.0600 
    212 H212       -8.6826  -27.8315  -54.0134 H         1 UNK         0.0600 
    213 H213       -9.6667  -26.4210  -53.6416 H         1 UNK         0.0600 
    214 H214       -9.3309  -27.6045  -52.3883 H         1 UNK         0.0600 
    215 H215       -5.9491  -27.0485  -54.6150 H         1 UNK         0.3000 
    216 H216       -6.1841  -24.9727  -56.5698 H         1 UNK         0.0600 
    217 H217       -4.1240  -26.0296  -57.5142 H         1 UNK         0.0600 
    218 H218       -5.3364  -27.2375  -57.1199 H         1 UNK         0.0600 
    219 H219       -3.9438  -27.0072  -56.0621 H         1 UNK         0.0600 
    220 H220       -4.0410  -25.4291  -53.7468 H         1 UNK         0.3000 
    221 H221       -2.3361  -23.1590  -54.2943 H         1 UNK         0.0600 
    222 H222       -2.7874  -24.6573  -51.6558 H         1 UNK         0.0600 
    223 H223       -1.5922  -25.0900  -52.8768 H         1 UNK         0.0600 
    224 H224       -1.4744  -23.5575  -52.0264 H         1 UNK         0.0600 
    225 H225       -5.2492  -23.7411  -52.2836 H         1 UNK         0.3000 
    226 H226       -5.4896  -21.1407  -51.1885 H         1 UNK         0.0600 
    227 H227       -7.8140  -21.7933  -50.7076 H         1 UNK         0.0600 
    228 H228       -7.7402  -23.1111  -51.8662 H         1 UNK         0.0600 
    229 H229       -6.7656  -23.1701  -50.4041 H         1 UNK         0.0600 
    230 H230       -6.8835  -22.5058  -54.2103 H         1 UNK         0.3000 
    231 H231       -8.2153  -20.1659  -55.0772 H         1 UNK         0.0600 
    232 H232       -7.0827  -22.5093  -56.6955 H         1 UNK         0.0600 
    233 H233       -8.2484  -21.3325  -57.2901 H         1 UNK         0.0600 
    234 H234       -8.6918  -22.4195  -55.9826 H         1 UNK         0.0600 
    235 H235       -4.8641  -21.2861  -55.6817 H         1 UNK         0.3000 
    236 H236       -4.1852  -19.1872  -57.5123 H         1 UNK         0.0600 
    237 H237       -2.9890  -21.3416  -57.4981 H         1 UNK         0.0600 
    238 H238       -1.8579  -20.0386  -57.1657 H         1 UNK         0.0600 
    239 H239       -2.4232  -21.0637  -55.8523 H         1 UNK         0.0600 
    240 H240       -3.4113  -19.6768  -54.0095 H         1 UNK         0.3000 
    241 H241       -2.0501  -17.0884  -53.9283 H         1 UNK         0.0600 
    242 H242       -5.3381  -18.0816  -53.0394 H         1 UNK         0.3800 
    243 H243       -5.6479  -16.6248  -52.1377 H         1 UNK         0.3800 
    244 H244       -2.3094  -19.1865  -51.7393 H         1 UNK         0.0800 
    245 H245       -1.2583  -17.7962  -51.7075 H         1 UNK         0.0800 
    246 H246        0.6188  -17.3781  -53.6482 H         1 UNK         0.0800 
    247 H247        1.7049  -18.7126  -53.9472 H         1 UNK         0.0800 
@<TRIPOS>BOND
     1    1    2 1    
     2    1  127 1    
     3    1  128 1    
     4    1  129 1    
     5    2    3 2    
     6    2    4 am   BACKBONE|DICT|INTERRES
     7    4    5 1    
     8    4  130 1    
     9    5    6 1    
    10    5   65 1    
    11    5  131 1    
    12    6    7 1    
    13    6  132 1    
    14    6  133 1    
    15    7    8 1    
    16    8    9 1    
    17    8  134 1    
    18    8  135 1    
    19    9   10 ar   
    20    9   14 ar   
    21   10   11 ar   
    22   10  136 1    
    23   11   12 ar   
    24   11  126 1    
    25   12   13 ar   
    26   12  137 1    
    27   13   14 ar   
    28   13   15 1    
    29   14  138 1    
    30   15   16 1    
    31   15  139 1    
    32   15  140 1    
    33   16   17 1    
    34   17   18 1    
    35   17  141 1    
    36   17  142 1    
    37   18   19 1    
    38   18   67 1    
    39   18  143 1    
    40   19   20 am   BACKBONE|DICT|INTERRES
    41   19  144 1    
    42   20   21 2    
    43   20   22 1    
    44   22   23 1    
    45   22   24 1    
    46   22  145 1    
    47   23  146 1    
    48   23  147 1    
    49   23  148 1    
    50   24   25 am   BACKBONE|DICT|INTERRES
    51   24  149 1    
    52   25   26 2    
    53   25   27 1    
    54   27   28 1    
    55   27   29 1    
    56   27  150 1    
    57   28  151 1    
    58   28  152 1    
    59   28  153 1    
    60   29   30 am   BACKBONE|DICT|INTERRES
    61   29  154 1    
    62   30   31 2    
    63   30   32 1    
    64   32   33 1    
    65   32   34 1    
    66   32  155 1    
    67   33  156 1    
    68   33  157 1    
    69   33  158 1    
    70   34   35 am   BACKBONE|DICT|INTERRES
    71   34  159 1    
    72   35   36 2    
    73   35   37 1    
    74   37   38 1    
    75   37   39 1    
    76   37  160 1    
    77   38  161 1    
    78   38  162 1    
    79   38  163 1    
    80   39   40 am   BACKBONE|DICT|INTERRES
    81   39  164 1    
    82   40   41 2    
    83   40   42 1    
    84   42   43 1    
    85   42   44 1    
    86   42  165 1    
    87   43  166 1    
    88   43  167 1    
    89   43  168 1    
    90   44   45 am   BACKBONE|DICT|INTERRES
    91   44  169 1    
    92   45   46 2    
    93   45   47 1    
    94   47   48 1    
    95   47   49 1    
    96   47  170 1    
    97   48  171 1    
    98   48  172 1    
    99   48  173 1    
   100   49   50 am   BACKBONE|DICT|INTERRES
   101   49  174 1    
   102   50   51 2    
   103   50   52 1    
   104   52   53 1    
   105   52   54 1    
   106   52  175 1    
   107   53  176 1    
   108   53  177 1    
   109   53  178 1    
   110   54   55 am   BACKBONE|DICT|INTERRES
   111   54  179 1    
   112   55   56 2    
   113   55   57 1    
   114   57   58 1    
   115   57   59 1    
   116   57  180 1    
   117   58  181 1    
   118   58  182 1    
   119   58  183 1    
   120   59   60 am   BACKBONE|DICT|INTERRES
   121   59  184 1    
   122   60   61 2    
   123   60   62 1    
   124   62   63 1    
   125   62   64 1    
   126   62  185 1    
   127   63  186 1    
   128   63  187 1    
   129   63  188 1    
   130   64   65 am   BACKBONE|DICT|INTERRES
   131   64  189 1    
   132   65   66 2    
   133   67   68 2    
   134   67   69 am   BACKBONE|DICT|INTERRES
   135   69   70 1    
   136   69  190 1    
   137   70   71 1    
   138   70   72 1    
   139   70  191 1    
   140   71  192 1    
   141   71  193 1    
   142   71  194 1    
   143   72   73 2    
   144   72   74 am   BACKBONE|DICT|INTERRES
   145   74   75 1    
   146   74  195 1    
   147   75   76 1    
   148   75   77 1    
   149   75  196 1    
   150   76  197 1    
   151   76  198 1    
   152   76  199 1    
   153   77   78 2    
   154   77   79 am   BACKBONE|DICT|INTERRES
   155   79   80 1    
   156   79  200 1    
   157   80   81 1    
   158   80   82 1    
   159   80  201 1    
   160   81  202 1    
   161   81  203 1    
   162   81  204 1    
   163   82   83 2    
   164   82   84 am   BACKBONE|DICT|INTERRES
   165   84   85 1    
   166   84  205 1    
   167   85   86 1    
   168   85   87 1    
   169   85  206 1    
   170   86  207 1    
   171   86  208 1    
   172   86  209 1    
   173   87   88 2    
   174   87   89 am   BACKBONE|DICT|INTERRES
   175   89   90 1    
   176   89  210 1    
   177   90   91 1    
   178   90   92 1    
   179   90  211 1    
   180   91  212 1    
   181   91  213 1    
   182   91  214 1    
   183   92   93 2    
   184   92   94 am   BACKBONE|DICT|INTERRES
   185   94   95 1    
   186   94  215 1    
   187   95   96 1    
   188   95   97 1    
   189   95  216 1    
   190   96  217 1    
   191   96  218 1    
   192   96  219 1    
   193   97   98 2    
   194   97   99 am   BACKBONE|DICT|INTERRES
   195   99  100 1    
   196   99  220 1    
   197  100  101 1    
   198  100  102 1    
   199  100  221 1    
   200  101  222 1    
   201  101  223 1    
   202  101  224 1    
   203  102  103 2    
   204  102  104 am   BACKBONE|DICT|INTERRES
   205  104  105 1    
   206  104  225 1    
   207  105  106 1    
   208  105  107 1    
   209  105  226 1    
   210  106  227 1    
   211  106  228 1    
   212  106  229 1    
   213  107  108 2    
   214  107  109 am   BACKBONE|DICT|INTERRES
   215  109  110 1    
   216  109  230 1    
   217  110  111 1    
   218  110  112 1    
   219  110  231 1    
   220  111  232 1    
   221  111  233 1    
   222  111  234 1    
   223  112  113 2    
   224  112  114 am   BACKBONE|DICT|INTERRES
   225  114  115 1    
   226  114  235 1    
   227  115  116 1    
   228  115  117 1    
   229  115  236 1    
   230  116  237 1    
   231  116  238 1    
   232  116  239 1    
   233  117  118 2    
   234  117  119 am   BACKBONE|DICT|INTERRES
   235  119  120 1    
   236  119  240 1    
   237  120  121 1    
   238  120  124 1    
   239  120  241 1    
   240  121  122 am   BACKBONE|DICT|INTERRES
   241  121  123 2    
   242  122  242 1    
   243  122  243 1    
   244  124  125 1    
   245  124  244 1    
   246  124  245 1    
   247  125  126 1    
   248  126  246 1    
   249  126  247 1    
@<TRIPOS>SUBSTRUCTURE
     1 UNK         1 GROUP             0       ****    0 ROOT    
