@<TRIPOS>MOLECULE
3R540
247   249    1
SMALL
USER_CHARGES


@<TRIPOS>ATOM
      1 CA          6.7929  -14.8826  -47.8004 C.3       0 UNK        -0.1800 
      2 C           5.5856  -13.9581  -47.7409 C.2       0 UNK         0.5000 
      3 O           5.6534  -12.8318  -48.2331 O.2       0 UNK        -0.5000 
      4 N           4.4925  -14.4227  -47.1199 N.am      1 UNK        -0.5000 
      5 CA          3.1830  -13.7667  -46.9511 C.3       1 UNK         0.1400 
      6 C6          2.4852  -13.3575  -48.2775 C.3       23 UNK        -0.0398 
      7 S7          2.2934  -14.7446  -49.4470 S.3       23 UNK        -0.2404 
      8 C8          0.7428  -15.4715  -48.8322 C.3       23 UNK        -0.0205 
      9 C9          0.4116  -16.8025  -49.4912 C.ar      23 UNK        -0.0193 
     10 C10        -0.8450  -17.0078  -50.0686 C.ar      23 UNK        -0.1150 
     11 C11        -1.1763  -18.2473  -50.6216 C.ar      23 UNK        -0.0193 
     12 C12        -0.2436  -19.2875  -50.5870 C.ar      23 UNK        -0.1150 
     13 C13         1.0139  -19.1026  -50.0057 C.ar      23 UNK        -0.0193 
     14 C14         1.3391  -17.8493  -49.4755 C.ar      23 UNK        -0.1150 
     15 C15         1.9986  -20.2702  -49.9775 C.3       23 UNK        -0.0205 
     16 S16         3.0248  -20.4112  -48.4679 S.3       23 UNK        -0.2404 
     17 C17         1.8498  -20.1781  -47.0885 C.3       23 UNK        -0.0398 
     18 CA          1.0948  -21.4567  -46.6553 C.3       11 UNK         0.1400 
     19 N           0.6545  -21.3689  -45.2610 N.am      11 UNK        -0.5000 
     20 C           0.0661  -22.3535  -44.5681 C.2       10 UNK         0.5000 
     21 O          -0.1173  -23.4884  -45.0078 O.2       10 UNK        -0.5000 
     22 CA         -0.4531  -21.9917  -43.1647 C.3       10 UNK         0.1400 
     23 CB          0.6861  -22.0191  -42.1353 C.3       10 UNK        -0.1800 
     24 N          -1.1219  -20.6890  -43.1314 N.am      10 UNK        -0.5000 
     25 C          -2.2439  -20.3987  -43.8065 C.2       9 UNK         0.5000 
     26 O          -2.8563  -21.2153  -44.4933 O.2       9 UNK        -0.5000 
     27 CA         -2.7473  -18.9461  -43.7424 C.3       9 UNK         0.1400 
     28 CB         -3.5063  -18.6883  -42.4326 C.3       9 UNK        -0.1800 
     29 N          -1.6737  -17.9640  -43.8961 N.am      9 UNK        -0.5000 
     30 C          -0.9145  -17.8303  -44.9932 C.2       8 UNK         0.5000 
     31 O          -1.0565  -18.5066  -46.0113 O.2       8 UNK        -0.5000 
     32 CA          0.2337  -16.8069  -44.9208 C.3       8 UNK         0.1400 
     33 CB         -0.2958  -15.3752  -45.0951 C.3       8 UNK        -0.1800 
     34 N           0.9935  -16.9025  -43.6738 N.am      8 UNK        -0.5000 
     35 C           1.6586  -17.9950  -43.2698 C.2       7 UNK         0.5000 
     36 O           1.7529  -19.0258  -43.9345 O.2       7 UNK        -0.5000 
     37 CA          2.2664  -17.9514  -41.8589 C.3       7 UNK         0.1400 
     38 CB          3.6003  -17.1878  -41.8501 C.3       7 UNK        -0.1800 
     39 N           1.3395  -17.3629  -40.8916 N.am      7 UNK        -0.5000 
     40 C           0.1955  -17.9420  -40.4966 C.2       6 UNK         0.5000 
     41 O          -0.1740  -19.0536  -40.8736 O.2       6 UNK        -0.5000 
     42 CA         -0.7065  -17.1236  -39.5550 C.3       6 UNK         0.1400 
     43 CB         -0.2545  -17.2862  -38.0962 C.3       6 UNK        -0.1800 
     44 N          -0.7306  -15.7018  -39.8994 N.am      6 UNK        -0.5000 
     45 C          -1.2532  -15.2008  -41.0284 C.2       5 UNK         0.5000 
     46 O          -1.8235  -15.8830  -41.8782 O.2       5 UNK        -0.5000 
     47 CA         -1.0507  -13.6929  -41.2710 C.3       5 UNK         0.1400 
     48 CB         -2.1801  -12.8823  -40.6187 C.3       5 UNK        -0.1800 
     49 N           0.2441  -13.2155  -40.7759 N.am      5 UNK        -0.5000 
     50 C           1.4251  -13.6114  -41.2667 C.2       4 UNK         0.5000 
     51 O           1.5463  -14.3844  -42.2210 O.2       4 UNK        -0.5000 
     52 CA          2.6721  -13.1340  -40.5149 C.3       4 UNK         0.1400 
     53 CB          2.9616  -14.0903  -39.3381 C.3       4 UNK        -0.1800 
     54 N           3.7889  -13.0965  -41.4535 N.am      4 UNK        -0.5000 
     55 C           5.0229  -12.6438  -41.2028 C.2       3 UNK         0.5000 
     56 O           5.3907  -12.2036  -40.1128 O.2       3 UNK        -0.5000 
     57 CA          6.0108  -12.6605  -42.3841 C.3       3 UNK         0.1400 
     58 CB          6.5415  -14.0825  -42.6285 C.3       3 UNK        -0.1800 
     59 N           5.4381  -12.1412  -43.6274 N.am      3 UNK        -0.5000 
     60 C           4.9747  -10.8958  -43.8139 C.2       2 UNK         0.5000 
     61 O           4.9781  -10.0274  -42.9406 O.2       2 UNK        -0.5000 
     62 CA          4.4352  -10.5453  -45.2157 C.3       2 UNK         0.1400 
     63 CB          5.3951   -9.5870  -45.9384 C.3       2 UNK        -0.1800 
     64 N           4.2174  -11.7140  -46.0697 N.am      2 UNK        -0.5000 
     65 C           3.2068  -12.5831  -45.9596 C.2       1 UNK         0.5000 
     66 O           2.3276  -12.4905  -45.1039 O.2       1 UNK        -0.5000 
     67 C          -0.0874  -21.7598  -47.5973 C.2       11 UNK         0.5000 
     68 O          -0.0053  -22.6959  -48.3922 O.2       11 UNK        -0.5000 
     69 N          -1.1805  -20.9949  -47.4603 N.am      12 UNK        -0.5000 
     70 CA         -2.4123  -21.1668  -48.2285 C.3       12 UNK         0.1400 
     71 CB         -3.3831  -20.0181  -47.9219 C.3       12 UNK        -0.1800 
     72 C          -3.0785  -22.5328  -47.9958 C.2       12 UNK         0.5000 
     73 O          -3.5179  -23.1552  -48.9618 O.2       12 UNK        -0.5000 
     74 N          -3.1030  -22.9948  -46.7382 N.am      13 UNK        -0.5000 
     75 CA         -3.5934  -24.3168  -46.3498 C.3       13 UNK         0.1400 
     76 CB         -3.6509  -24.4236  -44.8186 C.3       13 UNK        -0.1800 
     77 C          -2.7535  -25.4575  -46.9516 C.2       13 UNK         0.5000 
     78 O          -3.3244  -26.3965  -47.5068 O.2       13 UNK        -0.5000 
     79 N          -1.4197  -25.3360  -46.8783 N.am      14 UNK        -0.5000 
     80 CA         -0.4632  -26.2797  -47.4648 C.3       14 UNK         0.1400 
     81 CB          0.9594  -25.9165  -47.0129 C.3       14 UNK        -0.1800 
     82 C          -0.5469  -26.3461  -49.0021 C.2       14 UNK         0.5000 
     83 O          -0.4260  -27.4301  -49.5736 O.2       14 UNK        -0.5000 
     84 N          -0.7911  -25.1930  -49.6372 N.am      15 UNK        -0.5000 
     85 CA         -1.0151  -25.0512  -51.0761 C.3       15 UNK         0.1400 
     86 CB         -0.7686  -23.5834  -51.4670 C.3       15 UNK        -0.1800 
     87 C          -2.4213  -25.4914  -51.5340 C.2       15 UNK         0.5000 
     88 O          -2.6746  -25.4937  -52.7394 O.2       15 UNK        -0.5000 
     89 N          -3.3274  -25.7942  -50.5890 N.am      16 UNK        -0.5000 
     90 CA         -4.7542  -26.0900  -50.7866 C.3       16 UNK         0.1400 
     91 CB         -4.9343  -27.4586  -51.4739 C.3       16 UNK        -0.1800 
     92 C          -5.4906  -24.9470  -51.5204 C.2       16 UNK         0.5000 
     93 O          -6.3126  -25.1929  -52.4068 O.2       16 UNK        -0.5000 
     94 N          -5.1024  -23.7066  -51.1865 N.am      17 UNK        -0.5000 
     95 CA         -5.4798  -22.4364  -51.8118 C.3       17 UNK         0.1400 
     96 CB         -6.9461  -22.0935  -51.4827 C.3       17 UNK        -0.1800 
     97 C          -5.1886  -22.3711  -53.3274 C.2       17 UNK         0.5000 
     98 O          -5.8148  -21.5722  -54.0235 O.2       17 UNK        -0.5000 
     99 N          -4.2770  -23.2234  -53.8237 N.am      18 UNK        -0.5000 
    100 CA        -3.9684  -23.4630  -55.2375 C.3       18 UNK         0.1400 
    101 CB        -3.2407  -22.2481  -55.8488 C.3       18 UNK        -0.1800 
    102 C         -5.2127  -23.8937  -56.0464 C.2       18 UNK         0.5000 
    103 O         -5.3916  -23.4513  -57.1809 O.2       18 UNK        -0.5000 
    104 N         -6.0788  -24.7101  -55.4228 N.am      19 UNK        -0.5000 
    105 CA        -7.4074  -25.1104  -55.9050 C.3       19 UNK         0.1400 
    106 CB        -7.3070  -25.9792  -57.1766 C.3       19 UNK        -0.1800 
    107 C         -8.3496  -23.8958  -56.0606 C.2       19 UNK         0.5000 
    108 O         -9.0507  -23.7677  -57.0649 O.2       19 UNK        -0.5000 
    109 N         -8.3076  -23.0160  -55.0501 N.am      20 UNK        -0.5000 
    110 CA        -9.0220  -21.7438  -54.8903 C.3       20 UNK         0.1400 
    111 CB       -10.5475  -21.9211  -55.0298 C.3       20 UNK        -0.1800 
    112 C         -8.4910  -20.5820  -55.7566 C.2       20 UNK         0.5000 
    113 O         -8.9749  -19.4593  -55.5996 O.2       20 UNK        -0.5000 
    114 N         -7.4860  -20.8241  -56.6120 N.am      21 UNK        -0.5000 
    115 CA        -6.8592  -19.8057  -57.4625 C.3       21 UNK         0.1400 
    116 CB        -5.9618  -20.4874  -58.5052 C.3       21 UNK        -0.1800 
    117 C         -6.0632  -18.7437  -56.6757 C.2       21 UNK         0.5000 
    118 O         -5.8893  -17.6307  -57.1736 O.2       21 UNK        -0.5000 
    119 N         -5.6137  -19.0930  -55.4638 N.am      22 UNK        -0.5000 
    120 CA        -4.9598  -18.1881  -54.5061 C.3       22 UNK         0.1400 
    121 C         -5.9534  -17.2750  -53.7225 C.2       22 UNK         0.5000 
    122 N         -7.2659  -17.4300  -53.8655 N.am      22 UNK        -0.7600 
    123 O         -5.5297  -16.3972  -52.9764 O.2       22 UNK        -0.5000 
    124 C124       -4.0304  -18.9908  -53.5571 C.3       23 UNK        -0.0398 
    125 S125       -2.5403  -18.0909  -53.0167 S.3       23 UNK        -0.2404 
    126 C126       -2.5458  -18.4760  -51.2395 C.3       23 UNK        -0.0205 
    127 H127        6.5944  -15.8416  -47.3215 H         1 UNK         0.0600 
    128 H128        7.6436  -14.4212  -47.2989 H         1 UNK         0.0600 
    129 H129        7.0685  -15.0716  -48.8379 H         1 UNK         0.0600 
    130 H130        4.5380  -15.3529  -46.7285 H         1 UNK         0.3000 
    131 H131        2.5571  -14.5263  -46.4812 H         1 UNK         0.0600 
    132 H132        1.4989  -12.9344  -48.0774 H         1 UNK         0.0800 
    133 H133        3.0484  -12.5707  -48.7816 H         1 UNK         0.0800 
    134 H134        0.8279  -15.6386  -47.7600 H         1 UNK         0.0800 
    135 H135       -0.0669  -14.7542  -48.9754 H         1 UNK         0.0800 
    136 H136       -1.5713  -16.2072  -50.0816 H         1 UNK         0.1150 
    137 H137       -0.5015  -20.2477  -51.0115 H         1 UNK         0.1150 
    138 H138        2.3095  -17.6915  -49.0266 H         1 UNK         0.1150 
    139 H139        1.4677  -21.2130  -50.1140 H         1 UNK         0.0800 
    140 H140        2.6642  -20.1752  -50.8360 H         1 UNK         0.0800 
    141 H141        1.1638  -19.3547  -47.2825 H         1 UNK         0.0800 
    142 H142        2.4696  -19.8344  -46.2608 H         1 UNK         0.0800 
    143 H143        1.7862  -22.3003  -46.7098 H         1 UNK         0.0600 
    144 H144        0.8032  -20.4763  -44.7984 H         1 UNK         0.3000 
    145 H145       -1.1858  -22.7487  -42.8779 H         1 UNK         0.0600 
    146 H146        0.3090  -21.8482  -41.1269 H         1 UNK         0.0600 
    147 H147        1.1892  -22.9868  -42.1349 H         1 UNK         0.0600 
    148 H148        1.4377  -21.2575  -42.3440 H         1 UNK         0.0600 
    149 H149       -0.7004  -19.9753  -42.5446 H         1 UNK         0.3000 
    150 H150       -3.4450  -18.8026  -44.5699 H         1 UNK         0.0600 
    151 H151       -3.9415  -17.6889  -42.4200 H         1 UNK         0.0600 
    152 H152       -4.3230  -19.4003  -42.3076 H         1 UNK         0.0600 
    153 H153       -2.8544  -18.7798  -41.5638 H         1 UNK         0.0600 
    154 H154       -1.5256  -17.3289  -43.1167 H         1 UNK         0.3000 
    155 H155        0.9207  -17.0217  -45.7416 H         1 UNK         0.0600 
    156 H156       -0.9797  -15.0973  -44.2940 H         1 UNK         0.0600 
    157 H157       -0.8389  -15.2694  -46.0347 H         1 UNK         0.0600 
    158 H158        0.5172  -14.6498  -45.1006 H         1 UNK         0.0600 
    159 H159        1.0050  -16.0783  -43.0805 H         1 UNK         0.3000 
    160 H160        2.4671  -18.9800  -41.5515 H         1 UNK         0.0600 
    161 H161        3.4802  -16.1469  -42.1485 H         1 UNK         0.0600 
    162 H162        4.3112  -17.6430  -42.5407 H         1 UNK         0.0600 
    163 H163        4.0567  -17.2030  -40.8604 H         1 UNK         0.0600 
    164 H164        1.5450  -16.4287  -40.5742 H         1 UNK         0.3000 
    165 H165       -1.7230  -17.5126  -39.6441 H         1 UNK         0.0600 
    166 H166       -0.9311  -16.7708  -37.4143 H         1 UNK         0.0600 
    167 H167       -0.2425  -18.3379  -37.8070 H         1 UNK         0.0600 
    168 H168        0.7493  -16.8903  -37.9370 H         1 UNK         0.0600 
    169 H169       -0.2907  -15.0672  -39.2501 H         1 UNK         0.3000 
    170 H170       -1.0851  -13.5215  -42.3489 H         1 UNK         0.0600 
    171 H171       -3.1547  -13.2069  -40.9859 H         1 UNK         0.0600 
    172 H172       -2.1841  -12.9943  -39.5337 H         1 UNK         0.0600 
    173 H173       -2.0858  -11.8204  -40.8468 H         1 UNK         0.0600 
    174 H174        0.2220  -12.5832  -39.9886 H         1 UNK         0.3000 
    175 H175        2.4953  -12.1242  -40.1397 H         1 UNK         0.0600 
    176 H176        3.2374  -15.0854  -39.6869 H         1 UNK         0.0600 
    177 H177        3.7726  -13.7234  -38.7099 H         1 UNK         0.0600 
    178 H178        2.0900  -14.1980  -38.6915 H         1 UNK         0.0600 
    179 H179        3.5540  -13.4219  -42.3833 H         1 UNK         0.3000 
    180 H180        6.8562  -12.0226  -42.1178 H         1 UNK         0.0600 
    181 H181        5.7485  -14.7624  -42.9429 H         1 UNK         0.0600 
    182 H182        6.9856  -14.4945  -41.7213 H         1 UNK         0.0600 
    183 H183        7.3134  -14.0887  -43.3982 H         1 UNK         0.0600 
    184 H184        5.4008  -12.7762  -44.4100 H         1 UNK         0.3000 
    185 H185        3.4800  -10.0342  -45.0785 H         1 UNK         0.0600 
    186 H186        5.5612   -8.6813  -45.3536 H         1 UNK         0.0600 
    187 H187        6.3676  -10.0493  -46.1129 H         1 UNK         0.0600 
    188 H188        4.9922   -9.2792  -46.9035 H         1 UNK         0.0600 
    189 H189        4.8907  -11.8757  -46.8151 H         1 UNK         0.3000 
    190 H190       -1.1610  -20.2170  -46.8050 H         1 UNK         0.3000 
    191 H191       -2.1480  -21.1121  -49.2853 H         1 UNK         0.0600 
    192 H192       -2.9335  -19.0518  -48.1517 H         1 UNK         0.0600 
    193 H193       -4.2927  -20.1052  -48.5174 H         1 UNK         0.0600 
    194 H194       -3.6752  -20.0076  -46.8716 H         1 UNK         0.0600 
    195 H195       -2.7734  -22.3924  -45.9882 H         1 UNK         0.3000 
    196 H196       -4.6111  -24.4176  -46.7329 H         1 UNK         0.0600 
    197 H197       -4.0288  -25.3986  -44.5086 H         1 UNK         0.0600 
    198 H198       -4.3143  -23.6685  -44.3966 H         1 UNK         0.0600 
    199 H199       -2.6675  -24.2930  -44.3670 H         1 UNK         0.0600 
    200 H200       -1.0247  -24.5443  -46.3777 H         1 UNK         0.3000 
    201 H201       -0.6984  -27.2736  -47.0786 H         1 UNK         0.0600 
    202 H202        1.0483  -25.9515  -45.9270 H         1 UNK         0.0600 
    203 H203        1.2421  -24.9150  -47.3385 H         1 UNK         0.0600 
    204 H204        1.6906  -26.6147  -47.4221 H         1 UNK         0.0600 
    205 H205       -0.7972  -24.3341  -49.0934 H         1 UNK         0.3000 
    206 H206       -0.2903  -25.6727  -51.6055 H         1 UNK         0.0600 
    207 H207        0.2401  -23.2687  -51.1992 H         1 UNK         0.0600 
    208 H208       -0.8784  -23.4356  -52.5422 H         1 UNK         0.0600 
    209 H209       -1.4705  -22.9130  -50.9702 H         1 UNK         0.0600 
    210 H210       -3.0310  -25.7425  -49.6222 H         1 UNK         0.3000 
    211 H211       -5.1978  -26.1532  -49.7921 H         1 UNK         0.0600 
    212 H212       -4.5548  -27.4529  -52.4961 H         1 UNK         0.0600 
    213 H213       -5.9875  -27.7382  -51.5177 H         1 UNK         0.0600 
    214 H214       -4.4129  -28.2442  -50.9270 H         1 UNK         0.0600 
    215 H215       -4.4314  -23.6186  -50.4228 H         1 UNK         0.3000 
    216 H216       -4.8491  -21.6743  -51.3523 H         1 UNK         0.0600 
    217 H217       -7.2070  -21.0945  -51.8345 H         1 UNK         0.0600 
    218 H218       -7.1195  -22.1096  -50.4067 H         1 UNK         0.0600 
    219 H219       -7.6398  -22.7975  -51.9428 H         1 UNK         0.0600 
    220 H220       -3.8266  -23.8695  -53.1843 H         1 UNK         0.3000 
    221 H221       -3.2800  -24.3087  -55.2630 H         1 UNK         0.0600 
    222 H222       -3.8965  -21.3824  -55.9316 H         1 UNK         0.0600 
    223 H223       -2.3781  -21.9608  -55.2476 H         1 UNK         0.0600 
    224 H224       -2.8765  -22.4759  -56.8510 H         1 UNK         0.0600 
    225 H225       -5.8693  -24.9868  -54.4692 H         1 UNK         0.3000 
    226 H226       -7.8403  -25.7313  -55.1193 H         1 UNK         0.0600 
    227 H227       -6.6352  -26.8238  -57.0243 H         1 UNK         0.0600 
    228 H228       -8.2824  -26.3852  -57.4467 H         1 UNK         0.0600 
    229 H229       -6.9437  -25.4115  -58.0335 H         1 UNK         0.0600 
    230 H230       -7.6394  -23.2071  -54.3167 H         1 UNK         0.3000 
    231 H231       -8.8309  -21.4408  -53.8602 H         1 UNK         0.0600 
    232 H232      -10.8414  -22.1381  -56.0568 H         1 UNK         0.0600 
    233 H233      -11.0732  -21.0138  -54.7301 H         1 UNK         0.0600 
    234 H234      -10.9116  -22.7295  -54.3958 H         1 UNK         0.0600 
    235 H235       -7.1075  -21.7601  -56.6666 H         1 UNK         0.3000 
    236 H236       -7.6574  -19.2854  -57.9960 H         1 UNK         0.0600 
    237 H237       -6.5077  -21.2479  -59.0640 H         1 UNK         0.0600 
    238 H238       -5.5837  -19.7616  -59.2261 H         1 UNK         0.0600 
    239 H239       -5.0982  -20.9645  -58.0425 H         1 UNK         0.0600 
    240 H240       -5.8117  -20.0288  -55.1178 H         1 UNK         0.3000 
    241 H241       -4.3322  -17.5122  -55.0899 H         1 UNK         0.0600 
    242 H242       -7.6488  -18.1281  -54.4898 H         1 UNK         0.3800 
    243 H243       -7.8899  -16.8248  -53.3559 H         1 UNK         0.3800 
    244 H244       -4.5898  -19.3638  -52.6979 H         1 UNK         0.0800 
    245 H245       -3.6520  -19.8764  -54.0670 H         1 UNK         0.0800 
    246 H246       -3.2989  -17.8657  -50.7383 H         1 UNK         0.0800 
    247 H247       -2.8403  -19.5156  -51.0894 H         1 UNK         0.0800 
@<TRIPOS>BOND
     1    1    2 1    
     2    1  127 1    
     3    1  128 1    
     4    1  129 1    
     5    2    3 2    
     6    2    4 am   BACKBONE|DICT|INTERRES
     7    4    5 1    
     8    4  130 1    
     9    5    6 1    
    10    5   65 1    
    11    5  131 1    
    12    6    7 1    
    13    6  132 1    
    14    6  133 1    
    15    7    8 1    
    16    8    9 1    
    17    8  134 1    
    18    8  135 1    
    19    9   10 ar   
    20    9   14 ar   
    21   10   11 ar   
    22   10  136 1    
    23   11   12 ar   
    24   11  126 1    
    25   12   13 ar   
    26   12  137 1    
    27   13   14 ar   
    28   13   15 1    
    29   14  138 1    
    30   15   16 1    
    31   15  139 1    
    32   15  140 1    
    33   16   17 1    
    34   17   18 1    
    35   17  141 1    
    36   17  142 1    
    37   18   19 1    
    38   18   67 1    
    39   18  143 1    
    40   19   20 am   BACKBONE|DICT|INTERRES
    41   19  144 1    
    42   20   21 2    
    43   20   22 1    
    44   22   23 1    
    45   22   24 1    
    46   22  145 1    
    47   23  146 1    
    48   23  147 1    
    49   23  148 1    
    50   24   25 am   BACKBONE|DICT|INTERRES
    51   24  149 1    
    52   25   26 2    
    53   25   27 1    
    54   27   28 1    
    55   27   29 1    
    56   27  150 1    
    57   28  151 1    
    58   28  152 1    
    59   28  153 1    
    60   29   30 am   BACKBONE|DICT|INTERRES
    61   29  154 1    
    62   30   31 2    
    63   30   32 1    
    64   32   33 1    
    65   32   34 1    
    66   32  155 1    
    67   33  156 1    
    68   33  157 1    
    69   33  158 1    
    70   34   35 am   BACKBONE|DICT|INTERRES
    71   34  159 1    
    72   35   36 2    
    73   35   37 1    
    74   37   38 1    
    75   37   39 1    
    76   37  160 1    
    77   38  161 1    
    78   38  162 1    
    79   38  163 1    
    80   39   40 am   BACKBONE|DICT|INTERRES
    81   39  164 1    
    82   40   41 2    
    83   40   42 1    
    84   42   43 1    
    85   42   44 1    
    86   42  165 1    
    87   43  166 1    
    88   43  167 1    
    89   43  168 1    
    90   44   45 am   BACKBONE|DICT|INTERRES
    91   44  169 1    
    92   45   46 2    
    93   45   47 1    
    94   47   48 1    
    95   47   49 1    
    96   47  170 1    
    97   48  171 1    
    98   48  172 1    
    99   48  173 1    
   100   49   50 am   BACKBONE|DICT|INTERRES
   101   49  174 1    
   102   50   51 2    
   103   50   52 1    
   104   52   53 1    
   105   52   54 1    
   106   52  175 1    
   107   53  176 1    
   108   53  177 1    
   109   53  178 1    
   110   54   55 am   BACKBONE|DICT|INTERRES
   111   54  179 1    
   112   55   56 2    
   113   55   57 1    
   114   57   58 1    
   115   57   59 1    
   116   57  180 1    
   117   58  181 1    
   118   58  182 1    
   119   58  183 1    
   120   59   60 am   BACKBONE|DICT|INTERRES
   121   59  184 1    
   122   60   61 2    
   123   60   62 1    
   124   62   63 1    
   125   62   64 1    
   126   62  185 1    
   127   63  186 1    
   128   63  187 1    
   129   63  188 1    
   130   64   65 am   BACKBONE|DICT|INTERRES
   131   64  189 1    
   132   65   66 2    
   133   67   68 2    
   134   67   69 am   BACKBONE|DICT|INTERRES
   135   69   70 1    
   136   69  190 1    
   137   70   71 1    
   138   70   72 1    
   139   70  191 1    
   140   71  192 1    
   141   71  193 1    
   142   71  194 1    
   143   72   73 2    
   144   72   74 am   BACKBONE|DICT|INTERRES
   145   74   75 1    
   146   74  195 1    
   147   75   76 1    
   148   75   77 1    
   149   75  196 1    
   150   76  197 1    
   151   76  198 1    
   152   76  199 1    
   153   77   78 2    
   154   77   79 am   BACKBONE|DICT|INTERRES
   155   79   80 1    
   156   79  200 1    
   157   80   81 1    
   158   80   82 1    
   159   80  201 1    
   160   81  202 1    
   161   81  203 1    
   162   81  204 1    
   163   82   83 2    
   164   82   84 am   BACKBONE|DICT|INTERRES
   165   84   85 1    
   166   84  205 1    
   167   85   86 1    
   168   85   87 1    
   169   85  206 1    
   170   86  207 1    
   171   86  208 1    
   172   86  209 1    
   173   87   88 2    
   174   87   89 am   BACKBONE|DICT|INTERRES
   175   89   90 1    
   176   89  210 1    
   177   90   91 1    
   178   90   92 1    
   179   90  211 1    
   180   91  212 1    
   181   91  213 1    
   182   91  214 1    
   183   92   93 2    
   184   92   94 am   BACKBONE|DICT|INTERRES
   185   94   95 1    
   186   94  215 1    
   187   95   96 1    
   188   95   97 1    
   189   95  216 1    
   190   96  217 1    
   191   96  218 1    
   192   96  219 1    
   193   97   98 2    
   194   97   99 am   BACKBONE|DICT|INTERRES
   195   99  100 1    
   196   99  220 1    
   197  100  101 1    
   198  100  102 1    
   199  100  221 1    
   200  101  222 1    
   201  101  223 1    
   202  101  224 1    
   203  102  103 2    
   204  102  104 am   BACKBONE|DICT|INTERRES
   205  104  105 1    
   206  104  225 1    
   207  105  106 1    
   208  105  107 1    
   209  105  226 1    
   210  106  227 1    
   211  106  228 1    
   212  106  229 1    
   213  107  108 2    
   214  107  109 am   BACKBONE|DICT|INTERRES
   215  109  110 1    
   216  109  230 1    
   217  110  111 1    
   218  110  112 1    
   219  110  231 1    
   220  111  232 1    
   221  111  233 1    
   222  111  234 1    
   223  112  113 2    
   224  112  114 am   BACKBONE|DICT|INTERRES
   225  114  115 1    
   226  114  235 1    
   227  115  116 1    
   228  115  117 1    
   229  115  236 1    
   230  116  237 1    
   231  116  238 1    
   232  116  239 1    
   233  117  118 2    
   234  117  119 am   BACKBONE|DICT|INTERRES
   235  119  120 1    
   236  119  240 1    
   237  120  121 1    
   238  120  124 1    
   239  120  241 1    
   240  121  122 am   BACKBONE|DICT|INTERRES
   241  121  123 2    
   242  122  242 1    
   243  122  243 1    
   244  124  125 1    
   245  124  244 1    
   246  124  245 1    
   247  125  126 1    
   248  126  246 1    
   249  126  247 1    
@<TRIPOS>SUBSTRUCTURE
     1 UNK         1 GROUP             0       ****    0 ROOT    
