@<TRIPOS>MOLECULE
3R540
247   249    1
SMALL
USER_CHARGES


@<TRIPOS>ATOM
      1 CA          1.5944  -12.1155  -46.8119 C.3       0 UNK        -0.1800 
      2 C           0.9319  -13.4533  -47.1044 C.2       0 UNK         0.5000 
      3 O           0.6989  -14.2337  -46.1787 O.2       0 UNK        -0.5000 
      4 N           0.6274  -13.7180  -48.3822 N.am      1 UNK        -0.5000 
      5 CA         -0.0223  -14.9387  -48.8683 C.3       1 UNK         0.1400 
      6 C6         -0.1094  -14.9613  -50.4138 C.3       23 UNK        -0.0398 
      7 S7         -0.4756  -16.6324  -51.0437 S.3       23 UNK        -0.2404 
      8 C8          1.1632  -17.1986  -51.5869 C.3       23 UNK        -0.0205 
      9 C9          1.2718  -18.7100  -51.4747 C.ar      23 UNK        -0.0193 
     10 C10         0.5577  -19.5357  -52.3457 C.ar      23 UNK        -0.1150 
     11 C11         0.6485  -20.9264  -52.2418 C.ar      23 UNK        -0.0193 
     12 C12         1.4559  -21.4869  -51.2470 C.ar      23 UNK        -0.1150 
     13 C13         2.1673  -20.6744  -50.3583 C.ar      23 UNK        -0.0193 
     14 C14         2.0789  -19.2837  -50.4901 C.ar      23 UNK        -0.1150 
     15 C15         3.0418  -21.3228  -49.2862 C.3       23 UNK        -0.0205 
     16 S16         3.1390  -20.3923  -47.7173 S.3       23 UNK        -0.2404 
     17 C17         1.4314  -20.5346  -47.0849 C.3       23 UNK        -0.0398 
     18 CA          1.2677  -21.6526  -46.0226 C.3       11 UNK         0.1400 
     19 N           2.1728  -21.4817  -44.8793 N.am      11 UNK        -0.5000 
     20 C           3.2427  -22.2475  -44.6270 C.2       10 UNK         0.5000 
     21 O           3.5380  -23.2576  -45.2662 O.2       10 UNK        -0.5000 
     22 CA          4.1298  -21.8090  -43.4524 C.3       10 UNK         0.1400 
     23 CB          5.0326  -20.6345  -43.8641 C.3       10 UNK        -0.1800 
     24 N           3.3254  -21.4137  -42.2998 N.am      10 UNK        -0.5000 
     25 C           2.8588  -22.2565  -41.3696 C.2       9 UNK         0.5000 
     26 O           3.0601  -23.4717  -41.3936 O.2       9 UNK        -0.5000 
     27 CA          2.0174  -21.6365  -40.2333 C.3       9 UNK         0.1400 
     28 CB          2.0542  -22.4645  -38.9323 C.3       9 UNK        -0.1800 
     29 N           2.3366  -20.2283  -39.9721 N.am      9 UNK        -0.5000 
     30 C           3.4976  -19.7155  -39.5334 C.2       8 UNK         0.5000 
     31 O           4.4799  -20.3984  -39.2415 O.2       8 UNK        -0.5000 
     32 CA          3.6013  -18.1785  -39.4295 C.3       8 UNK         0.1400 
     33 CB          4.5861  -17.6459  -40.4833 C.3       8 UNK        -0.1800 
     34 N           2.3209  -17.4880  -39.5991 N.am      8 UNK        -0.5000 
     35 C           1.3358  -17.4443  -38.6918 C.2       7 UNK         0.5000 
     36 O           1.4275  -17.9162  -37.5583 O.2       7 UNK        -0.5000 
     37 CA          0.0057  -16.8151  -39.1529 C.3       7 UNK         0.1400 
     38 CB          0.0277  -15.2916  -38.9607 C.3       7 UNK        -0.1800 
     39 N          -0.3210  -17.1267  -40.5485 N.am      7 UNK        -0.5000 
     40 C          -0.5410  -18.3600  -41.0268 C.2       6 UNK         0.5000 
     41 O          -0.5200  -19.3724  -40.3297 O.2       6 UNK        -0.5000 
     42 CA         -0.7549  -18.4990  -42.5424 C.3       6 UNK         0.1400 
     43 CB         -2.2110  -18.2095  -42.9316 C.3       6 UNK        -0.1800 
     44 N           0.1575  -17.6309  -43.2855 N.am      6 UNK        -0.5000 
     45 C           1.4322  -17.9500  -43.5518 C.2       5 UNK         0.5000 
     46 O           1.9198  -19.0544  -43.3042 O.2       5 UNK        -0.5000 
     47 CA          2.3184  -16.8608  -44.1866 C.3       5 UNK         0.1400 
     48 CB          2.3857  -17.0380  -45.7090 C.3       5 UNK        -0.1800 
     49 N           1.8683  -15.5023  -43.8820 N.am      5 UNK        -0.5000 
     50 C           1.9700  -14.9272  -42.6756 C.2       4 UNK         0.5000 
     51 O           2.4599  -15.4865  -41.6960 O.2       4 UNK        -0.5000 
     52 CA          1.3692  -13.5171  -42.5210 C.3       4 UNK         0.1400 
     53 CB          2.3844  -12.4488  -42.9514 C.3       4 UNK        -0.1800 
     54 N           0.1239  -13.3345  -43.2700 N.am      4 UNK        -0.5000 
     55 C          -0.9881  -14.0610  -43.0986 C.2       3 UNK         0.5000 
     56 O          -1.0855  -14.9654  -42.2691 O.2       3 UNK        -0.5000 
     57 CA         -2.1607  -13.7936  -44.0492 C.3       3 UNK         0.1400 
     58 CB         -2.1710  -12.3748  -44.6511 C.3       3 UNK        -0.1800 
     59 N          -2.0702  -14.7728  -45.1249 N.am      3 UNK        -0.5000 
     60 C          -3.0409  -15.6146  -45.5008 C.2       2 UNK         0.5000 
     61 O          -4.1541  -15.6455  -44.9743 O.2       2 UNK        -0.5000 
     62 CA         -2.7074  -16.6093  -46.6382 C.3       2 UNK         0.1400 
     63 CB         -3.9252  -16.9255  -47.5295 C.3       2 UNK        -0.1800 
     64 N          -1.5450  -16.2298  -47.4518 N.am      2 UNK        -0.5000 
     65 C          -1.4060  -15.1315  -48.2098 C.2       1 UNK         0.5000 
     66 O          -2.2793  -14.2762  -48.3686 O.2       1 UNK        -0.5000 
     67 C          -0.1972  -21.7807  -45.5579 C.2       11 UNK         0.5000 
     68 O          -1.1054  -21.6407  -46.3782 O.2       11 UNK        -0.5000 
     69 N          -0.4191  -22.0694  -44.2663 N.am      12 UNK        -0.5000 
     70 CA         -1.7453  -22.2393  -43.6602 C.3       12 UNK         0.1400 
     71 CB         -1.5914  -22.4363  -42.1447 C.3       12 UNK        -0.1800 
     72 C          -2.5556  -23.4007  -44.2666 C.2       12 UNK         0.5000 
     73 O          -3.7712  -23.2815  -44.4183 O.2       12 UNK        -0.5000 
     74 N          -1.8602  -24.4900  -44.6207 N.am      13 UNK        -0.5000 
     75 CA         -2.4385  -25.6597  -45.2834 C.3       13 UNK         0.1400 
     76 CB         -1.4941  -26.8570  -45.0952 C.3       13 UNK        -0.1800 
     77 C          -2.7133  -25.4220  -46.7808 C.2       13 UNK         0.5000 
     78 O          -3.6098  -26.0570  -47.3372 O.2       13 UNK        -0.5000 
     79 N          -1.9357  -24.5269  -47.4064 N.am      14 UNK        -0.5000 
     80 CA         -2.0733  -24.1552  -48.8132 C.3       14 UNK         0.1400 
     81 CB         -0.7441  -23.5855  -49.3325 C.3       14 UNK        -0.1800 
     82 C          -3.2156  -23.1504  -49.0253 C.2       14 UNK         0.5000 
     83 O          -3.9884  -23.3085  -49.9703 O.2       14 UNK        -0.5000 
     84 N          -3.2918  -22.1340  -48.1501 N.am      15 UNK        -0.5000 
     85 CA         -4.3076  -21.0736  -48.1070 C.3       15 UNK         0.1400 
     86 CB         -5.6412  -21.6431  -47.5835 C.3       15 UNK        -0.1800 
     87 C          -4.4603  -20.3299  -49.4522 C.2       15 UNK         0.5000 
     88 O          -5.5788  -20.1088  -49.9200 O.2       15 UNK        -0.5000 
     89 N          -3.3135  -20.0265  -50.0812 N.am      16 UNK        -0.5000 
     90 CA         -3.1509  -19.4174  -51.4102 C.3       16 UNK         0.1400 
     91 CB         -3.7459  -17.9937  -51.4375 C.3       16 UNK        -0.1800 
     92 C          -3.6942  -20.2697  -52.5793 C.2       16 UNK         0.5000 
     93 O          -3.7847  -19.7656  -53.6981 O.2       16 UNK        -0.5000 
     94 N          -4.0644  -21.5330  -52.3144 N.am      17 UNK        -0.5000 
     95 CA         -4.8707  -22.4036  -53.1763 C.3       17 UNK         0.1400 
     96 CB         -4.0943  -22.8077  -54.4465 C.3       17 UNK        -0.1800 
     97 C          -6.2608  -21.7919  -53.4689 C.2       17 UNK         0.5000 
     98 O          -6.7899  -21.9473  -54.5711 O.2       17 UNK        -0.5000 
     99 N          -6.8127  -21.0800  -52.4725 N.am      18 UNK        -0.5000 
    100 CA        -8.0404  -20.2880  -52.5265 C.3       18 UNK         0.1400 
    101 CB        -9.2785  -21.2058  -52.6491 C.3       18 UNK        -0.1800 
    102 C         -7.9429  -19.1869  -53.6041 C.2       18 UNK         0.5000 
    103 O         -7.0273  -18.3646  -53.5465 O.2       18 UNK        -0.5000 
    104 N         -8.8731  -19.1850  -54.5659 N.am      19 UNK        -0.5000 
    105 CA        -8.9494  -18.2118  -55.6559 C.3       19 UNK         0.1400 
    106 CB       -10.3647  -18.2618  -56.2539 C.3       19 UNK        -0.1800 
    107 C         -7.8907  -18.4134  -56.7601 C.2       19 UNK         0.5000 
    108 O         -7.7290  -17.5220  -57.5948 O.2       19 UNK        -0.5000 
    109 N         -7.2070  -19.5682  -56.7775 N.am      20 UNK        -0.5000 
    110 CA        -6.2450  -19.9318  -57.8215 C.3       20 UNK         0.1400 
    111 CB        -6.0058  -21.4488  -57.7910 C.3       20 UNK        -0.1800 
    112 C         -4.9050  -19.1754  -57.7408 C.2       20 UNK         0.5000 
    113 O         -4.1776  -19.1618  -58.7350 O.2       20 UNK        -0.5000 
    114 N         -4.5815  -18.5903  -56.5753 N.am      21 UNK        -0.5000 
    115 CA        -3.3504  -17.8382  -56.2808 C.3       21 UNK         0.1400 
    116 CB        -3.3562  -16.4882  -57.0270 C.3       21 UNK        -0.1800 
    117 C         -2.0687  -18.6642  -56.5401 C.2       21 UNK         0.5000 
    118 O         -1.0873  -18.1520  -57.0811 O.2       21 UNK        -0.5000 
    119 N         -2.1338  -19.9506  -56.1780 N.am      22 UNK        -0.5000 
    120 CA        -1.1438  -21.0039  -56.4542 C.3       22 UNK         0.1400 
    121 C         -1.0004  -21.4169  -57.9530 C.2       22 UNK         0.5000 
    122 N         -1.8477  -20.9570  -58.8662 N.am      22 UNK        -0.7600 
    123 O         -0.1207  -22.2015  -58.2970 O.2       22 UNK        -0.5000 
    124 C124        0.2262  -20.7422  -55.7565 C.3       23 UNK        -0.0398 
    125 S125        0.7594  -22.1559  -54.7327 S.3       23 UNK        -0.2404 
    126 C126       -0.1385  -21.8266  -53.1835 C.3       23 UNK        -0.0205 
    127 H127        1.6189  -11.4748  -47.6936 H         1 UNK         0.0600 
    128 H128        1.0538  -11.5890  -46.0259 H         1 UNK         0.0600 
    129 H129        2.6193  -12.2732  -46.4772 H         1 UNK         0.0600 
    130 H130        0.8204  -13.0177  -49.0835 H         1 UNK         0.3000 
    131 H131        0.6261  -15.7628  -48.5615 H         1 UNK         0.0600 
    132 H132        0.8285  -14.6183  -50.8529 H         1 UNK         0.0800 
    133 H133       -0.8744  -14.2715  -50.7750 H         1 UNK         0.0800 
    134 H134        1.9400  -16.7216  -50.9872 H         1 UNK         0.0800 
    135 H135        1.3320  -16.8889  -52.6191 H         1 UNK         0.0800 
    136 H136       -0.0806  -19.0860  -53.0919 H         1 UNK         0.1150 
    137 H137        1.5293  -22.5623  -51.1646 H         1 UNK         0.1150 
    138 H138        2.6343  -18.6420  -49.8214 H         1 UNK         0.1150 
    139 H139        4.0503  -21.4299  -49.6872 H         1 UNK         0.0800 
    140 H140        2.6881  -22.3313  -49.0659 H         1 UNK         0.0800 
    141 H141        1.1459  -19.5712  -46.6621 H         1 UNK         0.0800 
    142 H142        0.7600  -20.6971  -47.9293 H         1 UNK         0.0800 
    143 H143        1.4814  -22.6002  -46.5207 H         1 UNK         0.0600 
    144 H144        2.0267  -20.6538  -44.3068 H         1 UNK         0.3000 
    145 H145        4.7723  -22.6482  -43.1769 H         1 UNK         0.0600 
    146 H146        5.6919  -20.3405  -43.0472 H         1 UNK         0.0600 
    147 H147        5.6635  -20.9074  -44.7109 H         1 UNK         0.0600 
    148 H148        4.4534  -19.7583  -44.1578 H         1 UNK         0.0600 
    149 H149        3.0521  -20.4391  -42.2541 H         1 UNK         0.3000 
    150 H150        0.9885  -21.6468  -40.5912 H         1 UNK         0.0600 
    151 H151        1.6587  -23.4676  -39.0955 H         1 UNK         0.0600 
    152 H152        1.4471  -22.0012  -38.1545 H         1 UNK         0.0600 
    153 H153        3.0685  -22.5729  -38.5476 H         1 UNK         0.0600 
    154 H154        1.5753  -19.5850  -40.1505 H         1 UNK         0.3000 
    155 H155        3.9950  -17.9419  -38.4390 H         1 UNK         0.0600 
    156 H156        5.5692  -18.1052  -40.3729 H         1 UNK         0.0600 
    157 H157        4.7207  -16.5683  -40.3883 H         1 UNK         0.0600 
    158 H158        4.2388  -17.8525  -41.4965 H         1 UNK         0.0600 
    159 H159        2.1940  -16.9858  -40.4732 H         1 UNK         0.3000 
    160 H160       -0.7899  -17.2259  -38.5280 H         1 UNK         0.0600 
    161 H161        0.8172  -14.8240  -39.5486 H         1 UNK         0.0600 
    162 H162       -0.9208  -14.8420  -39.2552 H         1 UNK         0.0600 
    163 H163        0.2011  -15.0333  -37.9154 H         1 UNK         0.0600 
    164 H164       -0.4156  -16.3355  -41.1801 H         1 UNK         0.3000 
    165 H165       -0.5480  -19.5363  -42.8099 H         1 UNK         0.0600 
    166 H166       -2.3853  -18.4333  -43.9827 H         1 UNK         0.0600 
    167 H167       -2.8978  -18.8303  -42.3547 H         1 UNK         0.0600 
    168 H168       -2.4848  -17.1693  -42.7552 H         1 UNK         0.0600 
    169 H169       -0.1527  -16.6850  -43.4576 H         1 UNK         0.3000 
    170 H170        3.3270  -16.9829  -43.7866 H         1 UNK         0.0600 
    171 H171        2.8388  -17.9955  -45.9639 H         1 UNK         0.0600 
    172 H172        1.3965  -17.0013  -46.1660 H         1 UNK         0.0600 
    173 H173        2.9957  -16.2615  -46.1710 H         1 UNK         0.0600 
    174 H174        1.4470  -14.9785  -44.6461 H         1 UNK         0.3000 
    175 H175        1.1433  -13.3660  -41.4639 H         1 UNK         0.0600 
    176 H176        2.6487  -12.5461  -44.0045 H         1 UNK         0.0600 
    177 H177        1.9929  -11.4438  -42.7933 H         1 UNK         0.0600 
    178 H178        3.3059  -12.5327  -42.3736 H         1 UNK         0.0600 
    179 H179        0.1355  -12.6401  -44.0016 H         1 UNK         0.3000 
    180 H180       -3.0756  -13.9286  -43.4688 H         1 UNK         0.0600 
    181 H181       -2.1449  -11.6143  -43.8697 H         1 UNK         0.0600 
    182 H182       -1.3276  -12.2016  -45.3194 H         1 UNK         0.0600 
    183 H183       -3.0804  -12.2108  -45.2297 H         1 UNK         0.0600 
    184 H184       -1.1783  -14.8089  -45.6072 H         1 UNK         0.3000 
    185 H185       -2.4251  -17.5387  -46.1435 H         1 UNK         0.0600 
    186 H186       -4.7447  -17.3451  -46.9450 H         1 UNK         0.0600 
    187 H187       -4.3041  -16.0354  -48.0322 H         1 UNK         0.0600 
    188 H188       -3.6681  -17.6582  -48.2921 H         1 UNK         0.0600 
    189 H189       -0.7566  -16.8571  -47.3869 H         1 UNK         0.3000 
    190 H190        0.3808  -22.1955  -43.6643 H         1 UNK         0.3000 
    191 H191       -2.3108  -21.3209  -43.8317 H         1 UNK         0.0600 
    192 H192       -2.5625  -22.5750  -41.6675 H         1 UNK         0.0600 
    193 H193       -1.1290  -21.5694  -41.6781 H         1 UNK         0.0600 
    194 H194       -0.9822  -23.3098  -41.9095 H         1 UNK         0.0600 
    195 H195       -0.8671  -24.5102  -44.4416 H         1 UNK         0.3000 
    196 H196       -3.3907  -25.8991  -44.8048 H         1 UNK         0.0600 
    197 H197       -1.9067  -27.7556  -45.5558 H         1 UNK         0.0600 
    198 H198       -1.3412  -27.0764  -44.0384 H         1 UNK         0.0600 
    199 H199       -0.5176  -26.6758  -45.5462 H         1 UNK         0.0600 
    200 H200       -1.2573  -24.0158  -46.8633 H         1 UNK         0.3000 
    201 H201       -2.3020  -25.0514  -49.3943 H         1 UNK         0.0600 
    202 H202       -0.4520  -22.6776  -48.8057 H         1 UNK         0.0600 
    203 H203       -0.8217  -23.3373  -50.3909 H         1 UNK         0.0600 
    204 H204        0.0644  -24.3090  -49.2274 H         1 UNK         0.0600 
    205 H205       -2.5667  -22.0646  -47.4391 H         1 UNK         0.3000 
    206 H206       -3.9552  -20.3352  -47.3853 H         1 UNK         0.0600 
    207 H207       -6.0673  -22.3721  -48.2737 H         1 UNK         0.0600 
    208 H208       -5.5061  -22.1343  -46.6196 H         1 UNK         0.0600 
    209 H209       -6.3784  -20.8516  -47.4439 H         1 UNK         0.0600 
    210 H210       -2.4526  -20.2843  -49.6197 H         1 UNK         0.3000 
    211 H211       -2.0778  -19.3294  -51.5706 H         1 UNK         0.0600 
    212 H212       -4.8348  -18.0062  -51.3819 H         1 UNK         0.0600 
    213 H213       -3.4761  -17.4759  -52.3586 H         1 UNK         0.0600 
    214 H214       -3.3735  -17.3892  -50.6118 H         1 UNK         0.0600 
    215 H215       -3.9427  -21.8829  -51.3695 H         1 UNK         0.3000 
    216 H216       -5.0560  -23.3125  -52.6025 H         1 UNK         0.0600 
    217 H217       -3.9417  -21.9624  -55.1149 H         1 UNK         0.0600 
    218 H218       -4.6361  -23.5702  -55.0070 H         1 UNK         0.0600 
    219 H219       -3.1170  -23.2207  -54.1970 H         1 UNK         0.0600 
    220 H220       -6.2700  -20.9495  -51.6243 H         1 UNK         0.3000 
    221 H221       -8.1090  -19.7685  -51.5696 H         1 UNK         0.0600 
    222 H222       -9.2908  -21.7657  -53.5847 H         1 UNK         0.0600 
    223 H223       -9.3040  -21.9299  -51.8347 H         1 UNK         0.0600 
    224 H224      -10.2032  -20.6303  -52.5905 H         1 UNK         0.0600 
    225 H225       -9.5776  -19.9083  -54.5562 H         1 UNK         0.3000 
    226 H226       -8.7932  -17.2149  -55.2383 H         1 UNK         0.0600 
    227 H227      -11.1208  -18.0486  -55.4979 H         1 UNK         0.0600 
    228 H228      -10.4831  -17.5206  -57.0456 H         1 UNK         0.0600 
    229 H229      -10.5850  -19.2395  -56.6844 H         1 UNK         0.0600 
    230 H230       -7.3698  -20.2519  -56.0483 H         1 UNK         0.3000 
    231 H231       -6.6910  -19.6886  -58.7883 H         1 UNK         0.0600 
    232 H232       -5.5119  -21.7593  -56.8719 H         1 UNK         0.0600 
    233 H233       -6.9424  -22.0006  -57.8725 H         1 UNK         0.0600 
    234 H234       -5.3712  -21.7609  -58.6214 H         1 UNK         0.0600 
    235 H235       -5.2208  -18.6975  -55.7987 H         1 UNK         0.3000 
    236 H236       -3.3654  -17.6202  -55.2123 H         1 UNK         0.0600 
    237 H237       -4.2637  -15.9240  -56.8118 H         1 UNK         0.0600 
    238 H238       -2.5106  -15.8700  -56.7236 H         1 UNK         0.0600 
    239 H239       -3.2933  -16.6223  -58.1074 H         1 UNK         0.0600 
    240 H240       -2.9652  -20.2401  -55.6781 H         1 UNK         0.3000 
    241 H241       -1.5939  -21.8856  -55.9982 H         1 UNK         0.0600 
    242 H242       -1.7377  -21.2499  -59.8239 H         1 UNK         0.3800 
    243 H243       -2.5809  -20.2951  -58.6336 H         1 UNK         0.3800 
    244 H244        0.1870  -19.8544  -55.1297 H         1 UNK         0.0800 
    245 H245        1.0122  -20.5263  -56.4821 H         1 UNK         0.0800 
    246 H246       -1.1104  -21.3864  -53.4063 H         1 UNK         0.0800 
    247 H247       -0.3468  -22.7806  -52.6980 H         1 UNK         0.0800 
@<TRIPOS>BOND
     1    1    2 1    
     2    1  127 1    
     3    1  128 1    
     4    1  129 1    
     5    2    3 2    
     6    2    4 am   BACKBONE|DICT|INTERRES
     7    4    5 1    
     8    4  130 1    
     9    5    6 1    
    10    5   65 1    
    11    5  131 1    
    12    6    7 1    
    13    6  132 1    
    14    6  133 1    
    15    7    8 1    
    16    8    9 1    
    17    8  134 1    
    18    8  135 1    
    19    9   10 ar   
    20    9   14 ar   
    21   10   11 ar   
    22   10  136 1    
    23   11   12 ar   
    24   11  126 1    
    25   12   13 ar   
    26   12  137 1    
    27   13   14 ar   
    28   13   15 1    
    29   14  138 1    
    30   15   16 1    
    31   15  139 1    
    32   15  140 1    
    33   16   17 1    
    34   17   18 1    
    35   17  141 1    
    36   17  142 1    
    37   18   19 1    
    38   18   67 1    
    39   18  143 1    
    40   19   20 am   BACKBONE|DICT|INTERRES
    41   19  144 1    
    42   20   21 2    
    43   20   22 1    
    44   22   23 1    
    45   22   24 1    
    46   22  145 1    
    47   23  146 1    
    48   23  147 1    
    49   23  148 1    
    50   24   25 am   BACKBONE|DICT|INTERRES
    51   24  149 1    
    52   25   26 2    
    53   25   27 1    
    54   27   28 1    
    55   27   29 1    
    56   27  150 1    
    57   28  151 1    
    58   28  152 1    
    59   28  153 1    
    60   29   30 am   BACKBONE|DICT|INTERRES
    61   29  154 1    
    62   30   31 2    
    63   30   32 1    
    64   32   33 1    
    65   32   34 1    
    66   32  155 1    
    67   33  156 1    
    68   33  157 1    
    69   33  158 1    
    70   34   35 am   BACKBONE|DICT|INTERRES
    71   34  159 1    
    72   35   36 2    
    73   35   37 1    
    74   37   38 1    
    75   37   39 1    
    76   37  160 1    
    77   38  161 1    
    78   38  162 1    
    79   38  163 1    
    80   39   40 am   BACKBONE|DICT|INTERRES
    81   39  164 1    
    82   40   41 2    
    83   40   42 1    
    84   42   43 1    
    85   42   44 1    
    86   42  165 1    
    87   43  166 1    
    88   43  167 1    
    89   43  168 1    
    90   44   45 am   BACKBONE|DICT|INTERRES
    91   44  169 1    
    92   45   46 2    
    93   45   47 1    
    94   47   48 1    
    95   47   49 1    
    96   47  170 1    
    97   48  171 1    
    98   48  172 1    
    99   48  173 1    
   100   49   50 am   BACKBONE|DICT|INTERRES
   101   49  174 1    
   102   50   51 2    
   103   50   52 1    
   104   52   53 1    
   105   52   54 1    
   106   52  175 1    
   107   53  176 1    
   108   53  177 1    
   109   53  178 1    
   110   54   55 am   BACKBONE|DICT|INTERRES
   111   54  179 1    
   112   55   56 2    
   113   55   57 1    
   114   57   58 1    
   115   57   59 1    
   116   57  180 1    
   117   58  181 1    
   118   58  182 1    
   119   58  183 1    
   120   59   60 am   BACKBONE|DICT|INTERRES
   121   59  184 1    
   122   60   61 2    
   123   60   62 1    
   124   62   63 1    
   125   62   64 1    
   126   62  185 1    
   127   63  186 1    
   128   63  187 1    
   129   63  188 1    
   130   64   65 am   BACKBONE|DICT|INTERRES
   131   64  189 1    
   132   65   66 2    
   133   67   68 2    
   134   67   69 am   BACKBONE|DICT|INTERRES
   135   69   70 1    
   136   69  190 1    
   137   70   71 1    
   138   70   72 1    
   139   70  191 1    
   140   71  192 1    
   141   71  193 1    
   142   71  194 1    
   143   72   73 2    
   144   72   74 am   BACKBONE|DICT|INTERRES
   145   74   75 1    
   146   74  195 1    
   147   75   76 1    
   148   75   77 1    
   149   75  196 1    
   150   76  197 1    
   151   76  198 1    
   152   76  199 1    
   153   77   78 2    
   154   77   79 am   BACKBONE|DICT|INTERRES
   155   79   80 1    
   156   79  200 1    
   157   80   81 1    
   158   80   82 1    
   159   80  201 1    
   160   81  202 1    
   161   81  203 1    
   162   81  204 1    
   163   82   83 2    
   164   82   84 am   BACKBONE|DICT|INTERRES
   165   84   85 1    
   166   84  205 1    
   167   85   86 1    
   168   85   87 1    
   169   85  206 1    
   170   86  207 1    
   171   86  208 1    
   172   86  209 1    
   173   87   88 2    
   174   87   89 am   BACKBONE|DICT|INTERRES
   175   89   90 1    
   176   89  210 1    
   177   90   91 1    
   178   90   92 1    
   179   90  211 1    
   180   91  212 1    
   181   91  213 1    
   182   91  214 1    
   183   92   93 2    
   184   92   94 am   BACKBONE|DICT|INTERRES
   185   94   95 1    
   186   94  215 1    
   187   95   96 1    
   188   95   97 1    
   189   95  216 1    
   190   96  217 1    
   191   96  218 1    
   192   96  219 1    
   193   97   98 2    
   194   97   99 am   BACKBONE|DICT|INTERRES
   195   99  100 1    
   196   99  220 1    
   197  100  101 1    
   198  100  102 1    
   199  100  221 1    
   200  101  222 1    
   201  101  223 1    
   202  101  224 1    
   203  102  103 2    
   204  102  104 am   BACKBONE|DICT|INTERRES
   205  104  105 1    
   206  104  225 1    
   207  105  106 1    
   208  105  107 1    
   209  105  226 1    
   210  106  227 1    
   211  106  228 1    
   212  106  229 1    
   213  107  108 2    
   214  107  109 am   BACKBONE|DICT|INTERRES
   215  109  110 1    
   216  109  230 1    
   217  110  111 1    
   218  110  112 1    
   219  110  231 1    
   220  111  232 1    
   221  111  233 1    
   222  111  234 1    
   223  112  113 2    
   224  112  114 am   BACKBONE|DICT|INTERRES
   225  114  115 1    
   226  114  235 1    
   227  115  116 1    
   228  115  117 1    
   229  115  236 1    
   230  116  237 1    
   231  116  238 1    
   232  116  239 1    
   233  117  118 2    
   234  117  119 am   BACKBONE|DICT|INTERRES
   235  119  120 1    
   236  119  240 1    
   237  120  121 1    
   238  120  124 1    
   239  120  241 1    
   240  121  122 am   BACKBONE|DICT|INTERRES
   241  121  123 2    
   242  122  242 1    
   243  122  243 1    
   244  124  125 1    
   245  124  244 1    
   246  124  245 1    
   247  125  126 1    
   248  126  246 1    
   249  126  247 1    
@<TRIPOS>SUBSTRUCTURE
     1 UNK         1 GROUP             0       ****    0 ROOT    
