@<TRIPOS>MOLECULE
3R540
247   249    1
SMALL
USER_CHARGES


@<TRIPOS>ATOM
      1 CA          8.6770  -11.0144  -48.6104 C.3       0 UNK        -0.1800 
      2 C           7.4962  -11.8293  -49.1196 C.2       0 UNK         0.5000 
      3 O           7.1449  -11.7237  -50.2944 O.2       0 UNK        -0.5000 
      4 N           6.8923  -12.6396  -48.2393 N.am      1 UNK        -0.5000 
      5 CA          5.7232  -13.4898  -48.4971 C.3       1 UNK         0.1400 
      6 C6          6.0039  -14.6154  -49.5309 C.3       23 UNK        -0.0398 
      7 S7          4.9692  -16.0893  -49.2344 S.3       23 UNK        -0.2404 
      8 C8          4.0671  -16.2250  -50.8126 C.3       23 UNK        -0.0205 
      9 C9          3.0976  -17.4009  -50.8182 C.ar      23 UNK        -0.0193 
     10 C10         1.7388  -17.2015  -51.0902 C.ar      23 UNK        -0.1150 
     11 C11         0.8493  -18.2815  -51.0878 C.ar      23 UNK        -0.0193 
     12 C12         1.3269  -19.5661  -50.8184 C.ar      23 UNK        -0.1150 
     13 C13         2.6804  -19.7794  -50.5504 C.ar      23 UNK        -0.0193 
     14 C14         3.5616  -18.6958  -50.5637 C.ar      23 UNK        -0.1150 
     15 C15         3.1939  -21.1799  -50.2591 C.3       23 UNK        -0.0205 
     16 S16         3.5131  -21.4375  -48.4832 S.3       23 UNK        -0.2404 
     17 C17         1.8330  -21.4467  -47.7627 C.3       23 UNK        -0.0398 
     18 CA          1.5319  -22.7369  -46.9423 C.3       11 UNK         0.1400 
     19 N           0.6520  -22.4543  -45.8074 N.am      11 UNK        -0.5000 
     20 C          -0.6283  -22.0636  -45.8488 C.2       10 UNK         0.5000 
     21 O          -1.2831  -21.9560  -46.8873 O.2       10 UNK        -0.5000 
     22 CA         -1.2724  -21.6956  -44.4979 C.3       10 UNK         0.1400 
     23 CB         -1.6139  -22.9411  -43.6567 C.3       10 UNK        -0.1800 
     24 N          -0.4876  -20.7212  -43.7309 N.am      10 UNK        -0.5000 
     25 C           0.6926  -20.8750  -43.1122 C.2       9 UNK         0.5000 
     26 O           1.3074  -21.9420  -43.0690 O.2       9 UNK        -0.5000 
     27 CA          1.3195  -19.6270  -42.4571 C.3       9 UNK         0.1400 
     28 CB          2.5627  -19.1837  -43.2451 C.3       9 UNK        -0.1800 
     29 N           0.3995  -18.4927  -42.3496 N.am      9 UNK        -0.5000 
     30 C          -0.6168  -18.4049  -41.4811 C.2       8 UNK         0.5000 
     31 O          -0.8568  -19.2540  -40.6223 O.2       8 UNK        -0.5000 
     32 CA         -1.5399  -17.1789  -41.6173 C.3       8 UNK         0.1400 
     33 CB         -0.9781  -15.9881  -40.8265 C.3       8 UNK        -0.1800 
     34 N          -1.7688  -16.7807  -43.0095 N.am      8 UNK        -0.5000 
     35 C          -2.4116  -17.5275  -43.9205 C.2       7 UNK         0.5000 
     36 O          -2.8993  -18.6306  -43.6751 O.2       7 UNK        -0.5000 
     37 CA         -2.4820  -16.9732  -45.3553 C.3       7 UNK         0.1400 
     38 CB         -3.5674  -15.8940  -45.4792 C.3       7 UNK        -0.1800 
     39 N          -1.1997  -16.4417  -45.8118 N.am      7 UNK        -0.5000 
     40 C          -0.0975  -17.1841  -45.9942 C.2       6 UNK         0.5000 
     41 O          -0.0575  -18.4048  -45.8432 O.2       6 UNK        -0.5000 
     42 CA          1.1908  -16.4272  -46.3583 C.3       6 UNK         0.1400 
     43 CB          1.2262  -16.1094  -47.8562 C.3       6 UNK        -0.1800 
     44 N           1.3495  -15.1885  -45.6007 N.am      6 UNK        -0.5000 
     45 C           1.4912  -15.1139  -44.2715 C.2       5 UNK         0.5000 
     46 O           1.5391  -16.0935  -43.5296 O.2       5 UNK        -0.5000 
     47 CA          1.5320  -13.7015  -43.6672 C.3       5 UNK         0.1400 
     48 CB          2.9125  -13.0550  -43.8624 C.3       5 UNK        -0.1800 
     49 N           0.4955  -12.8379  -44.2329 N.am      5 UNK        -0.5000 
     50 C          -0.8192  -13.0022  -44.0299 C.2       4 UNK         0.5000 
     51 O          -1.2977  -13.8939  -43.3299 O.2       4 UNK        -0.5000 
     52 CA         -1.7592  -12.0213  -44.7517 C.3       4 UNK         0.1400 
     53 CB         -1.9215  -10.7292  -43.9374 C.3       4 UNK        -0.1800 
     54 N          -1.3056  -11.6894  -46.1023 N.am      4 UNK        -0.5000 
     55 C          -1.2840  -12.5559  -47.1241 C.2       3 UNK         0.5000 
     56 O          -1.6268  -13.7350  -47.0350 O.2       3 UNK        -0.5000 
     57 CA         -0.7437  -12.0150  -48.4601 C.3       3 UNK         0.1400 
     58 CB         -1.7661  -11.0688  -49.1095 C.3       3 UNK        -0.1800 
     59 N           0.5428  -11.3186  -48.3541 N.am      3 UNK        -0.5000 
     60 C           1.6521  -11.8041  -47.7825 C.2       2 UNK         0.5000 
     61 O           1.7010  -12.8703  -47.1668 O.2       2 UNK        -0.5000 
     62 CA          2.9169  -10.9317  -47.8882 C.3       2 UNK         0.1400 
     63 CB          2.9714   -9.9304  -46.7241 C.3       2 UNK        -0.1800 
     64 N           4.1350  -11.7428  -47.8707 N.am      2 UNK        -0.5000 
     65 C           4.4695  -12.6411  -48.8085 C.2       1 UNK         0.5000 
     66 O           3.8535  -12.7827  -49.8670 O.2       1 UNK        -0.5000 
     67 C           1.0355  -23.9223  -47.8088 C.2       11 UNK         0.5000 
     68 O           0.1504  -24.6802  -47.4013 O.2       11 UNK        -0.5000 
     69 N           1.6143  -24.0644  -49.0079 N.am      12 UNK        -0.5000 
     70 CA          1.2209  -25.0462  -50.0211 C.3       12 UNK         0.1400 
     71 CB          2.2586  -25.0485  -51.1532 C.3       12 UNK        -0.1800 
     72 C          -0.1937  -24.8100  -50.5871 C.2       12 UNK         0.5000 
     73 O          -0.7932  -25.7482  -51.1065 O.2       12 UNK        -0.5000 
     74 N          -0.7195  -23.5832  -50.4533 N.am      13 UNK        -0.5000 
     75 CA         -2.0792  -23.2054  -50.8415 C.3       13 UNK         0.1400 
     76 CB         -2.2511  -21.6897  -50.6728 C.3       13 UNK        -0.1800 
     77 C          -3.1647  -23.9706  -50.0626 C.2       13 UNK         0.5000 
     78 O          -4.1884  -24.3299  -50.6442 O.2       13 UNK        -0.5000 
     79 N          -2.9164  -24.2453  -48.7750 N.am      14 UNK        -0.5000 
     80 CA         -3.7852  -25.0813  -47.9471 C.3       14 UNK         0.1400 
     81 CB         -3.3802  -24.9456  -46.4749 C.3       14 UNK        -0.1800 
     82 C          -3.7712  -26.5547  -48.3937 C.2       14 UNK         0.5000 
     83 O          -4.8330  -27.1720  -48.4759 O.2       14 UNK        -0.5000 
     84 N          -2.5795  -27.0742  -48.7239 N.am      15 UNK        -0.5000 
     85 CA         -2.3752  -28.4327  -49.2381 C.3       15 UNK         0.1400 
     86 CB         -0.8742  -28.7607  -49.2375 C.3       15 UNK        -0.1800 
     87 C          -2.9837  -28.6402  -50.6394 C.2       15 UNK         0.5000 
     88 O          -3.5177  -29.7131  -50.9210 O.2       15 UNK        -0.5000 
     89 N          -2.9311  -27.5931  -51.4731 N.am      16 UNK        -0.5000 
     90 CA         -3.5469  -27.5180  -52.8000 C.3       16 UNK         0.1400 
     91 CB         -2.8961  -26.3615  -53.5763 C.3       16 UNK        -0.1800 
     92 C          -5.0813  -27.3473  -52.7688 C.2       16 UNK         0.5000 
     93 O          -5.7037  -27.3693  -53.8315 O.2       16 UNK        -0.5000 
     94 N          -5.6591  -27.1721  -51.5706 N.am      17 UNK        -0.5000 
     95 CA         -7.0818  -26.9684  -51.2854 C.3       17 UNK         0.1400 
     96 CB         -7.9253  -28.1843  -51.7242 C.3       17 UNK        -0.1800 
     97 C          -7.6242  -25.6243  -51.8151 C.2       17 UNK         0.5000 
     98 O          -8.8062  -25.5239  -52.1479 O.2       17 UNK        -0.5000 
     99 N          -6.7635  -24.5967  -51.8334 N.am      18 UNK        -0.5000 
    100 CA        -7.1161  -23.2054  -52.1310 C.3       18 UNK         0.1400 
    101 CB        -5.9431  -22.5357  -52.8678 C.3       18 UNK        -0.1800 
    102 C         -7.4990  -22.4229  -50.8555 C.2       18 UNK         0.5000 
    103 O         -7.6598  -21.2038  -50.9183 O.2       18 UNK        -0.5000 
    104 N         -7.6109  -23.1269  -49.7161 N.am      19 UNK        -0.5000 
    105 CA        -8.0449  -22.6506  -48.3953 C.3       19 UNK         0.1400 
    106 CB        -9.5292  -22.2306  -48.4404 C.3       19 UNK        -0.1800 
    107 C         -7.1431  -21.5547  -47.7879 C.2       19 UNK         0.5000 
    108 O         -7.5974  -20.7993  -46.9274 O.2       19 UNK        -0.5000 
    109 N         -5.8860  -21.4888  -48.2537 N.am      20 UNK        -0.5000 
    110 CA        -4.8707  -20.4857  -47.9159 C.3       20 UNK         0.1400 
    111 CB        -4.4348  -20.6210  -46.4444 C.3       20 UNK        -0.1800 
    112 C         -5.2895  -19.0448  -48.2832 C.2       20 UNK         0.5000 
    113 O         -4.8778  -18.0958  -47.6143 O.2       20 UNK        -0.5000 
    114 N         -6.0942  -18.8922  -49.3463 N.am      21 UNK        -0.5000 
    115 CA        -6.6060  -17.6150  -49.8517 C.3       21 UNK         0.1400 
    116 CB        -7.8622  -17.8871  -50.6980 C.3       21 UNK        -0.1800 
    117 C         -5.5326  -16.8093  -50.6183 C.2       21 UNK         0.5000 
    118 O         -5.7209  -16.4719  -51.7887 O.2       21 UNK        -0.5000 
    119 N         -4.4133  -16.5330  -49.9429 N.am      22 UNK        -0.5000 
    120 CA        -3.2405  -15.8221  -50.4751 C.3       22 UNK         0.1400 
    121 C         -3.3959  -14.2764  -50.5444 C.2       22 UNK         0.5000 
    122 N         -4.4484  -13.6840  -49.9927 N.am      22 UNK        -0.7600 
    123 O         -2.5534  -13.6040  -51.1312 O.2       22 UNK        -0.5000 
    124 C124       -1.9437  -16.2242  -49.7267 C.3       23 UNK        -0.0398 
    125 S125       -1.6141  -18.0144  -49.8537 S.3       23 UNK        -0.2404 
    126 C126       -0.6278  -18.0800  -51.3835 C.3       23 UNK        -0.0205 
    127 H127        8.4749   -9.9495  -48.7254 H         1 UNK         0.0600 
    128 H128        9.5736  -11.2559  -49.1814 H         1 UNK         0.0600 
    129 H129        8.8819  -11.2095  -47.5575 H         1 UNK         0.0600 
    130 H130        7.2440  -12.6708  -47.2923 H         1 UNK         0.3000 
    131 H131        5.5216  -13.9712  -47.5384 H         1 UNK         0.0600 
    132 H132        7.0399  -14.9450  -49.4437 H         1 UNK         0.0800 
    133 H133        5.8972  -14.2591  -50.5569 H         1 UNK         0.0800 
    134 H134        4.7803  -16.3499  -51.6283 H         1 UNK         0.0800 
    135 H135        3.5365  -15.2898  -50.9982 H         1 UNK         0.0800 
    136 H136        1.3705  -16.2057  -51.2929 H         1 UNK         0.1150 
    137 H137        0.6396  -20.3993  -50.8157 H         1 UNK         0.1150 
    138 H138        4.6104  -18.8586  -50.3578 H         1 UNK         0.1150 
    139 H139        2.4916  -21.9261  -50.6292 H         1 UNK         0.0800 
    140 H140        4.1228  -21.3411  -50.8084 H         1 UNK         0.0800 
    141 H141        1.0711  -21.2732  -48.5235 H         1 UNK         0.0800 
    142 H142        1.7842  -20.5716  -47.1119 H         1 UNK         0.0800 
    143 H143        2.4616  -23.0767  -46.4838 H         1 UNK         0.0600 
    144 H144        1.0795  -22.5084  -44.8875 H         1 UNK         0.3000 
    145 H145       -2.2114  -21.1907  -44.7199 H         1 UNK         0.0600 
    146 H146       -2.0629  -22.6602  -42.7040 H         1 UNK         0.0600 
    147 H147       -2.3296  -23.5776  -44.1737 H         1 UNK         0.0600 
    148 H148       -0.7357  -23.5516  -43.4465 H         1 UNK         0.0600 
    149 H149       -0.8717  -19.7848  -43.7423 H         1 UNK         0.3000 
    150 H150        1.6360  -19.9110  -41.4516 H         1 UNK         0.0600 
    151 H151        3.2918  -19.9915  -43.3190 H         1 UNK         0.0600 
    152 H152        3.0589  -18.3435  -42.7593 H         1 UNK         0.0600 
    153 H153        2.3052  -18.8796  -44.2604 H         1 UNK         0.0600 
    154 H154        0.5747  -17.7104  -42.9741 H         1 UNK         0.3000 
    155 H155       -2.5067  -17.4458  -41.1855 H         1 UNK         0.0600 
    156 H156       -0.8065  -16.2563  -39.7833 H         1 UNK         0.0600 
    157 H157       -1.6716  -15.1472  -40.8356 H         1 UNK         0.0600 
    158 H158       -0.0291  -15.6434  -41.2384 H         1 UNK         0.0600 
    159 H159       -1.4290  -15.8614  -43.2769 H         1 UNK         0.3000 
    160 H160       -2.7477  -17.7978  -46.0182 H         1 UNK         0.0600 
    161 H161       -3.3406  -15.0184  -44.8710 H         1 UNK         0.0600 
    162 H162       -4.5361  -16.2791  -45.1586 H         1 UNK         0.0600 
    163 H163       -3.6775  -15.5660  -46.5131 H         1 UNK         0.0600 
    164 H164       -1.1610  -15.4461  -46.0036 H         1 UNK         0.3000 
    165 H165        2.0377  -17.0761  -46.1261 H         1 UNK         0.0600 
    166 H166        2.1824  -15.6755  -48.1469 H         1 UNK         0.0600 
    167 H167        1.0840  -17.0184  -48.4395 H         1 UNK         0.0600 
    168 H168        0.4437  -15.4048  -48.1378 H         1 UNK         0.0600 
    169 H169        1.3500  -14.3246  -46.1408 H         1 UNK         0.3000 
    170 H170        1.3490  -13.7916  -42.5943 H         1 UNK         0.0600 
    171 H171        2.9567  -12.0706  -43.3964 H         1 UNK         0.0600 
    172 H172        3.6936  -13.6652  -43.4075 H         1 UNK         0.0600 
    173 H173        3.1629  -12.9386  -44.9170 H         1 UNK         0.0600 
    174 H174        0.7994  -12.1227  -44.8761 H         1 UNK         0.3000 
    175 H175       -2.7384  -12.4985  -44.8310 H         1 UNK         0.0600 
    176 H176       -2.2768  -10.9461  -42.9291 H         1 UNK         0.0600 
    177 H177       -0.9786  -10.1889  -43.8443 H         1 UNK         0.0600 
    178 H178       -2.6480  -10.0606  -44.3996 H         1 UNK         0.0600 
    179 H179       -0.9916  -10.7437  -46.2622 H         1 UNK         0.3000 
    180 H180       -0.5996  -12.8718  -49.1215 H         1 UNK         0.0600 
    181 H181       -2.7565  -11.5225  -49.1421 H         1 UNK         0.0600 
    182 H182       -1.8571  -10.1306  -48.5612 H         1 UNK         0.0600 
    183 H183       -1.4860  -10.8331  -50.1363 H         1 UNK         0.0600 
    184 H184        0.5960  -10.4242  -48.8196 H         1 UNK         0.3000 
    185 H185        2.8880  -10.3808  -48.8306 H         1 UNK         0.0600 
    186 H186        2.0921   -9.2851  -46.7196 H         1 UNK         0.0600 
    187 H187        3.0119  -10.4359  -45.7584 H         1 UNK         0.0600 
    188 H188        3.8457   -9.2836  -46.8008 H         1 UNK         0.0600 
    189 H189        4.6987  -11.6846  -47.0361 H         1 UNK         0.3000 
    190 H190        2.3726  -23.4413  -49.2493 H         1 UNK         0.3000 
    191 H191        1.2245  -26.0323  -49.5522 H         1 UNK         0.0600 
    192 H192        3.2596  -25.2532  -50.7729 H         1 UNK         0.0600 
    193 H193        2.2860  -24.0949  -51.6809 H         1 UNK         0.0600 
    194 H194        2.0284  -25.8207  -51.8886 H         1 UNK         0.0600 
    195 H195       -0.1668  -22.8747  -49.9978 H         1 UNK         0.3000 
    196 H196       -2.2066  -23.4461  -51.8986 H         1 UNK         0.0600 
    197 H197       -3.2750  -21.3784  -50.8826 H         1 UNK         0.0600 
    198 H198       -1.6052  -21.1484  -51.3625 H         1 UNK         0.0600 
    199 H199       -2.0053  -21.3654  -49.6607 H         1 UNK         0.0600 
    200 H200       -2.0592  -23.9120  -48.3515 H         1 UNK         0.3000 
    201 H201       -4.8089  -24.7138  -48.0475 H         1 UNK         0.0600 
    202 H202       -4.0110  -25.5633  -45.8345 H         1 UNK         0.0600 
    203 H203       -2.3447  -25.2450  -46.3090 H         1 UNK         0.0600 
    204 H204       -3.4896  -23.9147  -46.1426 H         1 UNK         0.0600 
    205 H205       -1.7613  -26.4871  -48.6485 H         1 UNK         0.3000 
    206 H206       -2.8728  -29.1259  -48.5565 H         1 UNK         0.0600 
    207 H207       -0.4472  -28.6569  -48.2398 H         1 UNK         0.0600 
    208 H208       -0.7015  -29.7884  -49.5595 H         1 UNK         0.0600 
    209 H209       -0.3162  -28.1103  -49.9111 H         1 UNK         0.0600 
    210 H210       -2.3841  -26.7846  -51.1898 H         1 UNK         0.3000 
    211 H211       -3.3343  -28.4485  -53.3299 H         1 UNK         0.0600 
    212 H212       -3.2784  -26.3066  -54.5963 H         1 UNK         0.0600 
    213 H213       -1.8154  -26.4882  -53.6426 H         1 UNK         0.0600 
    214 H214       -3.0933  -25.4008  -53.1001 H         1 UNK         0.0600 
    215 H215       -5.0538  -27.1588  -50.7598 H         1 UNK         0.3000 
    216 H216       -7.1545  -26.9057  -50.1988 H         1 UNK         0.0600 
    217 H217       -8.9473  -28.1047  -51.3519 H         1 UNK         0.0600 
    218 H218       -7.5108  -29.1133  -51.3325 H         1 UNK         0.0600 
    219 H219       -7.9816  -28.2720  -52.8093 H         1 UNK         0.0600 
    220 H220       -5.8084  -24.7448  -51.5141 H         1 UNK         0.3000 
    221 H221       -7.9826  -23.1816  -52.7946 H         1 UNK         0.0600 
    222 H222       -5.0666  -22.4335  -52.2294 H         1 UNK         0.0600 
    223 H223       -5.6515  -23.1089  -53.7480 H         1 UNK         0.0600 
    224 H224       -6.2152  -21.5359  -53.2082 H         1 UNK         0.0600 
    225 H225       -7.4194  -24.1158  -49.7774 H         1 UNK         0.3000 
    226 H226       -7.9656  -23.5068  -47.7236 H         1 UNK         0.0600 
    227 H227       -9.9104  -22.0218  -47.4401 H         1 UNK         0.0600 
    228 H228       -9.6763  -21.3316  -49.0404 H         1 UNK         0.0600 
    229 H229      -10.1503  -23.0210  -48.8624 H         1 UNK         0.0600 
    230 H230       -5.6266  -22.1550  -48.9665 H         1 UNK         0.3000 
    231 H231       -4.0010  -20.7113  -48.5319 H         1 UNK         0.0600 
    232 H232       -4.1696  -21.6496  -46.2051 H         1 UNK         0.0600 
    233 H233       -5.2169  -20.3043  -45.7542 H         1 UNK         0.0600 
    234 H234       -3.5568  -20.0067  -46.2469 H         1 UNK         0.0600 
    235 H235       -6.4080  -19.7184  -49.8417 H         1 UNK         0.3000 
    236 H236       -6.9127  -17.0063  -48.9986 H         1 UNK         0.0600 
    237 H237       -8.6169  -18.4233  -50.1221 H         1 UNK         0.0600 
    238 H238       -8.3154  -16.9556  -51.0393 H         1 UNK         0.0600 
    239 H239       -7.6302  -18.4844  -51.5807 H         1 UNK         0.0600 
    240 H240       -4.3392  -16.8864  -48.9931 H         1 UNK         0.3000 
    241 H241       -3.1186  -16.1374  -51.5132 H         1 UNK         0.0600 
    242 H242       -5.1480  -14.2280  -49.5148 H         1 UNK         0.3800 
    243 H243       -4.5529  -12.6853  -50.0672 H         1 UNK         0.3800 
    244 H244       -1.0794  -15.6779  -50.1086 H         1 UNK         0.0800 
    245 H245       -2.0234  -15.9651  -48.6698 H         1 UNK         0.0800 
    246 H246       -0.7806  -17.1797  -51.9801 H         1 UNK         0.0800 
    247 H247       -0.9899  -18.9048  -51.9981 H         1 UNK         0.0800 
@<TRIPOS>BOND
     1    1    2 1    
     2    1  127 1    
     3    1  128 1    
     4    1  129 1    
     5    2    3 2    
     6    2    4 am   BACKBONE|DICT|INTERRES
     7    4    5 1    
     8    4  130 1    
     9    5    6 1    
    10    5   65 1    
    11    5  131 1    
    12    6    7 1    
    13    6  132 1    
    14    6  133 1    
    15    7    8 1    
    16    8    9 1    
    17    8  134 1    
    18    8  135 1    
    19    9   10 ar   
    20    9   14 ar   
    21   10   11 ar   
    22   10  136 1    
    23   11   12 ar   
    24   11  126 1    
    25   12   13 ar   
    26   12  137 1    
    27   13   14 ar   
    28   13   15 1    
    29   14  138 1    
    30   15   16 1    
    31   15  139 1    
    32   15  140 1    
    33   16   17 1    
    34   17   18 1    
    35   17  141 1    
    36   17  142 1    
    37   18   19 1    
    38   18   67 1    
    39   18  143 1    
    40   19   20 am   BACKBONE|DICT|INTERRES
    41   19  144 1    
    42   20   21 2    
    43   20   22 1    
    44   22   23 1    
    45   22   24 1    
    46   22  145 1    
    47   23  146 1    
    48   23  147 1    
    49   23  148 1    
    50   24   25 am   BACKBONE|DICT|INTERRES
    51   24  149 1    
    52   25   26 2    
    53   25   27 1    
    54   27   28 1    
    55   27   29 1    
    56   27  150 1    
    57   28  151 1    
    58   28  152 1    
    59   28  153 1    
    60   29   30 am   BACKBONE|DICT|INTERRES
    61   29  154 1    
    62   30   31 2    
    63   30   32 1    
    64   32   33 1    
    65   32   34 1    
    66   32  155 1    
    67   33  156 1    
    68   33  157 1    
    69   33  158 1    
    70   34   35 am   BACKBONE|DICT|INTERRES
    71   34  159 1    
    72   35   36 2    
    73   35   37 1    
    74   37   38 1    
    75   37   39 1    
    76   37  160 1    
    77   38  161 1    
    78   38  162 1    
    79   38  163 1    
    80   39   40 am   BACKBONE|DICT|INTERRES
    81   39  164 1    
    82   40   41 2    
    83   40   42 1    
    84   42   43 1    
    85   42   44 1    
    86   42  165 1    
    87   43  166 1    
    88   43  167 1    
    89   43  168 1    
    90   44   45 am   BACKBONE|DICT|INTERRES
    91   44  169 1    
    92   45   46 2    
    93   45   47 1    
    94   47   48 1    
    95   47   49 1    
    96   47  170 1    
    97   48  171 1    
    98   48  172 1    
    99   48  173 1    
   100   49   50 am   BACKBONE|DICT|INTERRES
   101   49  174 1    
   102   50   51 2    
   103   50   52 1    
   104   52   53 1    
   105   52   54 1    
   106   52  175 1    
   107   53  176 1    
   108   53  177 1    
   109   53  178 1    
   110   54   55 am   BACKBONE|DICT|INTERRES
   111   54  179 1    
   112   55   56 2    
   113   55   57 1    
   114   57   58 1    
   115   57   59 1    
   116   57  180 1    
   117   58  181 1    
   118   58  182 1    
   119   58  183 1    
   120   59   60 am   BACKBONE|DICT|INTERRES
   121   59  184 1    
   122   60   61 2    
   123   60   62 1    
   124   62   63 1    
   125   62   64 1    
   126   62  185 1    
   127   63  186 1    
   128   63  187 1    
   129   63  188 1    
   130   64   65 am   BACKBONE|DICT|INTERRES
   131   64  189 1    
   132   65   66 2    
   133   67   68 2    
   134   67   69 am   BACKBONE|DICT|INTERRES
   135   69   70 1    
   136   69  190 1    
   137   70   71 1    
   138   70   72 1    
   139   70  191 1    
   140   71  192 1    
   141   71  193 1    
   142   71  194 1    
   143   72   73 2    
   144   72   74 am   BACKBONE|DICT|INTERRES
   145   74   75 1    
   146   74  195 1    
   147   75   76 1    
   148   75   77 1    
   149   75  196 1    
   150   76  197 1    
   151   76  198 1    
   152   76  199 1    
   153   77   78 2    
   154   77   79 am   BACKBONE|DICT|INTERRES
   155   79   80 1    
   156   79  200 1    
   157   80   81 1    
   158   80   82 1    
   159   80  201 1    
   160   81  202 1    
   161   81  203 1    
   162   81  204 1    
   163   82   83 2    
   164   82   84 am   BACKBONE|DICT|INTERRES
   165   84   85 1    
   166   84  205 1    
   167   85   86 1    
   168   85   87 1    
   169   85  206 1    
   170   86  207 1    
   171   86  208 1    
   172   86  209 1    
   173   87   88 2    
   174   87   89 am   BACKBONE|DICT|INTERRES
   175   89   90 1    
   176   89  210 1    
   177   90   91 1    
   178   90   92 1    
   179   90  211 1    
   180   91  212 1    
   181   91  213 1    
   182   91  214 1    
   183   92   93 2    
   184   92   94 am   BACKBONE|DICT|INTERRES
   185   94   95 1    
   186   94  215 1    
   187   95   96 1    
   188   95   97 1    
   189   95  216 1    
   190   96  217 1    
   191   96  218 1    
   192   96  219 1    
   193   97   98 2    
   194   97   99 am   BACKBONE|DICT|INTERRES
   195   99  100 1    
   196   99  220 1    
   197  100  101 1    
   198  100  102 1    
   199  100  221 1    
   200  101  222 1    
   201  101  223 1    
   202  101  224 1    
   203  102  103 2    
   204  102  104 am   BACKBONE|DICT|INTERRES
   205  104  105 1    
   206  104  225 1    
   207  105  106 1    
   208  105  107 1    
   209  105  226 1    
   210  106  227 1    
   211  106  228 1    
   212  106  229 1    
   213  107  108 2    
   214  107  109 am   BACKBONE|DICT|INTERRES
   215  109  110 1    
   216  109  230 1    
   217  110  111 1    
   218  110  112 1    
   219  110  231 1    
   220  111  232 1    
   221  111  233 1    
   222  111  234 1    
   223  112  113 2    
   224  112  114 am   BACKBONE|DICT|INTERRES
   225  114  115 1    
   226  114  235 1    
   227  115  116 1    
   228  115  117 1    
   229  115  236 1    
   230  116  237 1    
   231  116  238 1    
   232  116  239 1    
   233  117  118 2    
   234  117  119 am   BACKBONE|DICT|INTERRES
   235  119  120 1    
   236  119  240 1    
   237  120  121 1    
   238  120  124 1    
   239  120  241 1    
   240  121  122 am   BACKBONE|DICT|INTERRES
   241  121  123 2    
   242  122  242 1    
   243  122  243 1    
   244  124  125 1    
   245  124  244 1    
   246  124  245 1    
   247  125  126 1    
   248  126  246 1    
   249  126  247 1    
@<TRIPOS>SUBSTRUCTURE
     1 UNK         1 GROUP             0       ****    0 ROOT    
