@<TRIPOS>MOLECULE
3R540
247   249    1
SMALL
USER_CHARGES


@<TRIPOS>ATOM
      1 CA          4.7059  -15.0556  -46.2459 C.3       0 UNK        -0.1800 
      2 C           3.3946  -15.4946  -46.8788 C.2       0 UNK         0.5000 
      3 O           2.3858  -15.6235  -46.1833 O.2       0 UNK        -0.5000 
      4 N           3.4091  -15.7466  -48.1933 N.am      1 UNK        -0.5000 
      5 CA          2.2207  -16.0714  -48.9814 C.3       1 UNK         0.1400 
      6 C6          2.5897  -16.8365  -50.2753 C.3       23 UNK        -0.0398 
      7 S7          1.1865  -17.5350  -51.2188 S.3       23 UNK        -0.2404 
      8 C8          0.3847  -18.6699  -50.0337 C.3       23 UNK        -0.0205 
      9 C9         -0.7769  -17.9993  -49.3143 C.ar      23 UNK        -0.0193 
     10 C10        -1.8489  -17.4732  -50.0419 C.ar      23 UNK        -0.1150 
     11 C11        -2.8730  -16.7742  -49.3973 C.ar      23 UNK        -0.0193 
     12 C12        -2.8446  -16.6439  -48.0058 C.ar      23 UNK        -0.1150 
     13 C13        -1.7811  -17.1704  -47.2664 C.ar      23 UNK        -0.0193 
     14 C14        -0.7582  -17.8572  -47.9255 C.ar      23 UNK        -0.1150 
     15 C15        -1.6931  -16.9210  -45.7695 C.3       23 UNK        -0.0205 
     16 S16        -2.3395  -18.3122  -44.7905 S.3       23 UNK        -0.2404 
     17 C17        -0.9565  -19.5027  -44.8433 C.3       23 UNK        -0.0398 
     18 CA         -1.3162  -20.7796  -45.6442 C.3       11 UNK         0.1400 
     19 N          -0.1400  -21.3941  -46.2708 N.am      11 UNK        -0.5000 
     20 C          -0.1910  -22.3858  -47.1754 C.2       10 UNK         0.5000 
     21 O          -1.2419  -22.8688  -47.5916 O.2       10 UNK        -0.5000 
     22 CA          1.1386  -22.9767  -47.6791 C.3       10 UNK         0.1400 
     23 CB          1.5708  -22.2819  -48.9783 C.3       10 UNK        -0.1800 
     24 N           2.2187  -22.8916  -46.6987 N.am      10 UNK        -0.5000 
     25 C           2.2124  -23.4747  -45.4909 C.2       9 UNK         0.5000 
     26 O           1.3260  -24.2371  -45.1068 O.2       9 UNK        -0.5000 
     27 CA          3.3538  -23.0829  -44.5308 C.3       9 UNK         0.1400 
     28 CB          4.4777  -24.1283  -44.5760 C.3       9 UNK        -0.1800 
     29 N           3.9160  -21.7546  -44.8075 N.am      9 UNK        -0.5000 
     30 C           3.2308  -20.6047  -44.7398 C.2       8 UNK         0.5000 
     31 O           2.0401  -20.5335  -44.4286 O.2       8 UNK        -0.5000 
     32 CA          3.9684  -19.3381  -45.1973 C.3       8 UNK         0.1400 
     33 CB          3.5568  -18.9887  -46.6361 C.3       8 UNK        -0.1800 
     34 N           3.6844  -18.2118  -44.3075 N.am      8 UNK        -0.5000 
     35 C           4.2455  -18.0690  -43.0986 C.2       7 UNK         0.5000 
     36 O           5.1187  -18.8215  -42.6633 O.2       7 UNK        -0.5000 
     37 CA          3.7642  -16.9001  -42.2188 C.3       7 UNK         0.1400 
     38 CB          4.6620  -15.6661  -42.3931 C.3       7 UNK        -0.1800 
     39 N           2.3732  -16.5100  -42.4449 N.am      7 UNK        -0.5000 
     40 C           1.3095  -17.2230  -42.0495 C.2       6 UNK         0.5000 
     41 O           1.3856  -18.3485  -41.5546 O.2       6 UNK        -0.5000 
     42 CA         -0.0568  -16.5185  -42.1907 C.3       6 UNK         0.1400 
     43 CB         -1.2028  -17.2593  -41.4699 C.3       6 UNK        -0.1800 
     44 N          -0.0080  -15.1094  -41.7795 N.am      6 UNK        -0.5000 
     45 C           0.3237  -14.6327  -40.5659 C.2       5 UNK         0.5000 
     46 O           0.6127  -15.3449  -39.6038 O.2       5 UNK        -0.5000 
     47 CA          0.3653  -13.1004  -40.3864 C.3       5 UNK         0.1400 
     48 CB          1.8226  -12.6128  -40.3402 C.3       5 UNK        -0.1800 
     49 N          -0.3358  -12.3648  -41.4379 N.am      5 UNK        -0.5000 
     50 C          -1.6645  -12.3261  -41.6083 C.2       4 UNK         0.5000 
     51 O          -2.4690  -12.8415  -40.8317 O.2       4 UNK        -0.5000 
     52 CA         -2.1776  -11.6113  -42.8759 C.3       4 UNK         0.1400 
     53 CB         -2.6949  -10.2067  -42.5292 C.3       4 UNK        -0.1800 
     54 N          -1.1743  -11.4999  -43.9425 N.am      4 UNK        -0.5000 
     55 C          -0.6366  -12.5344  -44.6016 C.2       3 UNK         0.5000 
     56 O          -0.9074  -13.7149  -44.3651 O.2       3 UNK        -0.5000 
     57 CA          0.4324  -12.1971  -45.6508 C.3       3 UNK         0.1400 
     58 CB          1.8354  -12.4682  -45.0852 C.3       3 UNK        -0.1800 
     59 N           0.2220  -13.0091  -46.8458 N.am      3 UNK        -0.5000 
     60 C          -0.6128  -12.6779  -47.8418 C.2       2 UNK         0.5000 
     61 O          -1.2202  -11.6065  -47.8798 O.2       2 UNK        -0.5000 
     62 CA         -0.8443  -13.7147  -48.9636 C.3       2 UNK         0.1400 
     63 CB         -0.9655  -13.0709  -50.3601 C.3       2 UNK        -0.1800 
     64 N           0.1149  -14.8256  -48.9637 N.am      2 UNK        -0.5000 
     65 C           1.4259  -14.7748  -49.2352 C.2       1 UNK         0.5000 
     66 O           2.0199  -13.7638  -49.6167 O.2       1 UNK        -0.5000 
     67 C          -2.0812  -21.7918  -44.7655 C.2       11 UNK         0.5000 
     68 O          -3.3082  -21.8631  -44.8392 O.2       11 UNK        -0.5000 
     69 N          -1.3345  -22.6074  -44.0047 N.am      12 UNK        -0.5000 
     70 CA         -1.8642  -23.6990  -43.1812 C.3       12 UNK         0.1400 
     71 CB         -0.7609  -24.2082  -42.2415 C.3       12 UNK        -0.1800 
     72 C          -2.4502  -24.8543  -44.0181 C.2       12 UNK         0.5000 
     73 O          -3.3317  -25.5665  -43.5380 O.2       12 UNK        -0.5000 
     74 N          -1.9871  -24.9842  -45.2681 N.am      13 UNK        -0.5000 
     75 CA         -2.5141  -25.8909  -46.2876 C.3       13 UNK         0.1400 
     76 CB         -1.3536  -26.3465  -47.1899 C.3       13 UNK        -0.1800 
     77 C          -3.6589  -25.2567  -47.1100 C.2       13 UNK         0.5000 
     78 O          -3.9661  -25.7586  -48.1913 O.2       13 UNK        -0.5000 
     79 N          -4.2595  -24.1649  -46.6094 N.am      14 UNK        -0.5000 
     80 CA         -5.3628  -23.4025  -47.2041 C.3       14 UNK         0.1400 
     81 CB         -6.6478  -24.2549  -47.2708 C.3       14 UNK        -0.1800 
     82 C          -4.9767  -22.7818  -48.5601 C.2       14 UNK         0.5000 
     83 O          -5.6872  -22.9584  -49.5502 O.2       14 UNK        -0.5000 
     84 N          -3.8228  -22.1005  -48.5773 N.am      15 UNK        -0.5000 
     85 CA         -3.1625  -21.5027  -49.7430 C.3       15 UNK         0.1400 
     86 CB         -4.0000  -20.3465  -50.3130 C.3       15 UNK        -0.1800 
     87 C          -2.7881  -22.5677  -50.7901 C.2       15 UNK         0.5000 
     88 O          -3.0475  -22.3906  -51.9820 O.2       15 UNK        -0.5000 
     89 N          -2.2161  -23.6754  -50.2940 N.am      16 UNK        -0.5000 
     90 CA         -1.8627  -24.8967  -51.0241 C.3       16 UNK         0.1400 
     91 CB         -0.6682  -24.6284  -51.9633 C.3       16 UNK        -0.1800 
     92 C          -3.0804  -25.5055  -51.7523 C.2       16 UNK         0.5000 
     93 O          -3.0227  -25.7465  -52.9573 O.2       16 UNK        -0.5000 
     94 N          -4.1815  -25.6890  -51.0089 N.am      17 UNK        -0.5000 
     95 CA         -5.5107  -26.0947  -51.4821 C.3       17 UNK         0.1400 
     96 CB         -5.4994  -27.5655  -51.9473 C.3       17 UNK        -0.1800 
     97 C          -6.0787  -25.1233  -52.5416 C.2       17 UNK         0.5000 
     98 O          -6.6043  -25.5545  -53.5696 O.2       17 UNK        -0.5000 
     99 N          -5.9300  -23.8208  -52.2636 N.am      18 UNK        -0.5000 
    100 CA        -6.3037  -22.6656  -53.0835 C.3       18 UNK         0.1400 
    101 CB        -7.8370  -22.5687  -53.2176 C.3       18 UNK        -0.1800 
    102 C         -5.5802  -22.5762  -54.4459 C.2       18 UNK         0.5000 
    103 O         -6.0735  -21.8876  -55.3416 O.2       18 UNK        -0.5000 
    104 N         -4.4240  -23.2389  -54.5868 N.am      19 UNK        -0.5000 
    105 CA        -3.6045  -23.2175  -55.8001 C.3       19 UNK         0.1400 
    106 CB        -2.8532  -24.5510  -55.9280 C.3       19 UNK        -0.1800 
    107 C         -2.6070  -22.0441  -55.8353 C.2       19 UNK         0.5000 
    108 O         -2.1064  -21.7255  -56.9155 O.2       19 UNK        -0.5000 
    109 N         -2.3089  -21.4424  -54.6742 N.am      20 UNK        -0.5000 
    110 CA        -1.3756  -20.3237  -54.5282 C.3       20 UNK         0.1400 
    111 CB        -0.7582  -20.3744  -53.1196 C.3       20 UNK        -0.1800 
    112 C         -2.0338  -18.9634  -54.8587 C.2       20 UNK         0.5000 
    113 O         -2.9650  -18.9057  -55.6646 O.2       20 UNK        -0.5000 
    114 N         -1.5410  -17.8819  -54.2345 N.am      21 UNK        -0.5000 
    115 CA        -1.9077  -16.4806  -54.4916 C.3       21 UNK         0.1400 
    116 CB        -1.0551  -15.5763  -53.5878 C.3       21 UNK        -0.1800 
    117 C         -3.4051  -16.1307  -54.3415 C.2       21 UNK         0.5000 
    118 O         -3.8504  -15.1369  -54.9171 O.2       21 UNK        -0.5000 
    119 N         -4.1487  -16.9513  -53.5948 N.am      22 UNK        -0.5000 
    120 CA        -5.6116  -16.9017  -53.4468 C.3       22 UNK         0.1400 
    121 C         -6.2914  -18.2527  -53.8227 C.2       22 UNK         0.5000 
    122 N         -5.6333  -19.1256  -54.5773 N.am      22 UNK        -0.7600 
    123 O         -7.4357  -18.5060  -53.4566 O.2       22 UNK        -0.5000 
    124 C124       -6.0427  -16.3272  -52.0687 C.3       23 UNK        -0.0398 
    125 S125       -5.3201  -17.2015  -50.6375 S.3       23 UNK        -0.2404 
    126 C126       -3.9519  -16.0829  -50.2164 C.3       23 UNK        -0.0205 
    127 H127        5.1093  -15.8580  -45.6289 H         1 UNK         0.0600 
    128 H128        4.5457  -14.1799  -45.6174 H         1 UNK         0.0600 
    129 H129        5.4508  -14.7986  -46.9992 H         1 UNK         0.0600 
    130 H130        4.2573  -15.5905  -48.7188 H         1 UNK         0.3000 
    131 H131        1.6173  -16.7373  -48.3685 H         1 UNK         0.0600 
    132 H132        3.2545  -17.6659  -50.0293 H         1 UNK         0.0800 
    133 H133        3.1590  -16.1908  -50.9461 H         1 UNK         0.0800 
    134 H134        1.1271  -19.0399  -49.3261 H         1 UNK         0.0800 
    135 H135        0.0104  -19.5455  -50.5615 H         1 UNK         0.0800 
    136 H136       -1.8626  -17.5694  -51.1176 H         1 UNK         0.1150 
    137 H137       -3.6267  -16.0919  -47.5035 H         1 UNK         0.1150 
    138 H138        0.0762  -18.2475  -47.3624 H         1 UNK         0.1150 
    139 H139       -0.6599  -16.7060  -45.4944 H         1 UNK         0.0800 
    140 H140       -2.2585  -16.0245  -45.5094 H         1 UNK         0.0800 
    141 H141       -0.6530  -19.7406  -43.8218 H         1 UNK         0.0800 
    142 H142       -0.0878  -19.0107  -45.2781 H         1 UNK         0.0800 
    143 H143       -1.9789  -20.4923  -46.4642 H         1 UNK         0.0600 
    144 H144        0.7598  -21.0976  -45.9100 H         1 UNK         0.3000 
    145 H145        0.9670  -24.0324  -47.8968 H         1 UNK         0.0600 
    146 H146        1.8396  -21.2401  -48.8056 H         1 UNK         0.0600 
    147 H147        2.4326  -22.7802  -49.4223 H         1 UNK         0.0600 
    148 H148        0.7704  -22.2985  -49.7198 H         1 UNK         0.0600 
    149 H149        2.9987  -22.2968  -46.9336 H         1 UNK         0.3000 
    150 H150        2.9388  -23.0667  -43.5208 H         1 UNK         0.0600 
    151 H151        4.0938  -25.1242  -44.3500 H         1 UNK         0.0600 
    152 H152        5.2527  -23.9067  -43.8421 H         1 UNK         0.0600 
    153 H153        4.9476  -24.1729  -45.5593 H         1 UNK         0.0600 
    154 H154        4.8879  -21.7304  -45.0819 H         1 UNK         0.3000 
    155 H155        5.0429  -19.5339  -45.1915 H         1 UNK         0.0600 
    156 H156        3.6299  -19.8565  -47.2927 H         1 UNK         0.0600 
    157 H157        4.2156  -18.2281  -47.0514 H         1 UNK         0.0600 
    158 H158        2.5311  -18.6221  -46.6887 H         1 UNK         0.0600 
    159 H159        2.9543  -17.5720  -44.5876 H         1 UNK         0.3000 
    160 H160        3.8537  -17.2281  -41.1808 H         1 UNK         0.0600 
    161 H161        4.4269  -14.9031  -41.6507 H         1 UNK         0.0600 
    162 H162        4.5438  -15.2177  -43.3782 H         1 UNK         0.0600 
    163 H163        5.7149  -15.9236  -42.2704 H         1 UNK         0.0600 
    164 H164        2.2182  -15.5979  -42.8478 H         1 UNK         0.3000 
    165 H165       -0.2854  -16.5143  -43.2545 H         1 UNK         0.0600 
    166 H166       -1.0364  -17.3211  -40.3944 H         1 UNK         0.0600 
    167 H167       -2.1570  -16.7589  -41.6346 H         1 UNK         0.0600 
    168 H168       -1.3052  -18.2794  -41.8407 H         1 UNK         0.0600 
    169 H169       -0.2498  -14.4447  -42.5063 H         1 UNK         0.3000 
    170 H170       -0.1076  -12.8679  -39.4300 H         1 UNK         0.0600 
    171 H171        2.3442  -12.8123  -41.2774 H         1 UNK         0.0600 
    172 H172        1.8749  -11.5411  -40.1472 H         1 UNK         0.0600 
    173 H173        2.3777  -13.1114  -39.5444 H         1 UNK         0.0600 
    174 H174        0.2404  -11.8934  -42.1186 H         1 UNK         0.3000 
    175 H175       -3.0130  -12.1987  -43.2628 H         1 UNK         0.0600 
    176 H176       -1.8962   -9.5647  -42.1555 H         1 UNK         0.0600 
    177 H177       -3.1369   -9.7224  -43.4002 H         1 UNK         0.0600 
    178 H178       -3.4663  -10.2527  -41.7593 H         1 UNK         0.0600 
    179 H179       -0.8903  -10.5623  -44.1890 H         1 UNK         0.3000 
    180 H180        0.3695  -11.1386  -45.9127 H         1 UNK         0.0600 
    181 H181        1.9324  -13.4877  -44.7111 H         1 UNK         0.0600 
    182 H182        2.0569  -11.7962  -44.2554 H         1 UNK         0.0600 
    183 H183        2.6039  -12.3136  -45.8428 H         1 UNK         0.0600 
    184 H184        0.6508  -13.9243  -46.8457 H         1 UNK         0.3000 
    185 H185       -1.8128  -14.1590  -48.7383 H         1 UNK         0.0600 
    186 H186       -1.7993  -12.3691  -50.3963 H         1 UNK         0.0600 
    187 H187       -0.0664  -12.5202  -50.6363 H         1 UNK         0.0600 
    188 H188       -1.1476  -13.8245  -51.1249 H         1 UNK         0.0600 
    189 H189       -0.2755  -15.7143  -48.6774 H         1 UNK         0.3000 
    190 H190       -0.3288  -22.5151  -44.0354 H         1 UNK         0.3000 
    191 H191       -2.6729  -23.2954  -42.5682 H         1 UNK         0.0600 
    192 H192        0.0739  -24.6402  -42.7935 H         1 UNK         0.0600 
    193 H193       -0.3712  -23.4042  -41.6169 H         1 UNK         0.0600 
    194 H194       -1.1449  -24.9806  -41.5739 H         1 UNK         0.0600 
    195 H195       -1.2602  -24.3511  -45.5716 H         1 UNK         0.3000 
    196 H196       -2.9254  -26.7776  -45.8016 H         1 UNK         0.0600 
    197 H197       -0.5388  -26.7694  -46.6019 H         1 UNK         0.0600 
    198 H198       -0.9497  -25.5223  -47.7760 H         1 UNK         0.0600 
    199 H199       -1.6793  -27.1166  -47.8902 H         1 UNK         0.0600 
    200 H200       -3.8995  -23.7839  -45.7436 H         1 UNK         0.3000 
    201 H201       -5.5581  -22.5672  -46.5301 H         1 UNK         0.0600 
    202 H202       -7.4950  -23.6547  -47.6047 H         1 UNK         0.0600 
    203 H203       -6.9030  -24.6597  -46.2916 H         1 UNK         0.0600 
    204 H204       -6.5490  -25.0907  -47.9641 H         1 UNK         0.0600 
    205 H205       -3.2616  -22.1152  -47.7353 H         1 UNK         0.3000 
    206 H206       -2.2229  -21.0761  -49.3894 H         1 UNK         0.0600 
    207 H207       -4.1976  -19.6101  -49.5351 H         1 UNK         0.0600 
    208 H208       -4.9586  -20.6817  -50.7065 H         1 UNK         0.0600 
    209 H209       -3.4767  -19.8349  -51.1202 H         1 UNK         0.0600 
    210 H210       -2.0479  -23.6908  -49.2940 H         1 UNK         0.3000 
    211 H211       -1.5464  -25.6291  -50.2804 H         1 UNK         0.0600 
    212 H212        0.1808  -24.2211  -51.4145 H         1 UNK         0.0600 
    213 H213       -0.3342  -25.5495  -52.4418 H         1 UNK         0.0600 
    214 H214       -0.9243  -23.9237  -52.7553 H         1 UNK         0.0600 
    215 H215       -4.1185  -25.5067  -50.0087 H         1 UNK         0.3000 
    216 H216       -6.1739  -26.0263  -50.6185 H         1 UNK         0.0600 
    217 H217       -6.5074  -27.9067  -52.1856 H         1 UNK         0.0600 
    218 H218       -4.8879  -27.7050  -52.8393 H         1 UNK         0.0600 
    219 H219       -5.1109  -28.2212  -51.1681 H         1 UNK         0.0600 
    220 H220       -5.5339  -23.5794  -51.3584 H         1 UNK         0.3000 
    221 H221       -5.9731  -21.7908  -52.5234 H         1 UNK         0.0600 
    222 H222       -8.2410  -23.3738  -53.8318 H         1 UNK         0.0600 
    223 H223       -8.3206  -22.6136  -52.2418 H         1 UNK         0.0600 
    224 H224       -8.1315  -21.6248  -53.6783 H         1 UNK         0.0600 
    225 H225       -4.0624  -23.7628  -53.7989 H         1 UNK         0.3000 
    226 H226       -4.2574  -23.1216  -56.6701 H         1 UNK         0.0600 
    227 H227       -3.5338  -25.3998  -55.8564 H         1 UNK         0.0600 
    228 H228       -2.3450  -24.6201  -56.8904 H         1 UNK         0.0600 
    229 H229       -2.0945  -24.6597  -55.1524 H         1 UNK         0.0600 
    230 H230       -2.7520  -21.7750  -53.8223 H         1 UNK         0.3000 
    231 H231       -0.5613  -20.4585  -55.2430 H         1 UNK         0.0600 
    232 H232        0.0990  -19.7061  -53.0410 H         1 UNK         0.0600 
    233 H233       -0.3974  -21.3754  -52.8818 H         1 UNK         0.0600 
    234 H234       -1.4809  -20.0920  -52.3550 H         1 UNK         0.0600 
    235 H235       -0.7808  -18.0190  -53.5843 H         1 UNK         0.3000 
    236 H236       -1.6409  -16.2683  -55.5287 H         1 UNK         0.0600 
    237 H237       -1.2738  -14.5225  -53.7652 H         1 UNK         0.0600 
    238 H238       -1.2393  -15.7757  -52.5325 H         1 UNK         0.0600 
    239 H239        0.0094  -15.7200  -53.7739 H         1 UNK         0.0600 
    240 H240       -3.7025  -17.7479  -53.1660 H         1 UNK         0.3000 
    241 H241       -6.0102  -16.2158  -54.1961 H         1 UNK         0.0600 
    242 H242       -4.7129  -18.9103  -54.9506 H         1 UNK         0.3800 
    243 H243       -6.0701  -19.9996  -54.8466 H         1 UNK         0.3800 
    244 H244       -5.7673  -15.2732  -52.0170 H         1 UNK         0.0800 
    245 H245       -7.1290  -16.3416  -51.9682 H         1 UNK         0.0800 
    246 H246       -4.3487  -15.2225  -49.6755 H         1 UNK         0.0800 
    247 H247       -3.5040  -15.6854  -51.1280 H         1 UNK         0.0800 
@<TRIPOS>BOND
     1    1    2 1    
     2    1  127 1    
     3    1  128 1    
     4    1  129 1    
     5    2    3 2    
     6    2    4 am   BACKBONE|DICT|INTERRES
     7    4    5 1    
     8    4  130 1    
     9    5    6 1    
    10    5   65 1    
    11    5  131 1    
    12    6    7 1    
    13    6  132 1    
    14    6  133 1    
    15    7    8 1    
    16    8    9 1    
    17    8  134 1    
    18    8  135 1    
    19    9   10 ar   
    20    9   14 ar   
    21   10   11 ar   
    22   10  136 1    
    23   11   12 ar   
    24   11  126 1    
    25   12   13 ar   
    26   12  137 1    
    27   13   14 ar   
    28   13   15 1    
    29   14  138 1    
    30   15   16 1    
    31   15  139 1    
    32   15  140 1    
    33   16   17 1    
    34   17   18 1    
    35   17  141 1    
    36   17  142 1    
    37   18   19 1    
    38   18   67 1    
    39   18  143 1    
    40   19   20 am   BACKBONE|DICT|INTERRES
    41   19  144 1    
    42   20   21 2    
    43   20   22 1    
    44   22   23 1    
    45   22   24 1    
    46   22  145 1    
    47   23  146 1    
    48   23  147 1    
    49   23  148 1    
    50   24   25 am   BACKBONE|DICT|INTERRES
    51   24  149 1    
    52   25   26 2    
    53   25   27 1    
    54   27   28 1    
    55   27   29 1    
    56   27  150 1    
    57   28  151 1    
    58   28  152 1    
    59   28  153 1    
    60   29   30 am   BACKBONE|DICT|INTERRES
    61   29  154 1    
    62   30   31 2    
    63   30   32 1    
    64   32   33 1    
    65   32   34 1    
    66   32  155 1    
    67   33  156 1    
    68   33  157 1    
    69   33  158 1    
    70   34   35 am   BACKBONE|DICT|INTERRES
    71   34  159 1    
    72   35   36 2    
    73   35   37 1    
    74   37   38 1    
    75   37   39 1    
    76   37  160 1    
    77   38  161 1    
    78   38  162 1    
    79   38  163 1    
    80   39   40 am   BACKBONE|DICT|INTERRES
    81   39  164 1    
    82   40   41 2    
    83   40   42 1    
    84   42   43 1    
    85   42   44 1    
    86   42  165 1    
    87   43  166 1    
    88   43  167 1    
    89   43  168 1    
    90   44   45 am   BACKBONE|DICT|INTERRES
    91   44  169 1    
    92   45   46 2    
    93   45   47 1    
    94   47   48 1    
    95   47   49 1    
    96   47  170 1    
    97   48  171 1    
    98   48  172 1    
    99   48  173 1    
   100   49   50 am   BACKBONE|DICT|INTERRES
   101   49  174 1    
   102   50   51 2    
   103   50   52 1    
   104   52   53 1    
   105   52   54 1    
   106   52  175 1    
   107   53  176 1    
   108   53  177 1    
   109   53  178 1    
   110   54   55 am   BACKBONE|DICT|INTERRES
   111   54  179 1    
   112   55   56 2    
   113   55   57 1    
   114   57   58 1    
   115   57   59 1    
   116   57  180 1    
   117   58  181 1    
   118   58  182 1    
   119   58  183 1    
   120   59   60 am   BACKBONE|DICT|INTERRES
   121   59  184 1    
   122   60   61 2    
   123   60   62 1    
   124   62   63 1    
   125   62   64 1    
   126   62  185 1    
   127   63  186 1    
   128   63  187 1    
   129   63  188 1    
   130   64   65 am   BACKBONE|DICT|INTERRES
   131   64  189 1    
   132   65   66 2    
   133   67   68 2    
   134   67   69 am   BACKBONE|DICT|INTERRES
   135   69   70 1    
   136   69  190 1    
   137   70   71 1    
   138   70   72 1    
   139   70  191 1    
   140   71  192 1    
   141   71  193 1    
   142   71  194 1    
   143   72   73 2    
   144   72   74 am   BACKBONE|DICT|INTERRES
   145   74   75 1    
   146   74  195 1    
   147   75   76 1    
   148   75   77 1    
   149   75  196 1    
   150   76  197 1    
   151   76  198 1    
   152   76  199 1    
   153   77   78 2    
   154   77   79 am   BACKBONE|DICT|INTERRES
   155   79   80 1    
   156   79  200 1    
   157   80   81 1    
   158   80   82 1    
   159   80  201 1    
   160   81  202 1    
   161   81  203 1    
   162   81  204 1    
   163   82   83 2    
   164   82   84 am   BACKBONE|DICT|INTERRES
   165   84   85 1    
   166   84  205 1    
   167   85   86 1    
   168   85   87 1    
   169   85  206 1    
   170   86  207 1    
   171   86  208 1    
   172   86  209 1    
   173   87   88 2    
   174   87   89 am   BACKBONE|DICT|INTERRES
   175   89   90 1    
   176   89  210 1    
   177   90   91 1    
   178   90   92 1    
   179   90  211 1    
   180   91  212 1    
   181   91  213 1    
   182   91  214 1    
   183   92   93 2    
   184   92   94 am   BACKBONE|DICT|INTERRES
   185   94   95 1    
   186   94  215 1    
   187   95   96 1    
   188   95   97 1    
   189   95  216 1    
   190   96  217 1    
   191   96  218 1    
   192   96  219 1    
   193   97   98 2    
   194   97   99 am   BACKBONE|DICT|INTERRES
   195   99  100 1    
   196   99  220 1    
   197  100  101 1    
   198  100  102 1    
   199  100  221 1    
   200  101  222 1    
   201  101  223 1    
   202  101  224 1    
   203  102  103 2    
   204  102  104 am   BACKBONE|DICT|INTERRES
   205  104  105 1    
   206  104  225 1    
   207  105  106 1    
   208  105  107 1    
   209  105  226 1    
   210  106  227 1    
   211  106  228 1    
   212  106  229 1    
   213  107  108 2    
   214  107  109 am   BACKBONE|DICT|INTERRES
   215  109  110 1    
   216  109  230 1    
   217  110  111 1    
   218  110  112 1    
   219  110  231 1    
   220  111  232 1    
   221  111  233 1    
   222  111  234 1    
   223  112  113 2    
   224  112  114 am   BACKBONE|DICT|INTERRES
   225  114  115 1    
   226  114  235 1    
   227  115  116 1    
   228  115  117 1    
   229  115  236 1    
   230  116  237 1    
   231  116  238 1    
   232  116  239 1    
   233  117  118 2    
   234  117  119 am   BACKBONE|DICT|INTERRES
   235  119  120 1    
   236  119  240 1    
   237  120  121 1    
   238  120  124 1    
   239  120  241 1    
   240  121  122 am   BACKBONE|DICT|INTERRES
   241  121  123 2    
   242  122  242 1    
   243  122  243 1    
   244  124  125 1    
   245  124  244 1    
   246  124  245 1    
   247  125  126 1    
   248  126  246 1    
   249  126  247 1    
@<TRIPOS>SUBSTRUCTURE
     1 UNK         1 GROUP             0       ****    0 ROOT    
