@<TRIPOS>MOLECULE
3R540
247   249    1
SMALL
USER_CHARGES


@<TRIPOS>ATOM
      1 CA          2.8645  -17.3503  -47.9455 C.3       0 UNK        -0.1800 
      2 C           2.1168  -16.2433  -47.2167 C.2       0 UNK         0.5000 
      3 O           1.8727  -15.1851  -47.7965 O.2       0 UNK        -0.5000 
      4 N           1.7655  -16.4865  -45.9463 N.am      1 UNK        -0.5000 
      5 CA          1.0334  -15.5955  -45.0379 C.3       1 UNK         0.1400 
      6 C6         -0.4869  -15.5159  -45.3368 C.3       23 UNK        -0.0398 
      7 S7         -1.3163  -17.0364  -44.7720 S.3       23 UNK        -0.2404 
      8 C8         -3.0296  -16.4791  -44.5422 C.3       23 UNK        -0.0205 
      9 C9         -3.9651  -17.1748  -45.5158 C.ar      23 UNK        -0.0193 
     10 C10        -4.0941  -16.7042  -46.8254 C.ar      23 UNK        -0.1150 
     11 C11        -4.9983  -17.3014  -47.7091 C.ar      23 UNK        -0.0193 
     12 C12        -5.7708  -18.3801  -47.2700 C.ar      23 UNK        -0.1150 
     13 C13        -5.6229  -18.8859  -45.9757 C.ar      23 UNK        -0.0193 
     14 C14        -4.7226  -18.2736  -45.1005 C.ar      23 UNK        -0.1150 
     15 C15        -6.4600  -20.0692  -45.5101 C.3       23 UNK        -0.0205 
     16 S16        -5.5831  -21.6569  -45.6927 S.3       23 UNK        -0.2404 
     17 C17        -5.5884  -21.8903  -47.5098 C.3       23 UNK        -0.0398 
     18 CA         -4.1892  -22.1277  -48.1383 C.3       11 UNK         0.1400 
     19 N          -3.1566  -21.2568  -47.5690 N.am      11 UNK        -0.5000 
     20 C          -1.8449  -21.2908  -47.8376 C.2       10 UNK         0.5000 
     21 O          -1.3338  -22.0090  -48.6985 O.2       10 UNK        -0.5000 
     22 CA         -0.9365  -20.4278  -46.9466 C.3       10 UNK         0.1400 
     23 CB         -0.7054  -19.0636  -47.6105 C.3       10 UNK        -0.1800 
     24 N          -1.4158  -20.2318  -45.5705 N.am      10 UNK        -0.5000 
     25 C          -1.7717  -21.1912  -44.6998 C.2       9 UNK         0.5000 
     26 O          -1.8279  -22.3888  -44.9884 O.2       9 UNK        -0.5000 
     27 CA         -2.1154  -20.7219  -43.2691 C.3       9 UNK         0.1400 
     28 CB         -2.3747  -21.8953  -42.3015 C.3       9 UNK        -0.1800 
     29 N          -1.1175  -19.7964  -42.7119 N.am      9 UNK        -0.5000 
     30 C           0.1941  -20.0335  -42.5348 C.2       8 UNK         0.5000 
     31 O           0.7304  -21.1119  -42.7848 O.2       8 UNK        -0.5000 
     32 CA          1.0652  -18.8795  -41.9979 C.3       8 UNK         0.1400 
     33 CB          2.3731  -18.7337  -42.8026 C.3       8 UNK        -0.1800 
     34 N           0.3583  -17.5954  -41.9816 N.am      8 UNK        -0.5000 
     35 C           0.6214  -16.5991  -41.1288 C.2       7 UNK         0.5000 
     36 O           1.4519  -16.6700  -40.2186 O.2       7 UNK        -0.5000 
     37 CA         -0.1662  -15.2967  -41.3304 C.3       7 UNK         0.1400 
     38 CB         -1.5235  -15.3493  -40.6081 C.3       7 UNK        -0.1800 
     39 N           0.6443  -14.2005  -40.8156 N.am      7 UNK        -0.5000 
     40 C           0.5242  -12.9049  -41.1270 C.2       6 UNK         0.5000 
     41 O          -0.3190  -12.4621  -41.9071 O.2       6 UNK        -0.5000 
     42 CA          1.5343  -11.9500  -40.4640 C.3       6 UNK         0.1400 
     43 CB          1.1309  -11.6546  -39.0107 C.3       6 UNK        -0.1800 
     44 N           2.8855  -12.5142  -40.4892 N.am      6 UNK        -0.5000 
     45 C           3.7221  -12.4068  -41.5295 C.2       5 UNK         0.5000 
     46 O           3.5003  -11.6830  -42.5010 O.2       5 UNK        -0.5000 
     47 CA          5.0118  -13.2481  -41.5018 C.3       5 UNK         0.1400 
     48 CB          5.0648  -14.2851  -40.3556 C.3       5 UNK        -0.1800 
     49 N           5.1300  -13.9164  -42.7936 N.am      5 UNK        -0.5000 
     50 C           6.2352  -14.4609  -43.3120 C.2       4 UNK         0.5000 
     51 O           7.3377  -14.4296  -42.7639 O.2       4 UNK        -0.5000 
     52 CA          6.0833  -15.1611  -44.6726 C.3       4 UNK         0.1400 
     53 CB          5.3683  -16.5139  -44.5089 C.3       4 UNK        -0.1800 
     54 N           5.3318  -14.3388  -45.6211 N.am      4 UNK        -0.5000 
     55 C           5.8754  -13.6328  -46.6224 C.2       3 UNK         0.5000 
     56 O           7.0878  -13.5717  -46.8309 O.2       3 UNK        -0.5000 
     57 CA          4.9189  -12.8848  -47.5749 C.3       3 UNK         0.1400 
     58 CB          4.8241  -13.6170  -48.9228 C.3       3 UNK        -0.1800 
     59 N           3.5709  -12.7319  -47.0271 N.am      3 UNK        -0.5000 
     60 C           3.2076  -11.7605  -46.1775 C.2       2 UNK         0.5000 
     61 O           3.9500  -10.8357  -45.8462 O.2       2 UNK        -0.5000 
     62 CA          1.7821  -11.8366  -45.5890 C.3       2 UNK         0.1400 
     63 CB          0.8321  -10.9078  -46.3602 C.3       2 UNK        -0.1800 
     64 N           1.2129  -13.1876  -45.5730 N.am      2 UNK        -0.5000 
     65 C           1.7272  -14.2291  -44.9049 C.2       1 UNK         0.5000 
     66 O           2.7499  -14.1656  -44.2262 O.2       1 UNK        -0.5000 
     67 C          -3.8149  -23.6246  -48.1061 C.2       11 UNK         0.5000 
     68 O          -4.0263  -24.3124  -49.1065 O.2       11 UNK        -0.5000 
     69 N          -3.2305  -24.0717  -46.9876 N.am      12 UNK        -0.5000 
     70 CA         -2.7484  -25.4330  -46.7837 C.3       12 UNK         0.1400 
     71 CB         -3.2400  -25.9356  -45.4173 C.3       12 UNK        -0.1800 
     72 C          -1.2149  -25.5011  -46.8592 C.2       12 UNK         0.5000 
     73 O          -0.6858  -26.4071  -47.5018 O.2       12 UNK        -0.5000 
     74 N          -0.5247  -24.5521  -46.2098 N.am      13 UNK        -0.5000 
     75 CA          0.9285  -24.5627  -46.0172 C.3       13 UNK         0.1400 
     76 CB          1.3105  -23.5123  -44.9655 C.3       13 UNK        -0.1800 
     77 C           1.7356  -24.3465  -47.3083 C.2       13 UNK         0.5000 
     78 O           2.7926  -24.9579  -47.4674 O.2       13 UNK        -0.5000 
     79 N           1.2178  -23.5016  -48.2078 N.am      14 UNK        -0.5000 
     80 CA          1.7745  -23.2578  -49.5409 C.3       14 UNK         0.1400 
     81 CB          1.8857  -21.7383  -49.7613 C.3       14 UNK        -0.1800 
     82 C           0.9106  -23.9173  -50.6345 C.2       14 UNK         0.5000 
     83 O           1.2125  -23.7575  -51.8175 O.2       14 UNK        -0.5000 
     84 N          -0.1552  -24.6234  -50.2206 N.am      15 UNK        -0.5000 
     85 CA         -1.2013  -25.2445  -51.0383 C.3       15 UNK         0.1400 
     86 CB         -0.6295  -26.4224  -51.8527 C.3       15 UNK        -0.1800 
     87 C          -1.9644  -24.2274  -51.9131 C.2       15 UNK         0.5000 
     88 O          -2.4454  -24.5798  -52.9917 O.2       15 UNK        -0.5000 
     89 N          -2.0701  -22.9763  -51.4404 N.am      16 UNK        -0.5000 
     90 CA         -2.6172  -21.8532  -52.1999 C.3       16 UNK         0.1400 
     91 CB         -2.3384  -20.5424  -51.4547 C.3       16 UNK        -0.1800 
     92 C          -4.1126  -21.9889  -52.5350 C.2       16 UNK         0.5000 
     93 O          -4.5525  -21.4049  -53.5246 O.2       16 UNK        -0.5000 
     94 N          -4.8664  -22.7607  -51.7386 N.am      17 UNK        -0.5000 
     95 CA         -6.2728  -23.0643  -52.0095 C.3       17 UNK         0.1400 
     96 CB         -6.9723  -23.4969  -50.7145 C.3       17 UNK        -0.1800 
     97 C          -6.4358  -24.1317  -53.1059 C.2       17 UNK         0.5000 
     98 O          -7.3759  -24.0470  -53.8951 O.2       17 UNK        -0.5000 
     99 N          -5.5036  -25.0942  -53.1639 N.am      18 UNK        -0.5000 
    100 CA        -5.4454  -26.1244  -54.2042 C.3       18 UNK         0.1400 
    101 CB        -4.5508  -27.2820  -53.7362 C.3       18 UNK        -0.1800 
    102 C         -4.9490  -25.5499  -55.5432 C.2       18 UNK         0.5000 
    103 O         -5.4533  -25.9345  -56.5984 O.2       18 UNK        -0.5000 
    104 N         -4.0023  -24.6038  -55.4683 N.am      19 UNK        -0.5000 
    105 CA        -3.5027  -23.8184  -56.5993 C.3       19 UNK         0.1400 
    106 CB        -2.1932  -23.1336  -56.1787 C.3       19 UNK        -0.1800 
    107 C         -4.5116  -22.7673  -57.1111 C.2       19 UNK         0.5000 
    108 O         -4.3190  -22.2357  -58.2049 O.2       19 UNK        -0.5000 
    109 N         -5.5471  -22.4774  -56.3081 N.am      20 UNK        -0.5000 
    110 CA        -6.6064  -21.4845  -56.5200 C.3       20 UNK         0.1400 
    111 CB        -7.4573  -21.8328  -57.7590 C.3       20 UNK        -0.1800 
    112 C         -6.0910  -20.0288  -56.5270 C.2       20 UNK         0.5000 
    113 O         -6.7099  -19.1553  -57.1377 O.2       20 UNK        -0.5000 
    114 N         -4.9762  -19.7897  -55.8250 N.am      21 UNK        -0.5000 
    115 CA        -4.4387  -18.4630  -55.5314 C.3       21 UNK         0.1400 
    116 CB        -2.9368  -18.5834  -55.2312 C.3       21 UNK        -0.1800 
    117 C         -5.1903  -17.8209  -54.3512 C.2       21 UNK         0.5000 
    118 O         -5.4478  -16.6167  -54.3750 O.2       21 UNK        -0.5000 
    119 N         -5.5591  -18.6506  -53.3687 N.am      22 UNK        -0.5000 
    120 CA        -6.4824  -18.3250  -52.2763 C.3       22 UNK         0.1400 
    121 C         -7.8839  -18.9275  -52.5645 C.2       22 UNK         0.5000 
    122 N         -8.9418  -18.3202  -52.0454 N.am      22 UNK        -0.7600 
    123 O         -8.0250  -19.9538  -53.2263 O.2       22 UNK        -0.5000 
    124 C124       -5.9466  -18.8199  -50.9089 C.3       23 UNK        -0.0398 
    125 S125       -4.4687  -17.8878  -50.3753 S.3       23 UNK        -0.2404 
    126 C126       -5.1599  -16.7591  -49.1230 C.3       23 UNK        -0.0205 
    127 H127        2.9440  -18.2536  -47.3401 H         1 UNK         0.0600 
    128 H128        3.8719  -17.0199  -48.1978 H         1 UNK         0.0600 
    129 H129        2.3457  -17.6070  -48.8692 H         1 UNK         0.0600 
    130 H130        2.0307  -17.3725  -45.5435 H         1 UNK         0.3000 
    131 H131        1.1571  -16.0417  -44.0530 H         1 UNK         0.0600 
    132 H132       -0.9411  -14.6734  -44.8119 H         1 UNK         0.0800 
    133 H133       -0.6807  -15.3696  -46.4006 H         1 UNK         0.0800 
    134 H134       -3.1128  -15.3989  -44.6675 H         1 UNK         0.0800 
    135 H135       -3.3324  -16.6845  -43.5144 H         1 UNK         0.0800 
    136 H136       -3.5007  -15.8605  -47.1488 H         1 UNK         0.1150 
    137 H137       -6.4925  -18.8257  -47.9361 H         1 UNK         0.1150 
    138 H138       -4.6300  -18.6399  -44.0885 H         1 UNK         0.1150 
    139 H139       -7.4051  -20.1087  -46.0540 H         1 UNK         0.0800 
    140 H140       -6.7242  -19.9361  -44.4600 H         1 UNK         0.0800 
    141 H141       -6.0406  -21.0228  -47.9851 H         1 UNK         0.0800 
    142 H142       -6.2702  -22.7117  -47.7368 H         1 UNK         0.0800 
    143 H143       -4.2618  -21.8560  -49.1911 H         1 UNK         0.0600 
    144 H144       -3.4688  -20.6446  -46.8287 H         1 UNK         0.3000 
    145 H145        0.0256  -20.9381  -46.8810 H         1 UNK         0.0600 
    146 H146        0.0439  -18.4878  -47.0705 H         1 UNK         0.0600 
    147 H147       -1.6224  -18.4736  -47.6478 H         1 UNK         0.0600 
    148 H148       -0.3467  -19.1781  -48.6345 H         1 UNK         0.0600 
    149 H149       -1.4160  -19.2745  -45.2433 H         1 UNK         0.3000 
    150 H150       -3.0459  -20.1612  -43.3513 H         1 UNK         0.0600 
    151 H151       -1.5006  -22.5394  -42.2003 H         1 UNK         0.0600 
    152 H152       -3.1981  -22.5170  -42.6554 H         1 UNK         0.0600 
    153 H153       -2.6438  -21.5358  -41.3085 H         1 UNK         0.0600 
    154 H154       -1.4770  -18.8989  -42.4260 H         1 UNK         0.3000 
    155 H155        1.3213  -19.1557  -40.9729 H         1 UNK         0.0600 
    156 H156        2.1731  -18.5175  -43.8515 H         1 UNK         0.0600 
    157 H157        2.9638  -19.6497  -42.7644 H         1 UNK         0.0600 
    158 H158        2.9993  -17.9339  -42.4071 H         1 UNK         0.0600 
    159 H159       -0.3162  -17.4514  -42.7214 H         1 UNK         0.3000 
    160 H160       -0.3326  -15.1422  -42.3965 H         1 UNK         0.0600 
    161 H161       -1.4001  -15.4830  -39.5327 H         1 UNK         0.0600 
    162 H162       -2.1317  -16.1764  -40.9760 H         1 UNK         0.0600 
    163 H163       -2.0940  -14.4342  -40.7679 H         1 UNK         0.0600 
    164 H164        1.3839  -14.5045  -40.1955 H         1 UNK         0.3000 
    165 H165        1.5192  -11.0064  -41.0140 H         1 UNK         0.0600 
    166 H166        0.1284  -11.2271  -38.9644 H         1 UNK         0.0600 
    167 H167        1.1321  -12.5558  -38.3965 H         1 UNK         0.0600 
    168 H168        1.8111  -10.9362  -38.5527 H         1 UNK         0.0600 
    169 H169        3.1496  -13.1071  -39.7162 H         1 UNK         0.3000 
    170 H170        5.8448  -12.5517  -41.3890 H         1 UNK         0.0600 
    171 H171        4.2484  -15.0056  -40.4252 H         1 UNK         0.0600 
    172 H172        5.0110  -13.8031  -39.3788 H         1 UNK         0.0600 
    173 H173        5.9986  -14.8469  -40.3729 H         1 UNK         0.0600 
    174 H174        4.2640  -13.9473  -43.3319 H         1 UNK         0.3000 
    175 H175        7.0854  -15.3623  -45.0571 H         1 UNK         0.0600 
    176 H176        5.9089  -17.1595  -43.8157 H         1 UNK         0.0600 
    177 H177        4.3552  -16.3963  -44.1235 H         1 UNK         0.0600 
    178 H178        5.3029  -17.0412  -45.4608 H         1 UNK         0.0600 
    179 H179        4.3340  -14.2708  -45.4606 H         1 UNK         0.3000 
    180 H180        5.3455  -11.8967  -47.7600 H         1 UNK         0.0600 
    181 H181        4.4286  -14.6261  -48.8069 H         1 UNK         0.0600 
    182 H182        5.8052  -13.7018  -49.3918 H         1 UNK         0.0600 
    183 H183        4.1775  -13.0815  -49.6182 H         1 UNK         0.0600 
    184 H184        2.8970  -13.4518  -47.2683 H         1 UNK         0.3000 
    185 H185        1.8340  -11.4876  -44.5563 H         1 UNK         0.0600 
    186 H186        1.2081   -9.8838  -46.3683 H         1 UNK         0.0600 
    187 H187        0.7161  -11.2235  -47.3978 H         1 UNK         0.0600 
    188 H188       -0.1566  -10.8852  -45.9015 H         1 UNK         0.0600 
    189 H189        0.4104  -13.3363  -46.1667 H         1 UNK         0.3000 
    190 H190       -3.0393  -23.4092  -46.2429 H         1 UNK         0.3000 
    191 H191       -3.1503  -26.0985  -47.5508 H         1 UNK         0.0600 
    192 H192       -4.3292  -25.9528  -45.3753 H         1 UNK         0.0600 
    193 H193       -2.8907  -26.9508  -45.2245 H         1 UNK         0.0600 
    194 H194       -2.8852  -25.3036  -44.6019 H         1 UNK         0.0600 
    195 H195       -1.0337  -23.8206  -45.7166 H         1 UNK         0.3000 
    196 H196        1.2006  -25.5441  -45.6230 H         1 UNK         0.0600 
    197 H197        2.3805  -23.5370  -44.7558 H         1 UNK         0.0600 
    198 H198        0.7911  -23.6895  -44.0234 H         1 UNK         0.0600 
    199 H199        1.0652  -22.5024  -45.2946 H         1 UNK         0.0600 
    200 H200        0.3284  -23.0551  -48.0174 H         1 UNK         0.3000 
    201 H201        2.7762  -23.6836  -49.6247 H         1 UNK         0.0600 
    202 H202        2.3854  -21.5173  -50.7051 H         1 UNK         0.0600 
    203 H203        2.4671  -21.2657  -48.9695 H         1 UNK         0.0600 
    204 H204        0.9086  -21.2570  -49.7923 H         1 UNK         0.0600 
    205 H205       -0.2796  -24.7168  -49.2230 H         1 UNK         0.3000 
    206 H206       -1.9324  -25.6518  -50.3388 H         1 UNK         0.0600 
    207 H207       -0.0878  -27.1178  -51.2115 H         1 UNK         0.0600 
    208 H208       -1.4258  -26.9862  -52.3387 H         1 UNK         0.0600 
    209 H209        0.0526  -26.0825  -52.6325 H         1 UNK         0.0600 
    210 H210       -1.6760  -22.7600  -50.5299 H         1 UNK         0.3000 
    211 H211       -2.0771  -21.8118  -53.1469 H         1 UNK         0.0600 
    212 H212       -2.6476  -19.6821  -52.0482 H         1 UNK         0.0600 
    213 H213       -1.2757  -20.4243  -51.2424 H         1 UNK         0.0600 
    214 H214       -2.8763  -20.4920  -50.5096 H         1 UNK         0.0600 
    215 H215       -4.4301  -23.2449  -50.9631 H         1 UNK         0.3000 
    216 H216       -6.7658  -22.1566  -52.3625 H         1 UNK         0.0600 
    217 H217       -6.9717  -22.6875  -49.9865 H         1 UNK         0.0600 
    218 H218       -6.4930  -24.3662  -50.2633 H         1 UNK         0.0600 
    219 H219       -8.0147  -23.7574  -50.9026 H         1 UNK         0.0600 
    220 H220       -4.7303  -25.0652  -52.5150 H         1 UNK         0.3000 
    221 H221       -6.4525  -26.5173  -54.3596 H         1 UNK         0.0600 
    222 H222       -3.5191  -26.9633  -53.5896 H         1 UNK         0.0600 
    223 H223       -4.9093  -27.7040  -52.7972 H         1 UNK         0.0600 
    224 H224       -4.5416  -28.0868  -54.4722 H         1 UNK         0.0600 
    225 H225       -3.5803  -24.4178  -54.5627 H         1 UNK         0.3000 
    226 H226       -3.2864  -24.5008  -57.4237 H         1 UNK         0.0600 
    227 H227       -1.4664  -23.8577  -55.8094 H         1 UNK         0.0600 
    228 H228       -1.7360  -22.6133  -57.0212 H         1 UNK         0.0600 
    229 H229       -2.3627  -22.3970  -55.3938 H         1 UNK         0.0600 
    230 H230       -5.5913  -22.9650  -55.4246 H         1 UNK         0.3000 
    231 H231       -7.2574  -21.5599  -55.6476 H         1 UNK         0.0600 
    232 H232       -6.8989  -21.7013  -58.6860 H         1 UNK         0.0600 
    233 H233       -8.3404  -21.1956  -57.8177 H         1 UNK         0.0600 
    234 H234       -7.8060  -22.8648  -57.7192 H         1 UNK         0.0600 
    235 H235       -4.5901  -20.5590  -55.2882 H         1 UNK         0.3000 
    236 H236       -4.5631  -17.8208  -56.4059 H         1 UNK         0.0600 
    237 H237       -2.7450  -19.2490  -54.3898 H         1 UNK         0.0600 
    238 H238       -2.3950  -18.9727  -56.0933 H         1 UNK         0.0600 
    239 H239       -2.5075  -17.6108  -54.9876 H         1 UNK         0.0600 
    240 H240       -5.3322  -19.6350  -53.4660 H         1 UNK         0.3000 
    241 H241       -6.6062  -17.2419  -52.2160 H         1 UNK         0.0600 
    242 H242       -8.8596  -17.4753  -51.5012 H         1 UNK         0.3800 
    243 H243       -9.8568  -18.7073  -52.2174 H         1 UNK         0.3800 
    244 H244       -6.7189  -18.7329  -50.1451 H         1 UNK         0.0800 
    245 H245       -5.6913  -19.8793  -50.9554 H         1 UNK         0.0800 
    246 H246       -4.6503  -15.7989  -49.2160 H         1 UNK         0.0800 
    247 H247       -6.2123  -16.5575  -49.3269 H         1 UNK         0.0800 
@<TRIPOS>BOND
     1    1    2 1    
     2    1  127 1    
     3    1  128 1    
     4    1  129 1    
     5    2    3 2    
     6    2    4 am   BACKBONE|DICT|INTERRES
     7    4    5 1    
     8    4  130 1    
     9    5    6 1    
    10    5   65 1    
    11    5  131 1    
    12    6    7 1    
    13    6  132 1    
    14    6  133 1    
    15    7    8 1    
    16    8    9 1    
    17    8  134 1    
    18    8  135 1    
    19    9   10 ar   
    20    9   14 ar   
    21   10   11 ar   
    22   10  136 1    
    23   11   12 ar   
    24   11  126 1    
    25   12   13 ar   
    26   12  137 1    
    27   13   14 ar   
    28   13   15 1    
    29   14  138 1    
    30   15   16 1    
    31   15  139 1    
    32   15  140 1    
    33   16   17 1    
    34   17   18 1    
    35   17  141 1    
    36   17  142 1    
    37   18   19 1    
    38   18   67 1    
    39   18  143 1    
    40   19   20 am   BACKBONE|DICT|INTERRES
    41   19  144 1    
    42   20   21 2    
    43   20   22 1    
    44   22   23 1    
    45   22   24 1    
    46   22  145 1    
    47   23  146 1    
    48   23  147 1    
    49   23  148 1    
    50   24   25 am   BACKBONE|DICT|INTERRES
    51   24  149 1    
    52   25   26 2    
    53   25   27 1    
    54   27   28 1    
    55   27   29 1    
    56   27  150 1    
    57   28  151 1    
    58   28  152 1    
    59   28  153 1    
    60   29   30 am   BACKBONE|DICT|INTERRES
    61   29  154 1    
    62   30   31 2    
    63   30   32 1    
    64   32   33 1    
    65   32   34 1    
    66   32  155 1    
    67   33  156 1    
    68   33  157 1    
    69   33  158 1    
    70   34   35 am   BACKBONE|DICT|INTERRES
    71   34  159 1    
    72   35   36 2    
    73   35   37 1    
    74   37   38 1    
    75   37   39 1    
    76   37  160 1    
    77   38  161 1    
    78   38  162 1    
    79   38  163 1    
    80   39   40 am   BACKBONE|DICT|INTERRES
    81   39  164 1    
    82   40   41 2    
    83   40   42 1    
    84   42   43 1    
    85   42   44 1    
    86   42  165 1    
    87   43  166 1    
    88   43  167 1    
    89   43  168 1    
    90   44   45 am   BACKBONE|DICT|INTERRES
    91   44  169 1    
    92   45   46 2    
    93   45   47 1    
    94   47   48 1    
    95   47   49 1    
    96   47  170 1    
    97   48  171 1    
    98   48  172 1    
    99   48  173 1    
   100   49   50 am   BACKBONE|DICT|INTERRES
   101   49  174 1    
   102   50   51 2    
   103   50   52 1    
   104   52   53 1    
   105   52   54 1    
   106   52  175 1    
   107   53  176 1    
   108   53  177 1    
   109   53  178 1    
   110   54   55 am   BACKBONE|DICT|INTERRES
   111   54  179 1    
   112   55   56 2    
   113   55   57 1    
   114   57   58 1    
   115   57   59 1    
   116   57  180 1    
   117   58  181 1    
   118   58  182 1    
   119   58  183 1    
   120   59   60 am   BACKBONE|DICT|INTERRES
   121   59  184 1    
   122   60   61 2    
   123   60   62 1    
   124   62   63 1    
   125   62   64 1    
   126   62  185 1    
   127   63  186 1    
   128   63  187 1    
   129   63  188 1    
   130   64   65 am   BACKBONE|DICT|INTERRES
   131   64  189 1    
   132   65   66 2    
   133   67   68 2    
   134   67   69 am   BACKBONE|DICT|INTERRES
   135   69   70 1    
   136   69  190 1    
   137   70   71 1    
   138   70   72 1    
   139   70  191 1    
   140   71  192 1    
   141   71  193 1    
   142   71  194 1    
   143   72   73 2    
   144   72   74 am   BACKBONE|DICT|INTERRES
   145   74   75 1    
   146   74  195 1    
   147   75   76 1    
   148   75   77 1    
   149   75  196 1    
   150   76  197 1    
   151   76  198 1    
   152   76  199 1    
   153   77   78 2    
   154   77   79 am   BACKBONE|DICT|INTERRES
   155   79   80 1    
   156   79  200 1    
   157   80   81 1    
   158   80   82 1    
   159   80  201 1    
   160   81  202 1    
   161   81  203 1    
   162   81  204 1    
   163   82   83 2    
   164   82   84 am   BACKBONE|DICT|INTERRES
   165   84   85 1    
   166   84  205 1    
   167   85   86 1    
   168   85   87 1    
   169   85  206 1    
   170   86  207 1    
   171   86  208 1    
   172   86  209 1    
   173   87   88 2    
   174   87   89 am   BACKBONE|DICT|INTERRES
   175   89   90 1    
   176   89  210 1    
   177   90   91 1    
   178   90   92 1    
   179   90  211 1    
   180   91  212 1    
   181   91  213 1    
   182   91  214 1    
   183   92   93 2    
   184   92   94 am   BACKBONE|DICT|INTERRES
   185   94   95 1    
   186   94  215 1    
   187   95   96 1    
   188   95   97 1    
   189   95  216 1    
   190   96  217 1    
   191   96  218 1    
   192   96  219 1    
   193   97   98 2    
   194   97   99 am   BACKBONE|DICT|INTERRES
   195   99  100 1    
   196   99  220 1    
   197  100  101 1    
   198  100  102 1    
   199  100  221 1    
   200  101  222 1    
   201  101  223 1    
   202  101  224 1    
   203  102  103 2    
   204  102  104 am   BACKBONE|DICT|INTERRES
   205  104  105 1    
   206  104  225 1    
   207  105  106 1    
   208  105  107 1    
   209  105  226 1    
   210  106  227 1    
   211  106  228 1    
   212  106  229 1    
   213  107  108 2    
   214  107  109 am   BACKBONE|DICT|INTERRES
   215  109  110 1    
   216  109  230 1    
   217  110  111 1    
   218  110  112 1    
   219  110  231 1    
   220  111  232 1    
   221  111  233 1    
   222  111  234 1    
   223  112  113 2    
   224  112  114 am   BACKBONE|DICT|INTERRES
   225  114  115 1    
   226  114  235 1    
   227  115  116 1    
   228  115  117 1    
   229  115  236 1    
   230  116  237 1    
   231  116  238 1    
   232  116  239 1    
   233  117  118 2    
   234  117  119 am   BACKBONE|DICT|INTERRES
   235  119  120 1    
   236  119  240 1    
   237  120  121 1    
   238  120  124 1    
   239  120  241 1    
   240  121  122 am   BACKBONE|DICT|INTERRES
   241  121  123 2    
   242  122  242 1    
   243  122  243 1    
   244  124  125 1    
   245  124  244 1    
   246  124  245 1    
   247  125  126 1    
   248  126  246 1    
   249  126  247 1    
@<TRIPOS>SUBSTRUCTURE
     1 UNK         1 GROUP             0       ****    0 ROOT    
