@<TRIPOS>MOLECULE
3R540
247   249    1
SMALL
USER_CHARGES


@<TRIPOS>ATOM
      1 CA          2.6520  -15.8633  -47.1517 C.3       0 UNK        -0.1800 
      2 C           1.9527  -14.7201  -46.4317 C.2       0 UNK         0.5000 
      3 O           2.4571  -14.2299  -45.4232 O.2       0 UNK        -0.5000 
      4 N           0.7999  -14.2808  -46.9540 N.am      1 UNK        -0.5000 
      5 CA         -0.0786  -13.2618  -46.3542 C.3       1 UNK         0.1400 
      6 C6         -1.4673  -13.2006  -47.0378 C.3       23 UNK        -0.0398 
      7 S7         -2.2808  -14.8331  -47.1151 S.3       23 UNK        -0.2404 
      8 C8         -2.3616  -15.0962  -48.9130 C.3       23 UNK        -0.0205 
      9 C9         -2.5216  -16.5706  -49.2374 C.ar      23 UNK        -0.0193 
     10 C10        -3.7851  -17.1660  -49.2258 C.ar      23 UNK        -0.1150 
     11 C11        -3.9316  -18.5242  -49.5213 C.ar      23 UNK        -0.0193 
     12 C12        -2.7972  -19.2912  -49.8047 C.ar      23 UNK        -0.1150 
     13 C13        -1.5280  -18.7031  -49.8395 C.ar      23 UNK        -0.0193 
     14 C14        -1.4012  -17.3386  -49.5616 C.ar      23 UNK        -0.1150 
     15 C15        -0.3147  -19.5432  -50.2277 C.3       23 UNK        -0.0205 
     16 S16         1.2040  -19.2028  -49.2676 S.3       23 UNK        -0.2404 
     17 C17         0.6578  -19.3163  -47.5287 C.3       23 UNK        -0.0398 
     18 CA          0.5227  -20.7727  -47.0179 C.3       11 UNK         0.1400 
     19 N           0.8669  -20.8995  -45.6006 N.am      11 UNK        -0.5000 
     20 C           1.0606  -22.0646  -44.9669 C.2       10 UNK         0.5000 
     21 O           1.0609  -23.1576  -45.5322 O.2       10 UNK        -0.5000 
     22 CA          1.2489  -22.0064  -43.4402 C.3       10 UNK         0.1400 
     23 CB          2.7194  -21.7465  -43.0817 C.3       10 UNK        -0.1800 
     24 N           0.3952  -21.0019  -42.8029 N.am      10 UNK        -0.5000 
     25 C          -0.9451  -21.0538  -42.7805 C.2       9 UNK         0.5000 
     26 O          -1.6006  -21.9847  -43.2484 O.2       9 UNK        -0.5000 
     27 CA         -1.6811  -19.8523  -42.1608 C.3       9 UNK         0.1400 
     28 CB         -1.7322  -19.9779  -40.6309 C.3       9 UNK        -0.1800 
     29 N          -1.0919  -18.5638  -42.5266 N.am      9 UNK        -0.5000 
     30 C          -1.0191  -18.0770  -43.7744 C.2       8 UNK         0.5000 
     31 O          -1.4520  -18.6614  -44.7667 O.2       8 UNK        -0.5000 
     32 CA         -0.2768  -16.7394  -43.9468 C.3       8 UNK         0.1400 
     33 CB         -1.1236  -15.5699  -43.4194 C.3       8 UNK        -0.1800 
     34 N           1.0231  -16.7469  -43.2756 N.am      8 UNK        -0.5000 
     35 C           2.0188  -17.6048  -43.5409 C.2       7 UNK         0.5000 
     36 O           1.9758  -18.4529  -44.4312 O.2       7 UNK        -0.5000 
     37 CA          3.2440  -17.5471  -42.6145 C.3       7 UNK         0.1400 
     38 CB          4.2160  -16.4422  -43.0531 C.3       7 UNK        -0.1800 
     39 N           2.8549  -17.3471  -41.2180 N.am      7 UNK        -0.5000 
     40 C           2.2359  -18.2710  -40.4682 C.2       6 UNK         0.5000 
     41 O           1.9707  -19.4054  -40.8638 O.2       6 UNK        -0.5000 
     42 CA          1.8025  -17.8411  -39.0544 C.3       6 UNK         0.1400 
     43 CB          2.9765  -17.9507  -38.0702 C.3       6 UNK        -0.1800 
     44 N           1.2688  -16.4791  -39.0230 N.am      6 UNK        -0.5000 
     45 C           0.1312  -16.0969  -39.6209 C.2       5 UNK         0.5000 
     46 O          -0.6250  -16.8726  -40.2039 O.2       5 UNK        -0.5000 
     47 CA         -0.1884  -14.5884  -39.6094 C.3       5 UNK         0.1400 
     48 CB         -1.0378  -14.2276  -38.3820 C.3       5 UNK        -0.1800 
     49 N           1.0071  -13.7382  -39.6403 N.am      5 UNK        -0.5000 
     50 C           1.9097  -13.7316  -40.6304 C.2       4 UNK         0.5000 
     51 O           1.8226  -14.4467  -41.6305 O.2       4 UNK        -0.5000 
     52 CA          3.1490  -12.8427  -40.4135 C.3       4 UNK         0.1400 
     53 CB          4.1192  -13.5239  -39.4339 C.3       4 UNK        -0.1800 
     54 N           3.8742  -12.5610  -41.6528 N.am      4 UNK        -0.5000 
     55 C           3.4315  -11.7891  -42.6531 C.2       3 UNK         0.5000 
     56 O           2.3544  -11.1890  -42.6181 O.2       3 UNK        -0.5000 
     57 CA          4.3683  -11.6187  -43.8686 C.3       3 UNK         0.1400 
     58 CB          5.3687  -12.7775  -44.0551 C.3       3 UNK        -0.1800 
     59 N           3.5826  -11.4838  -45.0915 N.am      3 UNK        -0.5000 
     60 C           3.3414  -10.3361  -45.7399 C.2       2 UNK         0.5000 
     61 O           3.8086   -9.2477  -45.4003 O.2       2 UNK        -0.5000 
     62 CA          2.4396  -10.4041  -46.9913 C.3       2 UNK         0.1400 
     63 CB          3.2886  -10.3249  -48.2699 C.3       2 UNK        -0.1800 
     64 N           1.6215  -11.6159  -47.0472 N.am      2 UNK        -0.5000 
     65 C           0.5491  -11.8519  -46.2790 C.2       1 UNK         0.5000 
     66 O           0.0585  -11.0127  -45.5233 O.2       1 UNK        -0.5000 
     67 C          -0.8847  -21.3373  -47.2922 C.2       11 UNK         0.5000 
     68 O          -1.0362  -22.1886  -48.1665 O.2       11 UNK        -0.5000 
     69 N          -1.8758  -20.8870  -46.5085 N.am      12 UNK        -0.5000 
     70 CA         -3.2944  -21.2381  -46.6308 C.3       12 UNK         0.1400 
     71 CB         -4.1165  -20.3200  -45.7139 C.3       12 UNK        -0.1800 
     72 C          -3.6305  -22.7212  -46.3742 C.2       12 UNK         0.5000 
     73 O          -4.7472  -23.1445  -46.6756 O.2       12 UNK        -0.5000 
     74 N          -2.6689  -23.4954  -45.8532 N.am      13 UNK        -0.5000 
     75 CA         -2.7226  -24.9555  -45.7841 C.3       13 UNK         0.1400 
     76 CB         -1.5645  -25.4604  -44.9112 C.3       13 UNK        -0.1800 
     77 C          -2.6870  -25.6214  -47.1777 C.2       13 UNK         0.5000 
     78 O          -3.1829  -26.7401  -47.3197 O.2       13 UNK        -0.5000 
     79 N          -2.1284  -24.9242  -48.1766 N.am      14 UNK        -0.5000 
     80 CA         -2.1898  -25.2774  -49.5901 C.3       14 UNK         0.1400 
     81 CB         -0.7959  -25.0909  -50.2112 C.3       14 UNK        -0.1800 
     82 C          -3.2073  -24.3638  -50.2912 C.2       14 UNK         0.5000 
     83 O          -3.4030  -23.2176  -49.8789 O.2       14 UNK        -0.5000 
     84 N          -3.8128  -24.8696  -51.3712 N.am      15 UNK        -0.5000 
     85 CA         -4.7594  -24.1322  -52.2057 C.3       15 UNK         0.1400 
     86 CB         -5.6013  -25.1342  -53.0140 C.3       15 UNK        -0.1800 
     87 C          -4.0124  -23.1346  -53.1099 C.2       15 UNK         0.5000 
     88 O          -3.7001  -23.4612  -54.2576 O.2       15 UNK        -0.5000 
     89 N          -3.7029  -21.9553  -52.5538 N.am      16 UNK        -0.5000 
     90 CA         -3.0190  -20.8243  -53.1907 C.3       16 UNK         0.1400 
     91 CB         -3.9072  -20.2043  -54.2876 C.3       16 UNK        -0.1800 
     92 C          -1.6074  -21.1919  -53.6865 C.2       16 UNK         0.5000 
     93 O          -1.2147  -20.7967  -54.7833 O.2       16 UNK        -0.5000 
     94 N          -0.8906  -21.9929  -52.8819 N.am      17 UNK        -0.5000 
     95 CA          0.4119  -22.5983  -53.1920 C.3       17 UNK         0.1400 
     96 CB          1.5187  -21.5256  -53.2646 C.3       17 UNK        -0.1800 
     97 C           0.3530  -23.5069  -54.4420 C.2       17 UNK         0.5000 
     98 O           1.2631  -23.4895  -55.2719 O.2       17 UNK        -0.5000 
     99 N          -0.7429  -24.2744  -54.5387 N.am      18 UNK        -0.5000 
    100 CA        -1.1114  -25.2065  -55.6092 C.3       18 UNK         0.1400 
    101 CB        -0.0252  -26.2787  -55.8397 C.3       18 UNK        -0.1800 
    102 C         -1.5787  -24.5244  -56.9133 C.2       18 UNK         0.5000 
    103 O         -1.6283  -25.1838  -57.9530 O.2       18 UNK        -0.5000 
    104 N         -1.9690  -23.2426  -56.8416 N.am      19 UNK        -0.5000 
    105 CA        -2.6373  -22.5242  -57.9333 C.3       19 UNK         0.1400 
    106 CB        -2.3721  -21.0169  -57.8055 C.3       19 UNK        -0.1800 
    107 C         -4.1519  -22.8220  -58.0114 C.2       19 UNK         0.5000 
    108 O         -4.7826  -22.4347  -58.9956 O.2       19 UNK        -0.5000 
    109 N         -4.6956  -23.5192  -57.0008 N.am      20 UNK        -0.5000 
    110 CA        -6.0670  -24.0245  -56.8905 C.3       20 UNK         0.1400 
    111 CB        -6.4142  -24.9807  -58.0520 C.3       20 UNK        -0.1800 
    112 C         -7.1006  -22.9007  -56.6857 C.2       20 UNK         0.5000 
    113 O         -8.0456  -22.7629  -57.4651 O.2       20 UNK        -0.5000 
    114 N         -6.9060  -22.1312  -55.6118 N.am      21 UNK        -0.5000 
    115 CA        -7.8316  -21.1263  -55.0949 C.3       21 UNK         0.1400 
    116 CB        -7.5192  -19.7600  -55.7305 C.3       21 UNK        -0.1800 
    117 C         -7.6997  -21.0924  -53.5627 C.2       21 UNK         0.5000 
    118 O         -6.7840  -21.7163  -53.0284 O.2       21 UNK        -0.5000 
    119 N         -8.6156  -20.3862  -52.8874 N.am      22 UNK        -0.5000 
    120 CA        -8.6556  -20.1168  -51.4310 C.3       22 UNK         0.1400 
    121 C         -8.5647  -21.3308  -50.4508 C.2       22 UNK         0.5000 
    122 N         -8.7475  -22.5653  -50.9005 N.am      22 UNK        -0.7600 
    123 O         -8.3821  -21.1504  -49.2498 O.2       22 UNK        -0.5000 
    124 C124       -7.7899  -18.8942  -51.0010 C.3       23 UNK        -0.0398 
    125 S125       -5.9864  -19.0332  -51.2652 S.3       23 UNK        -0.2404 
    126 C126       -5.3206  -19.1425  -49.5739 C.3       23 UNK        -0.0205 
    127 H127        3.6053  -15.5242  -47.5565 H         1 UNK         0.0600 
    128 H128        2.8481  -16.6791  -46.4564 H         1 UNK         0.0600 
    129 H129        2.0502  -16.2551  -47.9721 H         1 UNK         0.0600 
    130 H130        0.4371  -14.7240  -47.7850 H         1 UNK         0.3000 
    131 H131       -0.2403  -13.5639  -45.3200 H         1 UNK         0.0600 
    132 H132       -2.1300  -12.5321  -46.4852 H         1 UNK         0.0800 
    133 H133       -1.3841  -12.7775  -48.0403 H         1 UNK         0.0800 
    134 H134       -1.4588  -14.7118  -49.3900 H         1 UNK         0.0800 
    135 H135       -3.1953  -14.5263  -49.3261 H         1 UNK         0.0800 
    136 H136       -4.6563  -16.5677  -48.9984 H         1 UNK         0.1150 
    137 H137       -2.9084  -20.3440  -50.0243 H         1 UNK         0.1150 
    138 H138       -0.4266  -16.8729  -49.5933 H         1 UNK         0.1150 
    139 H139       -0.5430  -20.6064  -50.1581 H         1 UNK         0.0800 
    140 H140       -0.0991  -19.3547  -51.2799 H         1 UNK         0.0800 
    141 H141       -0.2480  -18.7301  -47.3645 H         1 UNK         0.0800 
    142 H142        1.4300  -18.8016  -46.9575 H         1 UNK         0.0800 
    143 H143        1.2369  -21.3935  -47.5636 H         1 UNK         0.0600 
    144 H144        0.9443  -20.0372  -45.0699 H         1 UNK         0.3000 
    145 H145        0.9708  -22.9824  -43.0367 H         1 UNK         0.0600 
    146 H146        2.8749  -21.7836  -42.0035 H         1 UNK         0.0600 
    147 H147        3.3691  -22.4994  -43.5295 H         1 UNK         0.0600 
    148 H148        3.0544  -20.7718  -43.4358 H         1 UNK         0.0600 
    149 H149        0.8664  -20.2312  -42.3404 H         1 UNK         0.3000 
    150 H150       -2.7064  -19.8638  -42.5354 H         1 UNK         0.0600 
    151 H151       -2.1806  -20.9257  -40.3305 H         1 UNK         0.0600 
    152 H152       -2.3310  -19.1805  -40.1904 H         1 UNK         0.0600 
    153 H153       -0.7361  -19.9298  -40.1898 H         1 UNK         0.0600 
    154 H154       -0.7382  -17.9969  -41.7606 H         1 UNK         0.3000 
    155 H155       -0.0963  -16.5821  -45.0120 H         1 UNK         0.0600 
    156 H156       -1.5135  -15.7634  -42.4210 H         1 UNK         0.0600 
    157 H157       -1.9801  -15.3906  -44.0696 H         1 UNK         0.0600 
    158 H158       -0.5459  -14.6477  -43.3685 H         1 UNK         0.0600 
    159 H159        1.1801  -16.0360  -42.5670 H         1 UNK         0.3000 
    160 H160        3.7664  -18.5029  -42.6888 H         1 UNK         0.0600 
    161 H161        5.1014  -16.4167  -42.4181 H         1 UNK         0.0600 
    162 H162        3.7492  -15.4586  -43.0203 H         1 UNK         0.0600 
    163 H163        4.5523  -16.6054  -44.0777 H         1 UNK         0.0600 
    164 H164        2.9689  -16.4155  -40.8477 H         1 UNK         0.3000 
    165 H165        1.0152  -18.5227  -38.7253 H         1 UNK         0.0600 
    166 H166        2.6600  -17.7225  -37.0523 H         1 UNK         0.0600 
    167 H167        3.3857  -18.9619  -38.0631 H         1 UNK         0.0600 
    168 H168        3.7879  -17.2698  -38.3306 H         1 UNK         0.0600 
    169 H169        1.8258  -15.7791  -38.5566 H         1 UNK         0.3000 
    170 H170       -0.7731  -14.3697  -40.5049 H         1 UNK         0.0600 
    171 H171       -1.9465  -14.8301  -38.3458 H         1 UNK         0.0600 
    172 H172       -0.4944  -14.3966  -37.4515 H         1 UNK         0.0600 
    173 H173       -1.3444  -13.1817  -38.4077 H         1 UNK         0.0600 
    174 H174        1.1488  -13.1346  -38.8430 H         1 UNK         0.3000 
    175 H175        2.8210  -11.8933  -39.9852 H         1 UNK         0.0600 
    176 H176        4.4756  -14.4803  -39.8191 H         1 UNK         0.0600 
    177 H177        4.9895  -12.8961  -39.2410 H         1 UNK         0.0600 
    178 H178        3.6433  -13.7144  -38.4712 H         1 UNK         0.0600 
    179 H179        4.7564  -13.0356  -41.7707 H         1 UNK         0.3000 
    180 H180        4.9472  -10.7107  -43.6901 H         1 UNK         0.0600 
    181 H181        4.8604  -13.7335  -44.1775 H         1 UNK         0.0600 
    182 H182        6.0523  -12.8627  -43.2100 H         1 UNK         0.0600 
    183 H183        5.9836  -12.6192  -44.9412 H         1 UNK         0.0600 
    184 H184        3.1070  -12.3291  -45.3912 H         1 UNK         0.3000 
    185 H185        1.7762   -9.5369  -46.9671 H         1 UNK         0.0600 
    186 H186        3.8912   -9.4158  -48.2835 H         1 UNK         0.0600 
    187 H187        3.9708  -11.1720  -48.3529 H         1 UNK         0.0600 
    188 H188        2.6605  -10.3097  -49.1608 H         1 UNK         0.0600 
    189 H189        1.9544  -12.3619  -47.6402 H         1 UNK         0.3000 
    190 H190       -1.6584  -20.1772  -45.8116 H         1 UNK         0.3000 
    191 H191       -3.5881  -21.0351  -47.6612 H         1 UNK         0.0600 
    192 H192       -3.8456  -20.4576  -44.6669 H         1 UNK         0.0600 
    193 H193       -5.1841  -20.5213  -45.8089 H         1 UNK         0.0600 
    194 H194       -3.9616  -19.2708  -45.9675 H         1 UNK         0.0600 
    195 H195       -1.7987  -23.0571  -45.5848 H         1 UNK         0.3000 
    196 H196       -3.6618  -25.2366  -45.3036 H         1 UNK         0.0600 
    197 H197       -1.6295  -26.5392  -44.7648 H         1 UNK         0.0600 
    198 H198       -1.5788  -24.9953  -43.9251 H         1 UNK         0.0600 
    199 H199       -0.5972  -25.2506  -45.3680 H         1 UNK         0.0600 
    200 H200       -1.8070  -23.9766  -47.9937 H         1 UNK         0.3000 
    201 H201       -2.4963  -26.3176  -49.7168 H         1 UNK         0.0600 
    202 H202       -0.0598  -25.7274  -49.7199 H         1 UNK         0.0600 
    203 H203       -0.4518  -24.0592  -50.1272 H         1 UNK         0.0600 
    204 H204       -0.7979  -25.3539  -51.2697 H         1 UNK         0.0600 
    205 H205       -3.5893  -25.8078  -51.6699 H         1 UNK         0.3000 
    206 H206       -5.4407  -23.5707  -51.5621 H         1 UNK         0.0600 
    207 H207       -6.1338  -25.8207  -52.3557 H         1 UNK         0.0600 
    208 H208       -6.3524  -24.6120  -53.6069 H         1 UNK         0.0600 
    209 H209       -4.9909  -25.7286  -53.6952 H         1 UNK         0.0600 
    210 H210       -3.9718  -21.8222  -51.5870 H         1 UNK         0.3000 
    211 H211       -2.8785  -20.0621  -52.4262 H         1 UNK         0.0600 
    212 H212       -4.1507  -20.9212  -55.0706 H         1 UNK         0.0600 
    213 H213       -3.4227  -19.3472  -54.7562 H         1 UNK         0.0600 
    214 H214       -4.8444  -19.8470  -53.8655 H         1 UNK         0.0600 
    215 H215       -1.3119  -22.2736  -52.0078 H         1 UNK         0.3000 
    216 H216        0.6531  -23.2550  -52.3551 H         1 UNK         0.0600 
    217 H217        1.3735  -20.8453  -54.1041 H         1 UNK         0.0600 
    218 H218        2.5002  -21.9855  -53.3844 H         1 UNK         0.0600 
    219 H219        1.5520  -20.9312  -52.3519 H         1 UNK         0.0600 
    220 H220       -1.4579  -24.1475  -53.8365 H         1 UNK         0.3000 
    221 H221       -1.9930  -25.7287  -55.2346 H         1 UNK         0.0600 
    222 H222        0.8615  -25.8644  -56.3195 H         1 UNK         0.0600 
    223 H223        0.2825  -26.7385  -54.9005 H         1 UNK         0.0600 
    224 H224       -0.3962  -27.0774  -56.4829 H         1 UNK         0.0600 
    225 H225       -1.8980  -22.7587  -55.9559 H         1 UNK         0.3000 
    226 H226       -2.2012  -22.8482  -58.8805 H         1 UNK         0.0600 
    227 H227       -1.3041  -20.8070  -57.7434 H         1 UNK         0.0600 
    228 H228       -2.7592  -20.4790  -58.6717 H         1 UNK         0.0600 
    229 H229       -2.8481  -20.5937  -56.9238 H         1 UNK         0.0600 
    230 H230       -4.1089  -23.6966  -56.1912 H         1 UNK         0.3000 
    231 H231       -6.0873  -24.6234  -55.9799 H         1 UNK         0.0600 
    232 H232       -5.6741  -25.7759  -58.1419 H         1 UNK         0.0600 
    233 H233       -6.4688  -24.4630  -59.0097 H         1 UNK         0.0600 
    234 H234       -7.3818  -25.4554  -57.8858 H         1 UNK         0.0600 
    235 H235       -6.1331  -22.3281  -54.9878 H         1 UNK         0.3000 
    236 H236       -8.8575  -21.4143  -55.3335 H         1 UNK         0.0600 
    237 H237       -8.1951  -18.9878  -55.3620 H         1 UNK         0.0600 
    238 H238       -6.5015  -19.4364  -55.5142 H         1 UNK         0.0600 
    239 H239       -7.6317  -19.7971  -56.8141 H         1 UNK         0.0600 
    240 H240       -9.3510  -19.9413  -53.4174 H         1 UNK         0.3000 
    241 H241       -9.6851  -19.7908  -51.2788 H         1 UNK         0.0600 
    242 H242       -8.8646  -22.7345  -51.8861 H         1 UNK         0.3800 
    243 H243       -8.7078  -23.3385  -50.2561 H         1 UNK         0.3800 
    244 H244       -8.1179  -18.0231  -51.5691 H         1 UNK         0.0800 
    245 H245       -7.9912  -18.6347  -49.9610 H         1 UNK         0.0800 
    246 H246       -5.9756  -18.6286  -48.8693 H         1 UNK         0.0800 
    247 H247       -5.2920  -20.1885  -49.2647 H         1 UNK         0.0800 
@<TRIPOS>BOND
     1    1    2 1    
     2    1  127 1    
     3    1  128 1    
     4    1  129 1    
     5    2    3 2    
     6    2    4 am   BACKBONE|DICT|INTERRES
     7    4    5 1    
     8    4  130 1    
     9    5    6 1    
    10    5   65 1    
    11    5  131 1    
    12    6    7 1    
    13    6  132 1    
    14    6  133 1    
    15    7    8 1    
    16    8    9 1    
    17    8  134 1    
    18    8  135 1    
    19    9   10 ar   
    20    9   14 ar   
    21   10   11 ar   
    22   10  136 1    
    23   11   12 ar   
    24   11  126 1    
    25   12   13 ar   
    26   12  137 1    
    27   13   14 ar   
    28   13   15 1    
    29   14  138 1    
    30   15   16 1    
    31   15  139 1    
    32   15  140 1    
    33   16   17 1    
    34   17   18 1    
    35   17  141 1    
    36   17  142 1    
    37   18   19 1    
    38   18   67 1    
    39   18  143 1    
    40   19   20 am   BACKBONE|DICT|INTERRES
    41   19  144 1    
    42   20   21 2    
    43   20   22 1    
    44   22   23 1    
    45   22   24 1    
    46   22  145 1    
    47   23  146 1    
    48   23  147 1    
    49   23  148 1    
    50   24   25 am   BACKBONE|DICT|INTERRES
    51   24  149 1    
    52   25   26 2    
    53   25   27 1    
    54   27   28 1    
    55   27   29 1    
    56   27  150 1    
    57   28  151 1    
    58   28  152 1    
    59   28  153 1    
    60   29   30 am   BACKBONE|DICT|INTERRES
    61   29  154 1    
    62   30   31 2    
    63   30   32 1    
    64   32   33 1    
    65   32   34 1    
    66   32  155 1    
    67   33  156 1    
    68   33  157 1    
    69   33  158 1    
    70   34   35 am   BACKBONE|DICT|INTERRES
    71   34  159 1    
    72   35   36 2    
    73   35   37 1    
    74   37   38 1    
    75   37   39 1    
    76   37  160 1    
    77   38  161 1    
    78   38  162 1    
    79   38  163 1    
    80   39   40 am   BACKBONE|DICT|INTERRES
    81   39  164 1    
    82   40   41 2    
    83   40   42 1    
    84   42   43 1    
    85   42   44 1    
    86   42  165 1    
    87   43  166 1    
    88   43  167 1    
    89   43  168 1    
    90   44   45 am   BACKBONE|DICT|INTERRES
    91   44  169 1    
    92   45   46 2    
    93   45   47 1    
    94   47   48 1    
    95   47   49 1    
    96   47  170 1    
    97   48  171 1    
    98   48  172 1    
    99   48  173 1    
   100   49   50 am   BACKBONE|DICT|INTERRES
   101   49  174 1    
   102   50   51 2    
   103   50   52 1    
   104   52   53 1    
   105   52   54 1    
   106   52  175 1    
   107   53  176 1    
   108   53  177 1    
   109   53  178 1    
   110   54   55 am   BACKBONE|DICT|INTERRES
   111   54  179 1    
   112   55   56 2    
   113   55   57 1    
   114   57   58 1    
   115   57   59 1    
   116   57  180 1    
   117   58  181 1    
   118   58  182 1    
   119   58  183 1    
   120   59   60 am   BACKBONE|DICT|INTERRES
   121   59  184 1    
   122   60   61 2    
   123   60   62 1    
   124   62   63 1    
   125   62   64 1    
   126   62  185 1    
   127   63  186 1    
   128   63  187 1    
   129   63  188 1    
   130   64   65 am   BACKBONE|DICT|INTERRES
   131   64  189 1    
   132   65   66 2    
   133   67   68 2    
   134   67   69 am   BACKBONE|DICT|INTERRES
   135   69   70 1    
   136   69  190 1    
   137   70   71 1    
   138   70   72 1    
   139   70  191 1    
   140   71  192 1    
   141   71  193 1    
   142   71  194 1    
   143   72   73 2    
   144   72   74 am   BACKBONE|DICT|INTERRES
   145   74   75 1    
   146   74  195 1    
   147   75   76 1    
   148   75   77 1    
   149   75  196 1    
   150   76  197 1    
   151   76  198 1    
   152   76  199 1    
   153   77   78 2    
   154   77   79 am   BACKBONE|DICT|INTERRES
   155   79   80 1    
   156   79  200 1    
   157   80   81 1    
   158   80   82 1    
   159   80  201 1    
   160   81  202 1    
   161   81  203 1    
   162   81  204 1    
   163   82   83 2    
   164   82   84 am   BACKBONE|DICT|INTERRES
   165   84   85 1    
   166   84  205 1    
   167   85   86 1    
   168   85   87 1    
   169   85  206 1    
   170   86  207 1    
   171   86  208 1    
   172   86  209 1    
   173   87   88 2    
   174   87   89 am   BACKBONE|DICT|INTERRES
   175   89   90 1    
   176   89  210 1    
   177   90   91 1    
   178   90   92 1    
   179   90  211 1    
   180   91  212 1    
   181   91  213 1    
   182   91  214 1    
   183   92   93 2    
   184   92   94 am   BACKBONE|DICT|INTERRES
   185   94   95 1    
   186   94  215 1    
   187   95   96 1    
   188   95   97 1    
   189   95  216 1    
   190   96  217 1    
   191   96  218 1    
   192   96  219 1    
   193   97   98 2    
   194   97   99 am   BACKBONE|DICT|INTERRES
   195   99  100 1    
   196   99  220 1    
   197  100  101 1    
   198  100  102 1    
   199  100  221 1    
   200  101  222 1    
   201  101  223 1    
   202  101  224 1    
   203  102  103 2    
   204  102  104 am   BACKBONE|DICT|INTERRES
   205  104  105 1    
   206  104  225 1    
   207  105  106 1    
   208  105  107 1    
   209  105  226 1    
   210  106  227 1    
   211  106  228 1    
   212  106  229 1    
   213  107  108 2    
   214  107  109 am   BACKBONE|DICT|INTERRES
   215  109  110 1    
   216  109  230 1    
   217  110  111 1    
   218  110  112 1    
   219  110  231 1    
   220  111  232 1    
   221  111  233 1    
   222  111  234 1    
   223  112  113 2    
   224  112  114 am   BACKBONE|DICT|INTERRES
   225  114  115 1    
   226  114  235 1    
   227  115  116 1    
   228  115  117 1    
   229  115  236 1    
   230  116  237 1    
   231  116  238 1    
   232  116  239 1    
   233  117  118 2    
   234  117  119 am   BACKBONE|DICT|INTERRES
   235  119  120 1    
   236  119  240 1    
   237  120  121 1    
   238  120  124 1    
   239  120  241 1    
   240  121  122 am   BACKBONE|DICT|INTERRES
   241  121  123 2    
   242  122  242 1    
   243  122  243 1    
   244  124  125 1    
   245  124  244 1    
   246  124  245 1    
   247  125  126 1    
   248  126  246 1    
   249  126  247 1    
@<TRIPOS>SUBSTRUCTURE
     1 UNK         1 GROUP             0       ****    0 ROOT    
