@<TRIPOS>MOLECULE
3R540
247   249    1
SMALL
USER_CHARGES


@<TRIPOS>ATOM
      1 CA          7.3579  -12.2863  -44.1843 C.3       0 UNK        -0.1800 
      2 C           6.5849  -12.6398  -45.4467 C.2       0 UNK         0.5000 
      3 O           6.9377  -12.1752  -46.5304 O.2       0 UNK        -0.5000 
      4 N           5.5302  -13.4563  -45.3067 N.am      1 UNK        -0.5000 
      5 CA          4.6487  -13.9244  -46.3886 C.3       1 UNK         0.1400 
      6 C6          5.4012  -14.7737  -47.4527 C.3       23 UNK        -0.0398 
      7 S7          4.4326  -16.2158  -48.0022 S.3       23 UNK        -0.2404 
      8 C8          4.4574  -16.0103  -49.8100 C.3       23 UNK        -0.0205 
      9 C9          3.8124  -17.1911  -50.5253 C.ar      23 UNK        -0.0193 
     10 C10         2.7579  -16.9892  -51.4222 C.ar      23 UNK        -0.1150 
     11 C11         2.1808  -18.0723  -52.0946 C.ar      23 UNK        -0.0193 
     12 C12         2.6720  -19.3597  -51.8718 C.ar      23 UNK        -0.1150 
     13 C13         3.7013  -19.5806  -50.9537 C.ar      23 UNK        -0.0193 
     14 C14         4.2795  -18.4904  -50.2994 C.ar      23 UNK        -0.1150 
     15 C15         4.1735  -20.9956  -50.6484 C.3       23 UNK        -0.0205 
     16 S16         2.8008  -22.1143  -50.2107 S.3       23 UNK        -0.2404 
     17 C17         2.0294  -21.2325  -48.8089 C.3       23 UNK        -0.0398 
     18 CA          1.0060  -22.1243  -48.0666 C.3       11 UNK         0.1400 
     19 N           0.8688  -21.7581  -46.6538 N.am      11 UNK        -0.5000 
     20 C           0.2906  -22.5474  -45.7368 C.2       10 UNK         0.5000 
     21 O          -0.1664  -23.6617  -45.9882 O.2       10 UNK        -0.5000 
     22 CA          0.1647  -21.9903  -44.3099 C.3       10 UNK         0.1400 
     23 CB          1.5003  -22.1100  -43.5612 C.3       10 UNK        -0.1800 
     24 N          -0.3028  -20.6044  -44.2866 N.am      10 UNK        -0.5000 
     25 C          -1.5084  -20.2049  -44.7159 C.2       9 UNK         0.5000 
     26 O          -2.3670  -20.9752  -45.1431 O.2       9 UNK        -0.5000 
     27 CA         -1.7912  -18.6915  -44.7104 C.3       9 UNK         0.1400 
     28 CB         -2.1821  -18.2104  -43.3056 C.3       9 UNK        -0.1800 
     29 N          -0.6614  -17.9034  -45.1979 N.am      9 UNK        -0.5000 
     30 C          -0.1455  -17.9810  -46.4329 C.2       8 UNK         0.5000 
     31 O          -0.5843  -18.7107  -47.3214 O.2       8 UNK        -0.5000 
     32 CA          1.1179  -17.1474  -46.6916 C.3       8 UNK         0.1400 
     33 CB          0.7717  -15.6705  -46.9358 C.3       8 UNK        -0.1800 
     34 N           2.0609  -17.2558  -45.5798 N.am      8 UNK        -0.5000 
     35 C           2.7513  -18.3651  -45.2815 C.2       7 UNK         0.5000 
     36 O           2.6739  -19.4162  -45.9194 O.2       7 UNK        -0.5000 
     37 CA          3.6483  -18.2935  -44.0318 C.3       7 UNK         0.1400 
     38 CB          4.9895  -17.6225  -44.3668 C.3       7 UNK        -0.1800 
     39 N           3.0134  -17.5836  -42.9179 N.am      7 UNK        -0.5000 
     40 C           1.9261  -18.0220  -42.2671 C.2       6 UNK         0.5000 
     41 O           1.3588  -19.0814  -42.5242 O.2       6 UNK        -0.5000 
     42 CA          1.3435  -17.1054  -41.1758 C.3       6 UNK         0.1400 
     43 CB          2.0515  -17.3481  -39.8346 C.3       6 UNK        -0.1800 
     44 N           1.3955  -15.6774  -41.5018 N.am      6 UNK        -0.5000 
     45 C           0.8392  -15.1123  -42.5812 C.2       5 UNK         0.5000 
     46 O           0.2843  -15.7489  -43.4802 O.2       5 UNK        -0.5000 
     47 CA          0.9859  -13.5839  -42.6935 C.3       5 UNK         0.1400 
     48 CB          2.3740  -13.2251  -43.2426 C.3       5 UNK        -0.1800 
     49 N          -0.0220  -12.9881  -43.5682 N.am      5 UNK        -0.5000 
     50 C          -1.3378  -12.9339  -43.3197 C.2       4 UNK         0.5000 
     51 O          -1.8522  -13.3486  -42.2798 O.2       4 UNK        -0.5000 
     52 CA         -2.2280  -12.2851  -44.3980 C.3       4 UNK         0.1400 
     53 CB         -2.9147  -11.0247  -43.8465 C.3       4 UNK        -0.1800 
     54 N          -1.4644  -11.9069  -45.5886 N.am      4 UNK        -0.5000 
     55 C          -1.4347  -12.5732  -46.7455 C.2       3 UNK         0.5000 
     56 O          -2.0832  -13.5979  -46.9616 O.2       3 UNK        -0.5000 
     57 CA         -0.5344  -11.9972  -47.8568 C.3       3 UNK         0.1400 
     58 CB         -1.2228  -10.8146  -48.5635 C.3       3 UNK        -0.1800 
     59 N           0.8385  -11.6521  -47.4601 N.am      3 UNK        -0.5000 
     60 C           1.2776  -10.7072  -46.6196 C.2       2 UNK         0.5000 
     61 O           0.5342  -10.0137  -45.9230 O.2       2 UNK        -0.5000 
     62 CA          2.8091  -10.5193  -46.5461 C.3       2 UNK         0.1400 
     63 CB          3.2213   -9.4145  -45.5563 C.3       2 UNK        -0.1800 
     64 N           3.5258  -11.7448  -46.1888 N.am      2 UNK        -0.5000 
     65 C           3.7848  -12.7871  -46.9920 C.2       1 UNK         0.5000 
     66 O           3.3601  -12.8668  -48.1456 O.2       1 UNK        -0.5000 
     67 C          -0.3600  -22.1886  -48.7896 C.2       11 UNK         0.5000 
     68 O          -0.5546  -23.0626  -49.6348 O.2       11 UNK        -0.5000 
     69 N          -1.3015  -21.3114  -48.4090 N.am      12 UNK        -0.5000 
     70 CA         -2.6940  -21.3564  -48.8563 C.3       12 UNK         0.1400 
     71 CB         -3.4316  -20.0837  -48.4095 C.3       12 UNK        -0.1800 
     72 C          -3.4235  -22.6172  -48.3573 C.2       12 UNK         0.5000 
     73 O          -4.0564  -23.3105  -49.1534 O.2       12 UNK        -0.5000 
     74 N          -3.2906  -22.9180  -47.0570 N.am      13 UNK        -0.5000 
     75 CA         -3.8690  -24.0970  -46.4071 C.3       13 UNK         0.1400 
     76 CB         -3.6486  -24.0082  -44.8901 C.3       13 UNK        -0.1800 
     77 C          -3.3261  -25.4298  -46.9558 C.2       13 UNK         0.5000 
     78 O          -4.0799  -26.3998  -47.0407 O.2       13 UNK        -0.5000 
     79 N          -2.0499  -25.4462  -47.3665 N.am      14 UNK        -0.5000 
     80 CA         -1.3669  -26.5892  -47.9804 C.3       14 UNK         0.1400 
     81 CB          0.1262  -26.2652  -48.1431 C.3       14 UNK        -0.1800 
     82 C          -1.9732  -27.0558  -49.3215 C.2       14 UNK         0.5000 
     83 O          -1.7168  -28.1898  -49.7281 O.2       14 UNK        -0.5000 
     84 N          -2.7903  -26.2103  -49.9690 N.am      15 UNK        -0.5000 
     85 CA         -3.5836  -26.5671  -51.1484 C.3       15 UNK         0.1400 
     86 CB         -4.0405  -25.2822  -51.8588 C.3       15 UNK        -0.1800 
     87 C          -4.7988  -27.4624  -50.8199 C.2       15 UNK         0.5000 
     88 O          -5.4272  -27.9732  -51.7477 O.2       15 UNK        -0.5000 
     89 N          -5.1328  -27.6132  -49.5269 N.am      16 UNK        -0.5000 
     90 CA         -6.2182  -28.4012  -48.9243 C.3       16 UNK         0.1400 
     91 CB         -6.1167  -29.8930  -49.2949 C.3       16 UNK        -0.1800 
     92 C          -7.6257  -27.8427  -49.2031 C.2       16 UNK         0.5000 
     93 O          -8.4090  -27.6719  -48.2687 O.2       16 UNK        -0.5000 
     94 N          -7.9090  -27.5307  -50.4723 N.am      17 UNK        -0.5000 
     95 CA         -9.1281  -26.8624  -50.9302 C.3       17 UNK         0.1400 
     96 CB         -9.3039  -27.1451  -52.4308 C.3       17 UNK        -0.1800 
     97 C          -9.1088  -25.3417  -50.6718 C.2       17 UNK         0.5000 
     98 O         -10.1550  -24.7016  -50.7785 O.2       17 UNK        -0.5000 
     99 N          -7.9199  -24.7941  -50.3686 N.am      18 UNK        -0.5000 
    100 CA        -7.6145  -23.3742  -50.1494 C.3       18 UNK         0.1400 
    101 CB        -8.3313  -22.8385  -48.8931 C.3       18 UNK        -0.1800 
    102 C         -7.8453  -22.4994  -51.4013 C.2       18 UNK         0.5000 
    103 O         -8.1224  -21.3053  -51.2809 O.2       18 UNK        -0.5000 
    104 N         -7.7123  -23.1120  -52.5877 N.am      19 UNK        -0.5000 
    105 CA        -7.8594  -22.4637  -53.8931 C.3       19 UNK         0.1400 
    106 CB        -7.9766  -23.5478  -54.9753 C.3       19 UNK        -0.1800 
    107 C         -6.7045  -21.4966  -54.2160 C.2       19 UNK         0.5000 
    108 O         -6.9013  -20.5381  -54.9643 O.2       19 UNK        -0.5000 
    109 N         -5.5272  -21.7557  -53.6323 N.am      20 UNK        -0.5000 
    110 CA        -4.3624  -20.8794  -53.6597 C.3       20 UNK         0.1400 
    111 CB        -3.1078  -21.7160  -53.3510 C.3       20 UNK        -0.1800 
    112 C         -4.5624  -19.7422  -52.6436 C.2       20 UNK         0.5000 
    113 O         -4.1662  -19.8768  -51.4862 O.2       20 UNK        -0.5000 
    114 N         -5.2072  -18.6520  -53.0751 N.am      21 UNK        -0.5000 
    115 CA        -5.5133  -17.4682  -52.2660 C.3       21 UNK         0.1400 
    116 CB        -6.6689  -16.7024  -52.9349 C.3       21 UNK        -0.1800 
    117 C         -4.2666  -16.5855  -52.0303 C.2       21 UNK         0.5000 
    118 O         -4.2410  -15.4200  -52.4305 O.2       21 UNK        -0.5000 
    119 N         -3.2374  -17.1800  -51.4198 N.am      22 UNK        -0.5000 
    120 CA        -1.9181  -16.5772  -51.1885 C.3       22 UNK         0.1400 
    121 C         -1.8665  -15.4964  -50.0774 C.2       22 UNK         0.5000 
    122 N         -2.8026  -15.4466  -49.1383 N.am      22 UNK        -0.7600 
    123 O         -0.9463  -14.6868  -50.0772 O.2       22 UNK        -0.5000 
    124 C124       -0.8424  -17.6590  -50.9299 C.3       23 UNK        -0.0398 
    125 S125       -0.5147  -18.6573  -52.4203 S.3       23 UNK        -0.2404 
    126 C126        1.0078  -17.8679  -53.0427 C.3       23 UNK        -0.0205 
    127 H127        7.3441  -11.2079  -44.0261 H         1 UNK         0.0600 
    128 H128        6.9348  -12.7649  -43.3009 H         1 UNK         0.0600 
    129 H129        8.3960  -12.6047  -44.2790 H         1 UNK         0.0600 
    130 H130        5.3117  -13.8073  -44.3850 H         1 UNK         0.3000 
    131 H131        3.9366  -14.5794  -45.8858 H         1 UNK         0.0600 
    132 H132        6.3219  -15.1777  -47.0296 H         1 UNK         0.0800 
    133 H133        5.7175  -14.1667  -48.3029 H         1 UNK         0.0800 
    134 H134        3.9526  -15.0769  -50.0648 H         1 UNK         0.0800 
    135 H135        5.4893  -15.9151  -50.1504 H         1 UNK         0.0800 
    136 H136        2.3820  -15.9900  -51.5927 H         1 UNK         0.1150 
    137 H137        2.2196  -20.1982  -52.3828 H         1 UNK         0.1150 
    138 H138        5.0853  -18.6510  -49.5968 H         1 UNK         0.1150 
    139 H139        4.6901  -21.3926  -51.5230 H         1 UNK         0.0800 
    140 H140        4.8981  -20.9957  -49.8327 H         1 UNK         0.0800 
    141 H141        1.5737  -20.3010  -49.1512 H         1 UNK         0.0800 
    142 H142        2.8349  -20.9438  -48.1324 H         1 UNK         0.0800 
    143 H143        1.4025  -23.1426  -48.0663 H         1 UNK         0.0600 
    144 H144        1.2481  -20.8604  -46.3707 H         1 UNK         0.3000 
    145 H145       -0.5724  -22.5985  -43.7817 H         1 UNK         0.0600 
    146 H146        1.3902  -21.8282  -42.5140 H         1 UNK         0.0600 
    147 H147        1.8711  -23.1355  -43.5831 H         1 UNK         0.0600 
    148 H148        2.2680  -21.4724  -44.0008 H         1 UNK         0.0600 
    149 H149        0.3315  -19.9200  -43.8836 H         1 UNK         0.3000 
    150 H150       -2.6338  -18.5077  -45.3799 H         1 UNK         0.0600 
    151 H151       -3.0556  -18.7498  -42.9376 H         1 UNK         0.0600 
    152 H152       -2.4298  -17.1485  -43.3069 H         1 UNK         0.0600 
    153 H153       -1.3750  -18.3635  -42.5892 H         1 UNK         0.0600 
    154 H154       -0.2470  -17.2464  -44.5418 H         1 UNK         0.3000 
    155 H155        1.5979  -17.5377  -47.5921 H         1 UNK         0.0600 
    156 H156        0.3257  -15.2021  -46.0588 H         1 UNK         0.0600 
    157 H157        0.0568  -15.5731  -47.7515 H         1 UNK         0.0600 
    158 H158        1.6548  -15.0962  -47.2126 H         1 UNK         0.0600 
    159 H159        2.1105  -16.4705  -44.9494 H         1 UNK         0.3000 
    160 H160        3.8502  -19.3176  -43.7103 H         1 UNK         0.0600 
    161 H161        5.4833  -18.1306  -45.1964 H         1 UNK         0.0600 
    162 H162        5.6700  -17.6543  -43.5158 H         1 UNK         0.0600 
    163 H163        4.8600  -16.5792  -44.6548 H         1 UNK         0.0600 
    164 H164        3.4211  -16.7045  -42.6377 H         1 UNK         0.3000 
    165 H165        0.2917  -17.3720  -41.0552 H         1 UNK         0.0600 
    166 H166        1.5782  -16.7845  -39.0304 H         1 UNK         0.0600 
    167 H167        2.0113  -18.4024  -39.5570 H         1 UNK         0.0600 
    168 H168        3.1024  -17.0591  -39.8750 H         1 UNK         0.0600 
    169 H169        1.8494  -15.0840  -40.8223 H         1 UNK         0.3000 
    170 H170        0.8731  -13.1491  -41.6982 H         1 UNK         0.0600 
    171 H171        2.5197  -13.6437  -44.2372 H         1 UNK         0.0600 
    172 H172        2.5053  -12.1446  -43.3059 H         1 UNK         0.0600 
    173 H173        3.1671  -13.6102  -42.6005 H         1 UNK         0.0600 
    174 H174        0.2954  -12.6484  -44.4621 H         1 UNK         0.3000 
    175 H175       -3.0014  -13.0101  -44.6593 H         1 UNK         0.0600 
    176 H176       -2.1869  -10.2693  -43.5472 H         1 UNK         0.0600 
    177 H177       -3.5735  -10.5784  -44.5916 H         1 UNK         0.0600 
    178 H178       -3.5254  -11.2586  -42.9736 H         1 UNK         0.0600 
    179 H179       -0.8854  -11.0716  -45.5196 H         1 UNK         0.3000 
    180 H180       -0.4138  -12.7860  -48.5949 H         1 UNK         0.0600 
    181 H181       -1.3707   -9.9675  -47.8931 H         1 UNK         0.0600 
    182 H182       -2.2034  -11.1064  -48.9415 H         1 UNK         0.0600 
    183 H183       -0.6366  -10.4704  -49.4155 H         1 UNK         0.0600 
    184 H184        1.5626  -12.1869  -47.9333 H         1 UNK         0.3000 
    185 H185        3.1367  -10.2084  -47.5403 H         1 UNK         0.0600 
    186 H186        2.7537   -8.4630  -45.8130 H         1 UNK         0.0600 
    187 H187        2.9299   -9.6595  -44.5342 H         1 UNK         0.0600 
    188 H188        4.2999   -9.2561  -45.5691 H         1 UNK         0.0600 
    189 H189        3.9161  -11.7674  -45.2587 H         1 UNK         0.3000 
    190 H190       -1.0563  -20.5719  -47.7575 H         1 UNK         0.3000 
    191 H191       -2.6901  -21.3859  -49.9470 H         1 UNK         0.0600 
    192 H192       -3.4366  -19.9717  -47.3264 H         1 UNK         0.0600 
    193 H193       -4.4706  -20.1012  -48.7408 H         1 UNK         0.0600 
    194 H194       -2.9728  -19.1917  -48.8342 H         1 UNK         0.0600 
    195 H195       -2.7858  -22.2730  -46.4539 H         1 UNK         0.3000 
    196 H196       -4.9445  -24.0810  -46.5953 H         1 UNK         0.0600 
    197 H197       -2.5879  -23.9841  -44.6390 H         1 UNK         0.0600 
    198 H198       -4.0888  -24.8655  -44.3793 H         1 UNK         0.0600 
    199 H199       -4.1105  -23.1114  -44.4767 H         1 UNK         0.0600 
    200 H200       -1.4822  -24.6230  -47.1924 H         1 UNK         0.3000 
    201 H201       -1.4541  -27.4269  -47.2858 H         1 UNK         0.0600 
    202 H202        0.5843  -26.0158  -47.1860 H         1 UNK         0.0600 
    203 H203        0.2849  -25.4273  -48.8211 H         1 UNK         0.0600 
    204 H204        0.6701  -27.1196  -48.5478 H         1 UNK         0.0600 
    205 H205       -2.9474  -25.2886  -49.5791 H         1 UNK         0.3000 
    206 H206       -2.9452  -27.1241  -51.8372 H         1 UNK         0.0600 
    207 H207       -3.1922  -24.6373  -52.0878 H         1 UNK         0.0600 
    208 H208       -4.5366  -25.5125  -52.8025 H         1 UNK         0.0600 
    209 H209       -4.7433  -24.7122  -51.2519 H         1 UNK         0.0600 
    210 H210       -4.5717  -27.1149  -48.8426 H         1 UNK         0.3000 
    211 H211       -6.0631  -28.3267  -47.8467 H         1 UNK         0.0600 
    212 H212       -6.2890  -30.0664  -50.3573 H         1 UNK         0.0600 
    213 H213       -6.8562  -30.4787  -48.7476 H         1 UNK         0.0600 
    214 H214       -5.1344  -30.2939  -49.0446 H         1 UNK         0.0600 
    215 H215       -7.1905  -27.7180  -51.1678 H         1 UNK         0.3000 
    216 H216       -9.9846  -27.2796  -50.3966 H         1 UNK         0.0600 
    217 H217      -10.2161  -26.6851  -52.8131 H         1 UNK         0.0600 
    218 H218       -9.3764  -28.2157  -52.6236 H         1 UNK         0.0600 
    219 H219       -8.4692  -26.7553  -53.0151 H         1 UNK         0.0600 
    220 H220       -7.1353  -25.4244  -50.2945 H         1 UNK         0.3000 
    221 H221       -6.5440  -23.3253  -49.9530 H         1 UNK         0.0600 
    222 H222       -9.4110  -22.7826  -49.0339 H         1 UNK         0.0600 
    223 H223       -8.1368  -23.4733  -48.0287 H         1 UNK         0.0600 
    224 H224       -7.9824  -21.8362  -48.6421 H         1 UNK         0.0600 
    225 H225       -7.5036  -24.0989  -52.5943 H         1 UNK         0.3000 
    226 H226       -8.7848  -21.8839  -53.8854 H         1 UNK         0.0600 
    227 H227       -8.8312  -24.1991  -54.7905 H         1 UNK         0.0600 
    228 H228       -8.1165  -23.1017  -55.9609 H         1 UNK         0.0600 
    229 H229       -7.0824  -24.1709  -55.0208 H         1 UNK         0.0600 
    230 H230       -5.4732  -22.5478  -53.0107 H         1 UNK         0.3000 
    231 H231       -4.2480  -20.4482  -54.6564 H         1 UNK         0.0600 
    232 H232       -2.2127  -21.0934  -53.3649 H         1 UNK         0.0600 
    233 H233       -2.9671  -22.5041  -54.0908 H         1 UNK         0.0600 
    234 H234       -3.1627  -22.1861  -52.3683 H         1 UNK         0.0600 
    235 H235       -5.5315  -18.6352  -54.0322 H         1 UNK         0.3000 
    236 H236       -5.8623  -17.7989  -51.2853 H         1 UNK         0.0600 
    237 H237       -6.9561  -15.8318  -52.3438 H         1 UNK         0.0600 
    238 H238       -6.3965  -16.3504  -53.9306 H         1 UNK         0.0600 
    239 H239       -7.5534  -17.3324  -53.0326 H         1 UNK         0.0600 
    240 H240       -3.3405  -18.1608  -51.1766 H         1 UNK         0.3000 
    241 H241       -1.6410  -16.0555  -52.1071 H         1 UNK         0.0600 
    242 H242       -3.5672  -16.1008  -49.1309 H         1 UNK         0.3800 
    243 H243       -2.7115  -14.7580  -48.3975 H         1 UNK         0.3800 
    244 H244        0.0905  -17.2118  -50.5854 H         1 UNK         0.0800 
    245 H245       -1.1555  -18.3278  -50.1271 H         1 UNK         0.0800 
    246 H246        1.2565  -18.2956  -54.0148 H         1 UNK         0.0800 
    247 H247        0.8207  -16.8062  -53.2113 H         1 UNK         0.0800 
@<TRIPOS>BOND
     1    1    2 1    
     2    1  127 1    
     3    1  128 1    
     4    1  129 1    
     5    2    3 2    
     6    2    4 am   BACKBONE|DICT|INTERRES
     7    4    5 1    
     8    4  130 1    
     9    5    6 1    
    10    5   65 1    
    11    5  131 1    
    12    6    7 1    
    13    6  132 1    
    14    6  133 1    
    15    7    8 1    
    16    8    9 1    
    17    8  134 1    
    18    8  135 1    
    19    9   10 ar   
    20    9   14 ar   
    21   10   11 ar   
    22   10  136 1    
    23   11   12 ar   
    24   11  126 1    
    25   12   13 ar   
    26   12  137 1    
    27   13   14 ar   
    28   13   15 1    
    29   14  138 1    
    30   15   16 1    
    31   15  139 1    
    32   15  140 1    
    33   16   17 1    
    34   17   18 1    
    35   17  141 1    
    36   17  142 1    
    37   18   19 1    
    38   18   67 1    
    39   18  143 1    
    40   19   20 am   BACKBONE|DICT|INTERRES
    41   19  144 1    
    42   20   21 2    
    43   20   22 1    
    44   22   23 1    
    45   22   24 1    
    46   22  145 1    
    47   23  146 1    
    48   23  147 1    
    49   23  148 1    
    50   24   25 am   BACKBONE|DICT|INTERRES
    51   24  149 1    
    52   25   26 2    
    53   25   27 1    
    54   27   28 1    
    55   27   29 1    
    56   27  150 1    
    57   28  151 1    
    58   28  152 1    
    59   28  153 1    
    60   29   30 am   BACKBONE|DICT|INTERRES
    61   29  154 1    
    62   30   31 2    
    63   30   32 1    
    64   32   33 1    
    65   32   34 1    
    66   32  155 1    
    67   33  156 1    
    68   33  157 1    
    69   33  158 1    
    70   34   35 am   BACKBONE|DICT|INTERRES
    71   34  159 1    
    72   35   36 2    
    73   35   37 1    
    74   37   38 1    
    75   37   39 1    
    76   37  160 1    
    77   38  161 1    
    78   38  162 1    
    79   38  163 1    
    80   39   40 am   BACKBONE|DICT|INTERRES
    81   39  164 1    
    82   40   41 2    
    83   40   42 1    
    84   42   43 1    
    85   42   44 1    
    86   42  165 1    
    87   43  166 1    
    88   43  167 1    
    89   43  168 1    
    90   44   45 am   BACKBONE|DICT|INTERRES
    91   44  169 1    
    92   45   46 2    
    93   45   47 1    
    94   47   48 1    
    95   47   49 1    
    96   47  170 1    
    97   48  171 1    
    98   48  172 1    
    99   48  173 1    
   100   49   50 am   BACKBONE|DICT|INTERRES
   101   49  174 1    
   102   50   51 2    
   103   50   52 1    
   104   52   53 1    
   105   52   54 1    
   106   52  175 1    
   107   53  176 1    
   108   53  177 1    
   109   53  178 1    
   110   54   55 am   BACKBONE|DICT|INTERRES
   111   54  179 1    
   112   55   56 2    
   113   55   57 1    
   114   57   58 1    
   115   57   59 1    
   116   57  180 1    
   117   58  181 1    
   118   58  182 1    
   119   58  183 1    
   120   59   60 am   BACKBONE|DICT|INTERRES
   121   59  184 1    
   122   60   61 2    
   123   60   62 1    
   124   62   63 1    
   125   62   64 1    
   126   62  185 1    
   127   63  186 1    
   128   63  187 1    
   129   63  188 1    
   130   64   65 am   BACKBONE|DICT|INTERRES
   131   64  189 1    
   132   65   66 2    
   133   67   68 2    
   134   67   69 am   BACKBONE|DICT|INTERRES
   135   69   70 1    
   136   69  190 1    
   137   70   71 1    
   138   70   72 1    
   139   70  191 1    
   140   71  192 1    
   141   71  193 1    
   142   71  194 1    
   143   72   73 2    
   144   72   74 am   BACKBONE|DICT|INTERRES
   145   74   75 1    
   146   74  195 1    
   147   75   76 1    
   148   75   77 1    
   149   75  196 1    
   150   76  197 1    
   151   76  198 1    
   152   76  199 1    
   153   77   78 2    
   154   77   79 am   BACKBONE|DICT|INTERRES
   155   79   80 1    
   156   79  200 1    
   157   80   81 1    
   158   80   82 1    
   159   80  201 1    
   160   81  202 1    
   161   81  203 1    
   162   81  204 1    
   163   82   83 2    
   164   82   84 am   BACKBONE|DICT|INTERRES
   165   84   85 1    
   166   84  205 1    
   167   85   86 1    
   168   85   87 1    
   169   85  206 1    
   170   86  207 1    
   171   86  208 1    
   172   86  209 1    
   173   87   88 2    
   174   87   89 am   BACKBONE|DICT|INTERRES
   175   89   90 1    
   176   89  210 1    
   177   90   91 1    
   178   90   92 1    
   179   90  211 1    
   180   91  212 1    
   181   91  213 1    
   182   91  214 1    
   183   92   93 2    
   184   92   94 am   BACKBONE|DICT|INTERRES
   185   94   95 1    
   186   94  215 1    
   187   95   96 1    
   188   95   97 1    
   189   95  216 1    
   190   96  217 1    
   191   96  218 1    
   192   96  219 1    
   193   97   98 2    
   194   97   99 am   BACKBONE|DICT|INTERRES
   195   99  100 1    
   196   99  220 1    
   197  100  101 1    
   198  100  102 1    
   199  100  221 1    
   200  101  222 1    
   201  101  223 1    
   202  101  224 1    
   203  102  103 2    
   204  102  104 am   BACKBONE|DICT|INTERRES
   205  104  105 1    
   206  104  225 1    
   207  105  106 1    
   208  105  107 1    
   209  105  226 1    
   210  106  227 1    
   211  106  228 1    
   212  106  229 1    
   213  107  108 2    
   214  107  109 am   BACKBONE|DICT|INTERRES
   215  109  110 1    
   216  109  230 1    
   217  110  111 1    
   218  110  112 1    
   219  110  231 1    
   220  111  232 1    
   221  111  233 1    
   222  111  234 1    
   223  112  113 2    
   224  112  114 am   BACKBONE|DICT|INTERRES
   225  114  115 1    
   226  114  235 1    
   227  115  116 1    
   228  115  117 1    
   229  115  236 1    
   230  116  237 1    
   231  116  238 1    
   232  116  239 1    
   233  117  118 2    
   234  117  119 am   BACKBONE|DICT|INTERRES
   235  119  120 1    
   236  119  240 1    
   237  120  121 1    
   238  120  124 1    
   239  120  241 1    
   240  121  122 am   BACKBONE|DICT|INTERRES
   241  121  123 2    
   242  122  242 1    
   243  122  243 1    
   244  124  125 1    
   245  124  244 1    
   246  124  245 1    
   247  125  126 1    
   248  126  246 1    
   249  126  247 1    
@<TRIPOS>SUBSTRUCTURE
     1 UNK         1 GROUP             0       ****    0 ROOT    
