@<TRIPOS>MOLECULE
3R540
247   249    1
SMALL
USER_CHARGES


@<TRIPOS>ATOM
      1 CA          0.3619  -11.0100  -48.3216 C.3       0 UNK        -0.1800 
      2 C          -0.6791  -11.6974  -47.4402 C.2       0 UNK         0.5000 
      3 O          -1.5371  -11.0193  -46.8794 O.2       0 UNK        -0.5000 
      4 N          -0.6556  -13.0293  -47.2884 N.am      1 UNK        -0.5000 
      5 CA          0.3060  -13.9745  -47.8758 C.3       1 UNK         0.1400 
      6 C6         -0.2850  -15.4042  -47.9637 C.3       23 UNK        -0.0398 
      7 S7         -1.5960  -15.5371  -49.2291 S.3       23 UNK        -0.2404 
      8 C8         -0.6563  -15.6143  -50.7935 C.3       23 UNK        -0.0205 
      9 C9          0.2598  -16.8274  -50.8908 C.ar      23 UNK        -0.0193 
     10 C10        -0.1915  -18.0200  -51.4653 C.ar      23 UNK        -0.1150 
     11 C11         0.6695  -19.1155  -51.5892 C.ar      23 UNK        -0.0193 
     12 C12         1.9803  -19.0185  -51.1131 C.ar      23 UNK        -0.1150 
     13 C13         2.4340  -17.8434  -50.5071 C.ar      23 UNK        -0.0193 
     14 C14         1.5769  -16.7444  -50.4308 C.ar      23 UNK        -0.1150 
     15 C15         3.8497  -17.7313  -49.9516 C.3       23 UNK        -0.0205 
     16 S16         4.3678  -19.1581  -48.9380 S.3       23 UNK        -0.2404 
     17 C17         3.1893  -19.1318  -47.5413 C.3       23 UNK        -0.0398 
     18 CA          2.5901  -20.5390  -47.2802 C.3       11 UNK         0.1400 
     19 N           2.2748  -20.7701  -45.8682 N.am      11 UNK        -0.5000 
     20 C           2.0763  -21.9852  -45.3340 C.2       10 UNK         0.5000 
     21 O           2.1874  -23.0373  -45.9642 O.2       10 UNK        -0.5000 
     22 CA          1.6750  -22.0413  -43.8498 C.3       10 UNK         0.1400 
     23 CB          2.9077  -21.9041  -42.9435 C.3       10 UNK        -0.1800 
     24 N           0.6803  -21.0267  -43.5031 N.am      10 UNK        -0.5000 
     25 C          -0.5890  -21.0442  -43.9354 C.2       9 UNK         0.5000 
     26 O          -1.0668  -21.9585  -44.6064 O.2       9 UNK        -0.5000 
     27 CA         -1.4766  -19.8415  -43.5653 C.3       9 UNK         0.1400 
     28 CB         -2.1671  -20.0799  -42.2143 C.3       9 UNK        -0.1800 
     29 N          -0.7488  -18.5732  -43.5165 N.am      9 UNK        -0.5000 
     30 C          -0.1780  -17.9772  -44.5728 C.2       8 UNK         0.5000 
     31 O          -0.2026  -18.4249  -45.7177 O.2       8 UNK        -0.5000 
     32 CA          0.6166  -16.6945  -44.2880 C.3       8 UNK         0.1400 
     33 CB         -0.3174  -15.5111  -43.9876 C.3       8 UNK        -0.1800 
     34 N           1.5518  -16.8738  -43.1814 N.am      8 UNK        -0.5000 
     35 C           2.5730  -17.7417  -43.1698 C.2       7 UNK         0.5000 
     36 O           2.8558  -18.4832  -44.1110 O.2       7 UNK        -0.5000 
     37 CA          3.3862  -17.8203  -41.8670 C.3       7 UNK         0.1400 
     38 CB          4.4568  -16.7197  -41.8188 C.3       7 UNK        -0.1800 
     39 N           2.5324  -17.7258  -40.6827 N.am      7 UNK        -0.5000 
     40 C           1.6572  -18.6682  -40.3046 C.2       6 UNK         0.5000 
     41 O           1.5004  -19.7356  -40.8959 O.2       6 UNK        -0.5000 
     42 CA          0.7772  -18.3368  -39.0869 C.3       6 UNK         0.1400 
     43 CB          1.5506  -18.5560  -37.7779 C.3       6 UNK        -0.1800 
     44 N           0.2657  -16.9662  -39.1286 N.am      6 UNK        -0.5000 
     45 C          -0.6044  -16.5140  -40.0423 C.2       5 UNK         0.5000 
     46 O          -1.0875  -17.2135  -40.9325 O.2       5 UNK        -0.5000 
     47 CA         -0.9649  -15.0188  -39.9726 C.3       5 UNK         0.1400 
     48 CB         -2.1274  -14.7910  -38.9950 C.3       5 UNK        -0.1800 
     49 N           0.1603  -14.1558  -39.5994 N.am      5 UNK        -0.5000 
     50 C           1.2882  -14.0207  -40.3085 C.2       4 UNK         0.5000 
     51 O           1.5463  -14.6727  -41.3229 O.2       4 UNK        -0.5000 
     52 CA          2.3176  -13.0171  -39.7779 C.3       4 UNK         0.1400 
     53 CB          3.3833  -13.7384  -38.9376 C.3       4 UNK        -0.1800 
     54 N           2.9623  -12.3682  -40.9156 N.am      4 UNK        -0.5000 
     55 C           3.0497  -11.0469  -41.1105 C.2       3 UNK         0.5000 
     56 O           2.6462  -10.2099  -40.3016 O.2       3 UNK        -0.5000 
     57 CA          3.7030  -10.5645  -42.4232 C.3       3 UNK         0.1400 
     58 CB          5.1294  -10.0585  -42.1552 C.3       3 UNK        -0.1800 
     59 N           3.7571  -11.5843  -43.4751 N.am      3 UNK        -0.5000 
     60 C           2.7029  -12.0119  -44.1807 C.2       2 UNK         0.5000 
     61 O           1.5539  -11.5887  -44.0254 O.2       2 UNK        -0.5000 
     62 CA          2.9851  -13.1062  -45.2220 C.3       2 UNK         0.1400 
     63 CB          3.4957  -14.3917  -44.5462 C.3       2 UNK        -0.1800 
     64 N           1.7582  -13.3615  -45.9716 N.am      2 UNK        -0.5000 
     65 C           1.6752  -13.9748  -47.1579 C.2       1 UNK         0.5000 
     66 O           2.6377  -14.5021  -47.7150 O.2       1 UNK        -0.5000 
     67 C           1.3712  -20.8426  -48.1739 C.2       11 UNK         0.5000 
     68 O           1.4753  -21.6490  -49.1001 O.2       11 UNK        -0.5000 
     69 N           0.2160  -20.2516  -47.8413 N.am      12 UNK        -0.5000 
     70 CA         -1.0613  -20.4717  -48.5154 C.3       12 UNK         0.1400 
     71 CB         -1.9254  -19.2077  -48.3872 C.3       12 UNK        -0.1800 
     72 C          -1.7678  -21.7264  -47.9753 C.2       12 UNK         0.5000 
     73 O          -2.9090  -21.6410  -47.5166 O.2       12 UNK        -0.5000 
     74 N          -1.0800  -22.8728  -48.0550 N.am      13 UNK        -0.5000 
     75 CA         -1.5319  -24.1836  -47.5880 C.3       13 UNK         0.1400 
     76 CB         -0.4693  -25.2340  -47.9412 C.3       13 UNK        -0.1800 
     77 C          -2.9024  -24.5769  -48.1703 C.2       13 UNK         0.5000 
     78 O          -3.0950  -24.4942  -49.3866 O.2       13 UNK        -0.5000 
     79 N          -3.8333  -24.9510  -47.2810 N.am      14 UNK        -0.5000 
     80 CA         -5.2380  -25.2720  -47.5631 C.3       14 UNK         0.1400 
     81 CB         -5.3421  -26.6023  -48.3384 C.3       14 UNK        -0.1800 
     82 C          -5.9929  -24.1131  -48.2522 C.2       14 UNK         0.5000 
     83 O          -6.7819  -24.3527  -49.1656 O.2       14 UNK        -0.5000 
     84 N          -5.7032  -22.8730  -47.8269 N.am      15 UNK        -0.5000 
     85 CA         -6.1859  -21.6091  -48.3983 C.3       15 UNK         0.1400 
     86 CB         -7.7074  -21.4517  -48.1922 C.3       15 UNK        -0.1800 
     87 C          -5.7532  -21.4466  -49.8699 C.2       15 UNK         0.5000 
     88 O          -6.5791  -21.1532  -50.7344 O.2       15 UNK        -0.5000 
     89 N          -4.4606  -21.6960  -50.1221 N.am      16 UNK        -0.5000 
     90 CA         -3.8019  -21.7412  -51.4328 C.3       16 UNK         0.1400 
     91 CB         -3.7336  -20.3338  -52.0618 C.3       16 UNK        -0.1800 
     92 C          -4.4421  -22.7916  -52.3643 C.2       16 UNK         0.5000 
     93 O          -4.7795  -22.4841  -53.5111 O.2       16 UNK        -0.5000 
     94 N          -4.6126  -24.0070  -51.8232 N.am      17 UNK        -0.5000 
     95 CA         -5.2758  -25.1661  -52.4298 C.3       17 UNK         0.1400 
     96 CB         -4.4392  -25.7083  -53.6066 C.3       17 UNK        -0.1800 
     97 C          -6.7439  -24.8764  -52.8119 C.2       17 UNK         0.5000 
     98 O          -7.1745  -25.2143  -53.9140 O.2       17 UNK        -0.5000 
     99 N          -7.4767  -24.2380  -51.8884 N.am      18 UNK        -0.5000 
    100 CA        -8.8398  -23.7187  -52.0332 C.3       18 UNK         0.1400 
    101 CB        -9.8568  -24.8695  -52.1824 C.3       18 UNK        -0.1800 
    102 C         -8.9404  -22.6581  -53.1502 C.2       18 UNK         0.5000 
    103 O         -9.8186  -22.7398  -54.0115 O.2       18 UNK        -0.5000 
    104 N         -8.0199  -21.6840  -53.1011 N.am      19 UNK        -0.5000 
    105 CA        -7.8434  -20.5621  -54.0263 C.3       19 UNK         0.1400 
    106 CB        -9.0038  -19.5564  -53.8787 C.3       19 UNK        -0.1800 
    107 C         -7.6077  -21.0105  -55.4842 C.2       19 UNK         0.5000 
    108 O         -8.2066  -20.4559  -56.4080 O.2       19 UNK        -0.5000 
    109 N         -6.7301  -22.0051  -55.6636 N.am      20 UNK        -0.5000 
    110 CA        -6.3824  -22.6002  -56.9550 C.3       20 UNK         0.1400 
    111 CB        -6.6725  -24.1099  -56.9150 C.3       20 UNK        -0.1800 
    112 C         -4.9184  -22.2921  -57.3120 C.2       20 UNK         0.5000 
    113 O         -4.1951  -23.1773  -57.7736 O.2       20 UNK        -0.5000 
    114 N         -4.5001  -21.0394  -57.0721 N.am      21 UNK        -0.5000 
    115 CA        -3.1771  -20.4753  -57.3747 C.3       21 UNK         0.1400 
    116 CB        -3.0194  -20.2811  -58.8973 C.3       21 UNK        -0.1800 
    117 C         -2.0136  -21.2749  -56.7485 C.2       21 UNK         0.5000 
    118 O         -0.9826  -21.4782  -57.3923 O.2       21 UNK        -0.5000 
    119 N         -2.2276  -21.7318  -55.5075 N.am      22 UNK        -0.5000 
    120 CA        -1.3287  -22.5944  -54.7206 C.3       22 UNK         0.1400 
    121 C         -1.3083  -24.0879  -55.1701 C.2       22 UNK         0.5000 
    122 N         -2.1169  -24.5196  -56.1312 N.am      22 UNK        -0.7600 
    123 O         -0.5593  -24.8855  -54.6132 O.2       22 UNK        -0.5000 
    124 C124        0.1134  -22.0332  -54.5383 C.3       23 UNK        -0.0398 
    125 S125        0.1970  -20.2770  -54.0415 S.3       23 UNK        -0.2404 
    126 C126        0.1918  -20.4083  -52.2310 C.3       23 UNK        -0.0205 
    127 H127        1.3696  -11.1703  -47.9398 H         1 UNK         0.0600 
    128 H128        0.1873   -9.9342  -48.3476 H         1 UNK         0.0600 
    129 H129        0.3081  -11.3768  -49.3464 H         1 UNK         0.0600 
    130 H130       -1.3766  -13.4514  -46.7217 H         1 UNK         0.3000 
    131 H131        0.5207  -13.6506  -48.8945 H         1 UNK         0.0600 
    132 H132        0.4769  -16.1584  -48.1531 H         1 UNK         0.0800 
    133 H133       -0.7223  -15.6949  -47.0102 H         1 UNK         0.0800 
    134 H134       -1.3676  -15.6297  -51.6205 H         1 UNK         0.0800 
    135 H135       -0.0784  -14.6982  -50.9202 H         1 UNK         0.0800 
    136 H136       -1.2062  -18.0911  -51.8311 H         1 UNK         0.1150 
    137 H137        2.6443  -19.8671  -51.1988 H         1 UNK         0.1150 
    138 H138        1.9327  -15.8208  -49.9966 H         1 UNK         0.1150 
    139 H139        4.5416  -17.6278  -50.7882 H         1 UNK         0.0800 
    140 H140        3.9566  -16.8270  -49.3496 H         1 UNK         0.0800 
    141 H141        2.4130  -18.3795  -47.6940 H         1 UNK         0.0800 
    142 H142        3.7540  -18.7980  -46.6699 H         1 UNK         0.0800 
    143 H143        3.3573  -21.2740  -47.5354 H         1 UNK         0.0600 
    144 H144        2.2129  -19.9516  -45.2697 H         1 UNK         0.3000 
    145 H145        1.2333  -23.0226  -43.6636 H         1 UNK         0.0600 
    146 H146        2.6414  -22.0328  -41.8945 H         1 UNK         0.0600 
    147 H147        3.6541  -22.6622  -43.1834 H         1 UNK         0.0600 
    148 H148        3.3839  -20.9300  -43.0519 H         1 UNK         0.0600 
    149 H149        0.9832  -20.2777  -42.8916 H         1 UNK         0.3000 
    150 H150       -2.2475  -19.7541  -44.3340 H         1 UNK         0.0600 
    151 H151       -2.7340  -21.0117  -42.2224 H         1 UNK         0.0600 
    152 H152       -2.8654  -19.2757  -41.9816 H         1 UNK         0.0600 
    153 H153       -1.4436  -20.1399  -41.4000 H         1 UNK         0.0600 
    154 H154       -0.6928  -18.1202  -42.6082 H         1 UNK         0.3000 
    155 H155        1.1981  -16.4552  -45.1805 H         1 UNK         0.0600 
    156 H156       -1.0175  -15.3361  -44.8029 H         1 UNK         0.0600 
    157 H157        0.2457  -14.5905  -43.8356 H         1 UNK         0.0600 
    158 H158       -0.9118  -15.6856  -43.0929 H         1 UNK         0.0600 
    159 H159        1.4290  -16.2594  -42.3814 H         1 UNK         0.3000 
    160 H160        3.8925  -18.7875  -41.8477 H         1 UNK         0.0600 
    161 H161        4.0149  -15.7239  -41.7889 H         1 UNK         0.0600 
    162 H162        5.1031  -16.7655  -42.6963 H         1 UNK         0.0600 
    163 H163        5.0932  -16.8286  -40.9405 H         1 UNK         0.0600 
    164 H164        2.5593  -16.8570  -40.1709 H         1 UNK         0.3000 
    165 H165       -0.0761  -19.0184  -39.0977 H         1 UNK         0.0600 
    166 H166        0.9089  -18.3994  -36.9106 H         1 UNK         0.0600 
    167 H167        1.9333  -19.5757  -37.7177 H         1 UNK         0.0600 
    168 H168        2.4021  -17.8798  -37.6920 H         1 UNK         0.0600 
    169 H169        0.6132  -16.3230  -38.4330 H         1 UNK         0.3000 
    170 H170       -1.2968  -14.7136  -40.9664 H         1 UNK         0.0600 
    171 H171       -2.9877  -15.4068  -39.2613 H         1 UNK         0.0600 
    172 H172       -1.8487  -15.0417  -37.9707 H         1 UNK         0.0600 
    173 H173       -2.4573  -13.7521  -39.0092 H         1 UNK         0.0600 
    174 H174        0.0355  -13.5948  -38.7689 H         1 UNK         0.3000 
    175 H175        1.8031  -12.2856  -39.1514 H         1 UNK         0.0600 
    176 H176        3.9171  -14.4908  -39.5194 H         1 UNK         0.0600 
    177 H177        4.1191  -13.0334  -38.5504 H         1 UNK         0.0600 
    178 H178        2.9334  -14.2416  -38.0808 H         1 UNK         0.0600 
    179 H179        3.2454  -12.9888  -41.6603 H         1 UNK         0.3000 
    180 H180        3.1089   -9.7252  -42.7911 H         1 UNK         0.0600 
    181 H181        5.7784  -10.8574  -41.7943 H         1 UNK         0.0600 
    182 H182        5.1302   -9.2698  -41.4016 H         1 UNK         0.0600 
    183 H183        5.5772   -9.6423  -43.0579 H         1 UNK         0.0600 
    184 H184        4.6667  -11.9804  -43.6640 H         1 UNK         0.3000 
    185 H185        3.7425  -12.7311  -45.9133 H         1 UNK         0.0600 
    186 H186        4.5005  -14.2542  -44.1464 H         1 UNK         0.0600 
    187 H187        2.8530  -14.6694  -43.7142 H         1 UNK         0.0600 
    188 H188        3.5396  -15.2334  -45.2370 H         1 UNK         0.0600 
    189 H189        0.9417  -12.9043  -45.5826 H         1 UNK         0.3000 
    190 H190        0.1822  -19.6348  -47.0314 H         1 UNK         0.3000 
    191 H191       -0.8816  -20.6372  -49.5768 H         1 UNK         0.0600 
    192 H192       -1.3876  -18.3390  -48.7601 H         1 UNK         0.0600 
    193 H193       -2.8450  -19.2972  -48.9658 H         1 UNK         0.0600 
    194 H194       -2.2062  -19.0092  -47.3526 H         1 UNK         0.0600 
    195 H195       -0.1491  -22.8310  -48.4531 H         1 UNK         0.3000 
    196 H196       -1.6104  -24.1263  -46.5005 H         1 UNK         0.0600 
    197 H197       -0.7627  -26.2225  -47.5856 H         1 UNK         0.0600 
    198 H198        0.4898  -24.9942  -47.4811 H         1 UNK         0.0600 
    199 H199       -0.3167  -25.3036  -49.0192 H         1 UNK         0.0600 
    200 H200       -3.5772  -24.9676  -46.3034 H         1 UNK         0.3000 
    201 H201       -5.7244  -25.4151  -46.5972 H         1 UNK         0.0600 
    202 H202       -4.8373  -27.4079  -47.8054 H         1 UNK         0.0600 
    203 H203       -4.8981  -26.5301  -49.3310 H         1 UNK         0.0600 
    204 H204       -6.3828  -26.9026  -48.4661 H         1 UNK         0.0600 
    205 H205       -4.9873  -22.7740  -47.1186 H         1 UNK         0.3000 
    206 H206       -5.6930  -20.8093  -47.8436 H         1 UNK         0.0600 
    207 H207       -7.9751  -21.5570  -47.1410 H         1 UNK         0.0600 
    208 H208       -8.0429  -20.4656  -48.5154 H         1 UNK         0.0600 
    209 H209       -8.2764  -22.1894  -48.7585 H         1 UNK         0.0600 
    210 H210       -3.8895  -21.9601  -49.3275 H         1 UNK         0.3000 
    211 H211       -2.7794  -22.0753  -51.2520 H         1 UNK         0.0600 
    212 H212       -4.7240  -19.9489  -52.3055 H         1 UNK         0.0600 
    213 H213       -3.1521  -20.3437  -52.9841 H         1 UNK         0.0600 
    214 H214       -3.2565  -19.6230  -51.3879 H         1 UNK         0.0600 
    215 H215       -4.2559  -24.1549  -50.8819 H         1 UNK         0.3000 
    216 H216       -5.3074  -25.9403  -51.6627 H         1 UNK         0.0600 
    217 H217       -4.8632  -26.6347  -53.9952 H         1 UNK         0.0600 
    218 H218       -3.4163  -25.9236  -53.2976 H         1 UNK         0.0600 
    219 H219       -4.3957  -24.9977  -54.4319 H         1 UNK         0.0600 
    220 H220       -7.0541  -24.0749  -50.9770 H         1 UNK         0.3000 
    221 H221       -9.0660  -23.2013  -51.0998 H         1 UNK         0.0600 
    222 H222       -9.7243  -25.4127  -53.1183 H         1 UNK         0.0600 
    223 H223       -9.7651  -25.5833  -51.3638 H         1 UNK         0.0600 
    224 H224      -10.8787  -24.4890  -52.1684 H         1 UNK         0.0600 
    225 H225       -7.3718  -21.6881  -52.3156 H         1 UNK         0.3000 
    226 H226       -6.9288  -20.0563  -53.7137 H         1 UNK         0.0600 
    227 H227       -9.1177  -19.2376  -52.8426 H         1 UNK         0.0600 
    228 H228       -8.8240  -18.6609  -54.4746 H         1 UNK         0.0600 
    229 H229       -9.9531  -19.9823  -54.2051 H         1 UNK         0.0600 
    230 H230       -6.2246  -22.3613  -54.8560 H         1 UNK         0.3000 
    231 H231       -6.9918  -22.1715  -57.7526 H         1 UNK         0.0600 
    232 H232       -6.0087  -24.6264  -56.2219 H         1 UNK         0.0600 
    233 H233       -6.5351  -24.5616  -57.8980 H         1 UNK         0.0600 
    234 H234       -7.6994  -24.3069  -56.6065 H         1 UNK         0.0600 
    235 H235       -5.1662  -20.3985  -56.6649 H         1 UNK         0.3000 
    236 H236       -3.1481  -19.4880  -56.9114 H         1 UNK         0.0600 
    237 H237       -3.8386  -19.6896  -59.3062 H         1 UNK         0.0600 
    238 H238       -2.0932  -19.7552  -59.1321 H         1 UNK         0.0600 
    239 H239       -2.9982  -21.2348  -59.4257 H         1 UNK         0.0600 
    240 H240       -3.1326  -21.5610  -55.0906 H         1 UNK         0.3000 
    241 H241       -1.7757  -22.6205  -53.7276 H         1 UNK         0.0600 
    242 H242       -2.0866  -25.4911  -56.3944 H         1 UNK         0.3800 
    243 H243       -2.7470  -23.8932  -56.6213 H         1 UNK         0.3800 
    244 H244        0.6615  -22.6293  -53.8071 H         1 UNK         0.0800 
    245 H245        0.6744  -22.1342  -55.4683 H         1 UNK         0.0800 
    246 H246       -0.8176  -20.6428  -51.8968 H         1 UNK         0.0800 
    247 H247        0.8256  -21.2375  -51.9126 H         1 UNK         0.0800 
@<TRIPOS>BOND
     1    1    2 1    
     2    1  127 1    
     3    1  128 1    
     4    1  129 1    
     5    2    3 2    
     6    2    4 am   BACKBONE|DICT|INTERRES
     7    4    5 1    
     8    4  130 1    
     9    5    6 1    
    10    5   65 1    
    11    5  131 1    
    12    6    7 1    
    13    6  132 1    
    14    6  133 1    
    15    7    8 1    
    16    8    9 1    
    17    8  134 1    
    18    8  135 1    
    19    9   10 ar   
    20    9   14 ar   
    21   10   11 ar   
    22   10  136 1    
    23   11   12 ar   
    24   11  126 1    
    25   12   13 ar   
    26   12  137 1    
    27   13   14 ar   
    28   13   15 1    
    29   14  138 1    
    30   15   16 1    
    31   15  139 1    
    32   15  140 1    
    33   16   17 1    
    34   17   18 1    
    35   17  141 1    
    36   17  142 1    
    37   18   19 1    
    38   18   67 1    
    39   18  143 1    
    40   19   20 am   BACKBONE|DICT|INTERRES
    41   19  144 1    
    42   20   21 2    
    43   20   22 1    
    44   22   23 1    
    45   22   24 1    
    46   22  145 1    
    47   23  146 1    
    48   23  147 1    
    49   23  148 1    
    50   24   25 am   BACKBONE|DICT|INTERRES
    51   24  149 1    
    52   25   26 2    
    53   25   27 1    
    54   27   28 1    
    55   27   29 1    
    56   27  150 1    
    57   28  151 1    
    58   28  152 1    
    59   28  153 1    
    60   29   30 am   BACKBONE|DICT|INTERRES
    61   29  154 1    
    62   30   31 2    
    63   30   32 1    
    64   32   33 1    
    65   32   34 1    
    66   32  155 1    
    67   33  156 1    
    68   33  157 1    
    69   33  158 1    
    70   34   35 am   BACKBONE|DICT|INTERRES
    71   34  159 1    
    72   35   36 2    
    73   35   37 1    
    74   37   38 1    
    75   37   39 1    
    76   37  160 1    
    77   38  161 1    
    78   38  162 1    
    79   38  163 1    
    80   39   40 am   BACKBONE|DICT|INTERRES
    81   39  164 1    
    82   40   41 2    
    83   40   42 1    
    84   42   43 1    
    85   42   44 1    
    86   42  165 1    
    87   43  166 1    
    88   43  167 1    
    89   43  168 1    
    90   44   45 am   BACKBONE|DICT|INTERRES
    91   44  169 1    
    92   45   46 2    
    93   45   47 1    
    94   47   48 1    
    95   47   49 1    
    96   47  170 1    
    97   48  171 1    
    98   48  172 1    
    99   48  173 1    
   100   49   50 am   BACKBONE|DICT|INTERRES
   101   49  174 1    
   102   50   51 2    
   103   50   52 1    
   104   52   53 1    
   105   52   54 1    
   106   52  175 1    
   107   53  176 1    
   108   53  177 1    
   109   53  178 1    
   110   54   55 am   BACKBONE|DICT|INTERRES
   111   54  179 1    
   112   55   56 2    
   113   55   57 1    
   114   57   58 1    
   115   57   59 1    
   116   57  180 1    
   117   58  181 1    
   118   58  182 1    
   119   58  183 1    
   120   59   60 am   BACKBONE|DICT|INTERRES
   121   59  184 1    
   122   60   61 2    
   123   60   62 1    
   124   62   63 1    
   125   62   64 1    
   126   62  185 1    
   127   63  186 1    
   128   63  187 1    
   129   63  188 1    
   130   64   65 am   BACKBONE|DICT|INTERRES
   131   64  189 1    
   132   65   66 2    
   133   67   68 2    
   134   67   69 am   BACKBONE|DICT|INTERRES
   135   69   70 1    
   136   69  190 1    
   137   70   71 1    
   138   70   72 1    
   139   70  191 1    
   140   71  192 1    
   141   71  193 1    
   142   71  194 1    
   143   72   73 2    
   144   72   74 am   BACKBONE|DICT|INTERRES
   145   74   75 1    
   146   74  195 1    
   147   75   76 1    
   148   75   77 1    
   149   75  196 1    
   150   76  197 1    
   151   76  198 1    
   152   76  199 1    
   153   77   78 2    
   154   77   79 am   BACKBONE|DICT|INTERRES
   155   79   80 1    
   156   79  200 1    
   157   80   81 1    
   158   80   82 1    
   159   80  201 1    
   160   81  202 1    
   161   81  203 1    
   162   81  204 1    
   163   82   83 2    
   164   82   84 am   BACKBONE|DICT|INTERRES
   165   84   85 1    
   166   84  205 1    
   167   85   86 1    
   168   85   87 1    
   169   85  206 1    
   170   86  207 1    
   171   86  208 1    
   172   86  209 1    
   173   87   88 2    
   174   87   89 am   BACKBONE|DICT|INTERRES
   175   89   90 1    
   176   89  210 1    
   177   90   91 1    
   178   90   92 1    
   179   90  211 1    
   180   91  212 1    
   181   91  213 1    
   182   91  214 1    
   183   92   93 2    
   184   92   94 am   BACKBONE|DICT|INTERRES
   185   94   95 1    
   186   94  215 1    
   187   95   96 1    
   188   95   97 1    
   189   95  216 1    
   190   96  217 1    
   191   96  218 1    
   192   96  219 1    
   193   97   98 2    
   194   97   99 am   BACKBONE|DICT|INTERRES
   195   99  100 1    
   196   99  220 1    
   197  100  101 1    
   198  100  102 1    
   199  100  221 1    
   200  101  222 1    
   201  101  223 1    
   202  101  224 1    
   203  102  103 2    
   204  102  104 am   BACKBONE|DICT|INTERRES
   205  104  105 1    
   206  104  225 1    
   207  105  106 1    
   208  105  107 1    
   209  105  226 1    
   210  106  227 1    
   211  106  228 1    
   212  106  229 1    
   213  107  108 2    
   214  107  109 am   BACKBONE|DICT|INTERRES
   215  109  110 1    
   216  109  230 1    
   217  110  111 1    
   218  110  112 1    
   219  110  231 1    
   220  111  232 1    
   221  111  233 1    
   222  111  234 1    
   223  112  113 2    
   224  112  114 am   BACKBONE|DICT|INTERRES
   225  114  115 1    
   226  114  235 1    
   227  115  116 1    
   228  115  117 1    
   229  115  236 1    
   230  116  237 1    
   231  116  238 1    
   232  116  239 1    
   233  117  118 2    
   234  117  119 am   BACKBONE|DICT|INTERRES
   235  119  120 1    
   236  119  240 1    
   237  120  121 1    
   238  120  124 1    
   239  120  241 1    
   240  121  122 am   BACKBONE|DICT|INTERRES
   241  121  123 2    
   242  122  242 1    
   243  122  243 1    
   244  124  125 1    
   245  124  244 1    
   246  124  245 1    
   247  125  126 1    
   248  126  246 1    
   249  126  247 1    
@<TRIPOS>SUBSTRUCTURE
     1 UNK         1 GROUP             0       ****    0 ROOT    
