@<TRIPOS>MOLECULE
3R540
247   249    1
SMALL
USER_CHARGES


@<TRIPOS>ATOM
      1 CA         -3.1932  -11.6859  -48.6881 C.3       0 UNK        -0.1800 
      2 C          -2.0703  -12.6474  -49.0728 C.2       0 UNK         0.5000 
      3 O          -1.0849  -12.2078  -49.6610 O.2       0 UNK        -0.5000 
      4 N          -2.1536  -13.9531  -48.7765 N.am      1 UNK        -0.5000 
      5 CA         -3.2234  -14.6835  -48.0811 C.3       1 UNK         0.1400 
      6 C6         -4.5328  -14.8125  -48.9220 C.3       23 UNK        -0.0398 
      7 S7         -5.1403  -16.5354  -48.9949 S.3       23 UNK        -0.2404 
      8 C8         -4.4898  -17.0915  -50.6082 C.3       23 UNK        -0.0205 
      9 C9         -2.9858  -16.8902  -50.7114 C.ar      23 UNK        -0.0193 
     10 C10        -2.4585  -15.9171  -51.5645 C.ar      23 UNK        -0.1150 
     11 C11        -1.0809  -15.6872  -51.6150 C.ar      23 UNK        -0.0193 
     12 C12        -0.2274  -16.4372  -50.7997 C.ar      23 UNK        -0.1150 
     13 C13        -0.7457  -17.4138  -49.9450 C.ar      23 UNK        -0.0193 
     14 C14        -2.1223  -17.6466  -49.9176 C.ar      23 UNK        -0.1150 
     15 C15         0.1622  -18.1811  -49.0028 C.3       23 UNK        -0.0205 
     16 S16         0.2346  -19.9498  -49.4234 S.3       23 UNK        -0.2404 
     17 C17         0.6393  -20.6369  -47.7798 C.3       23 UNK        -0.0398 
     18 CA         -0.5213  -21.3200  -47.0055 C.3       11 UNK         0.1400 
     19 N          -0.1366  -21.5556  -45.6125 N.am      11 UNK        -0.5000 
     20 C          -0.8227  -22.2936  -44.7301 C.2       10 UNK         0.5000 
     21 O          -1.8493  -22.9141  -45.0056 O.2       10 UNK        -0.5000 
     22 CA         -0.2972  -22.2896  -43.2828 C.3       10 UNK         0.1400 
     23 CB          0.9082  -23.2294  -43.1317 C.3       10 UNK        -0.1800 
     24 N           0.0672  -20.9468  -42.8265 N.am      10 UNK        -0.5000 
     25 C          -0.8003  -19.9322  -42.6973 C.2       9 UNK         0.5000 
     26 O          -2.0086  -20.0339  -42.9044 O.2       9 UNK        -0.5000 
     27 CA         -0.2151  -18.5625  -42.3169 C.3       9 UNK         0.1400 
     28 CB          0.1021  -18.5121  -40.8142 C.3       9 UNK        -0.1800 
     29 N           0.9852  -18.2340  -43.0856 N.am      9 UNK        -0.5000 
     30 C           1.0358  -18.0885  -44.4176 C.2       8 UNK         0.5000 
     31 O           0.0589  -18.1820  -45.1550 O.2       8 UNK        -0.5000 
     32 CA          2.4229  -17.8700  -45.0429 C.3       8 UNK         0.1400 
     33 CB          2.8380  -16.3942  -44.9671 C.3       8 UNK        -0.1800 
     34 N           3.4402  -18.7136  -44.4161 N.am      8 UNK        -0.5000 
     35 C           3.4751  -20.0511  -44.5115 C.2       7 UNK         0.5000 
     36 O           2.6700  -20.7129  -45.1674 O.2       7 UNK        -0.5000 
     37 CA          4.5691  -20.7686  -43.7010 C.3       7 UNK         0.1400 
     38 CB          5.9011  -20.7658  -44.4657 C.3       7 UNK        -0.1800 
     39 N           4.7641  -20.1685  -42.3801 N.am      7 UNK        -0.5000 
     40 C           3.8615  -20.2169  -41.3902 C.2       6 UNK         0.5000 
     41 O           2.7853  -20.8098  -41.4756 O.2       6 UNK        -0.5000 
     42 CA          4.1997  -19.4217  -40.1130 C.3       6 UNK         0.1400 
     43 CB          5.1002  -20.2478  -39.1827 C.3       6 UNK        -0.1800 
     44 N           4.8340  -18.1250  -40.3850 N.am      6 UNK        -0.5000 
     45 C           4.2496  -17.1369  -41.0740 C.2       5 UNK         0.5000 
     46 O           3.1184  -17.2303  -41.5597 O.2       5 UNK        -0.5000 
     47 CA          5.0582  -15.8490  -41.2963 C.3       5 UNK         0.1400 
     48 CB          6.2292  -16.0892  -42.2672 C.3       5 UNK        -0.1800 
     49 N           4.1363  -14.8733  -41.8603 N.am      5 UNK        -0.5000 
     50 C           4.2683  -13.5479  -41.9481 C.2       4 UNK         0.5000 
     51 O           5.2611  -12.9289  -41.5641 O.2       4 UNK        -0.5000 
     52 CA          3.0786  -12.7866  -42.5747 C.3       4 UNK         0.1400 
     53 CB          3.3843  -12.4247  -44.0362 C.3       4 UNK        -0.1800 
     54 N           1.8199  -13.5412  -42.5345 N.am      4 UNK        -0.5000 
     55 C           1.1071  -13.7899  -41.4291 C.2       3 UNK         0.5000 
     56 O           1.3952  -13.3339  -40.3214 O.2       3 UNK        -0.5000 
     57 CA         -0.1256  -14.7023  -41.6019 C.3       3 UNK         0.1400 
     58 CB         -0.8081  -15.0370  -40.2630 C.3       3 UNK        -0.1800 
     59 N          -1.1284  -14.1323  -42.5014 N.am      3 UNK        -0.5000 
     60 C          -1.0628  -14.1099  -43.8370 C.2       2 UNK         0.5000 
     61 O          -0.1071  -14.5444  -44.4857 O.2       2 UNK        -0.5000 
     62 CA         -2.2570  -13.4688  -44.5565 C.3       2 UNK         0.1400 
     63 CB         -2.1443  -11.9349  -44.5522 C.3       2 UNK        -0.1800 
     64 N          -2.3082  -13.9430  -45.9348 N.am      2 UNK        -0.5000 
     65 C          -3.4252  -14.1972  -46.6269 C.2       1 UNK         0.5000 
     66 O          -4.5572  -14.0398  -46.1679 O.2       1 UNK        -0.5000 
     67 C          -1.8811  -20.5857  -47.1009 C.2       11 UNK         0.5000 
     68 O          -2.7349  -21.0010  -47.8842 O.2       11 UNK        -0.5000 
     69 N          -2.0786  -19.5412  -46.2844 N.am      12 UNK        -0.5000 
     70 CA         -3.3196  -18.7723  -46.1878 C.3       12 UNK         0.1400 
     71 CB         -3.0989  -17.5368  -45.3032 C.3       12 UNK        -0.1800 
     72 C          -4.5018  -19.6102  -45.6742 C.2       12 UNK         0.5000 
     73 O          -5.5874  -19.5327  -46.2479 O.2       12 UNK        -0.5000 
     74 N          -4.2640  -20.4324  -44.6421 N.am      13 UNK        -0.5000 
     75 CA         -5.2381  -21.3754  -44.0851 C.3       13 UNK         0.1400 
     76 CB         -4.6687  -22.0071  -42.8060 C.3       13 UNK        -0.1800 
     77 C          -5.6604  -22.4644  -45.0898 C.2       13 UNK         0.5000 
     78 O          -6.8313  -22.8444  -45.1205 O.2       13 UNK        -0.5000 
     79 N          -4.7095  -22.9146  -45.9186 N.am      14 UNK        -0.5000 
     80 CA         -4.9360  -23.8380  -47.0304 C.3       14 UNK         0.1400 
     81 CB         -3.5999  -24.5082  -47.3925 C.3       14 UNK        -0.1800 
     82 C          -5.5459  -23.1625  -48.2765 C.2       14 UNK         0.5000 
     83 O          -5.9018  -23.8721  -49.2168 O.2       14 UNK        -0.5000 
     84 N          -5.6115  -21.8218  -48.2946 N.am      15 UNK        -0.5000 
     85 CA         -6.0160  -20.9583  -49.4110 C.3       15 UNK         0.1400 
     86 CB         -7.5287  -21.0904  -49.6788 C.3       15 UNK        -0.1800 
     87 C          -5.1512  -21.1819  -50.6716 C.2       15 UNK         0.5000 
     88 O          -5.6773  -21.2543  -51.7829 O.2       15 UNK        -0.5000 
     89 N          -3.8358  -21.3262  -50.4509 N.am      16 UNK        -0.5000 
     90 CA         -2.7930  -21.6850  -51.4190 C.3       16 UNK         0.1400 
     91 CB         -2.6554  -20.6169  -52.5213 C.3       16 UNK        -0.1800 
     92 C          -2.9129  -23.1263  -51.9683 C.2       16 UNK         0.5000 
     93 O          -2.2931  -23.4485  -52.9834 O.2       16 UNK        -0.5000 
     94 N          -3.6669  -23.9812  -51.2594 N.am      17 UNK        -0.5000 
     95 CA         -3.8838  -25.4091  -51.5061 C.3       17 UNK         0.1400 
     96 CB         -2.5678  -26.1915  -51.2964 C.3       17 UNK        -0.1800 
     97 C          -4.5614  -25.6980  -52.8636 C.2       17 UNK         0.5000 
     98 O          -5.2103  -24.8193  -53.4352 O.2       17 UNK        -0.5000 
     99 N          -4.4144  -26.9366  -53.3544 N.am      18 UNK        -0.5000 
    100 CA        -4.9783  -27.4154  -54.6207 C.3       18 UNK         0.1400 
    101 CB        -4.8061  -28.9403  -54.6968 C.3       18 UNK        -0.1800 
    102 C         -4.3704  -26.7408  -55.8672 C.2       18 UNK         0.5000 
    103 O         -5.0148  -26.7176  -56.9165 O.2       18 UNK        -0.5000 
    104 N         -3.1522  -26.1982  -55.7304 N.am      19 UNK        -0.5000 
    105 CA        -2.4681  -25.4126  -56.7580 C.3       19 UNK         0.1400 
    106 CB        -0.9944  -25.2445  -56.3571 C.3       19 UNK        -0.1800 
    107 C         -3.1216  -24.0365  -56.9949 C.2       19 UNK         0.5000 
    108 O         -3.0564  -23.5269  -58.1149 O.2       19 UNK        -0.5000 
    109 N         -3.7417  -23.4783  -55.9433 N.am      20 UNK        -0.5000 
    110 CA        -4.3785  -22.1609  -55.8764 C.3       20 UNK         0.1400 
    111 CB        -5.6248  -22.1167  -56.7884 C.3       20 UNK        -0.1800 
    112 C         -3.3858  -21.0027  -56.1310 C.2       20 UNK         0.5000 
    113 O         -2.1747  -21.1882  -55.9902 O.2       20 UNK        -0.5000 
    114 N         -3.9201  -19.8186  -56.4674 N.am      21 UNK        -0.5000 
    115 CA        -3.2068  -18.5511  -56.6570 C.3       21 UNK         0.1400 
    116 CB        -2.2975  -18.6070  -57.9064 C.3       21 UNK        -0.1800 
    117 C         -2.4901  -18.1216  -55.3600 C.2       21 UNK         0.5000 
    118 O         -3.1757  -17.7833  -54.3946 O.2       21 UNK        -0.5000 
    119 N         -1.1539  -18.1578  -55.3570 N.am      22 UNK        -0.5000 
    120 CA        -0.2927  -17.9180  -54.1946 C.3       22 UNK         0.1400 
    121 C          0.7038  -19.0939  -54.0440 C.2       22 UNK         0.5000 
    122 N          0.9368  -19.5726  -52.8300 N.am      22 UNK        -0.7600 
    123 O          1.3048  -19.5468  -55.0163 O.2       22 UNK        -0.5000 
    124 C124        0.4803  -16.5776  -54.3080 C.3       23 UNK        -0.0398 
    125 S125       -0.6113  -15.1150  -54.2907 S.3       23 UNK        -0.2404 
    126 C126       -0.5216  -14.6173  -52.5408 C.3       23 UNK        -0.0205 
    127 H127       -4.1781  -12.1060  -48.8815 H         1 UNK         0.0600 
    128 H128       -3.1153  -10.7650  -49.2662 H         1 UNK         0.0600 
    129 H129       -3.1239  -11.4220  -47.6332 H         1 UNK         0.0600 
    130 H130       -1.3902  -14.5407  -49.0806 H         1 UNK         0.3000 
    131 H131       -2.8042  -15.6832  -47.9626 H         1 UNK         0.0600 
    132 H132       -4.3713  -14.4682  -49.9439 H         1 UNK         0.0800 
    133 H133       -5.3373  -14.1800  -48.5449 H         1 UNK         0.0800 
    134 H134       -5.0068  -16.5583  -51.4075 H         1 UNK         0.0800 
    135 H135       -4.7205  -18.1480  -50.7462 H         1 UNK         0.0800 
    136 H136       -3.1190  -15.3304  -52.1872 H         1 UNK         0.1150 
    137 H137        0.8374  -16.2520  -50.8218 H         1 UNK         0.1150 
    138 H138       -2.5255  -18.3993  -49.2559 H         1 UNK         0.1150 
    139 H139        1.1732  -17.7711  -49.0070 H         1 UNK         0.0800 
    140 H140       -0.2184  -18.0489  -47.9888 H         1 UNK         0.0800 
    141 H141        1.0674  -19.8390  -47.1740 H         1 UNK         0.0800 
    142 H142        1.4497  -21.3549  -47.9118 H         1 UNK         0.0800 
    143 H143       -0.6751  -22.3000  -47.4620 H         1 UNK         0.0600 
    144 H144        0.7221  -21.1104  -45.3035 H         1 UNK         0.3000 
    145 H145       -1.0980  -22.6566  -42.6375 H         1 UNK         0.0600 
    146 H146        1.2363  -23.2836  -42.0935 H         1 UNK         0.0600 
    147 H147        1.7566  -22.8992  -43.7316 H         1 UNK         0.0600 
    148 H148        0.6556  -24.2424  -43.4474 H         1 UNK         0.0600 
    149 H149        1.0420  -20.7902  -42.5926 H         1 UNK         0.3000 
    150 H150       -0.9659  -17.8009  -42.5364 H         1 UNK         0.0600 
    151 H151       -0.8071  -18.6205  -40.2219 H         1 UNK         0.0600 
    152 H152        0.5653  -17.5678  -40.5335 H         1 UNK         0.0600 
    153 H153        0.7830  -19.3090  -40.5162 H         1 UNK         0.0600 
    154 H154        1.8386  -18.0930  -42.5505 H         1 UNK         0.3000 
    155 H155        2.3649  -18.1443  -46.0978 H         1 UNK         0.0600 
    156 H156        2.1508  -15.7716  -45.5413 H         1 UNK         0.0600 
    157 H157        3.8366  -16.2378  -45.3752 H         1 UNK         0.0600 
    158 H158        2.8286  -16.0255  -43.9442 H         1 UNK         0.0600 
    159 H159        4.1118  -18.2539  -43.8215 H         1 UNK         0.3000 
    160 H160        4.2559  -21.8059  -43.5635 H         1 UNK         0.0600 
    161 H161        6.2809  -19.7542  -44.6141 H         1 UNK         0.0600 
    162 H162        5.7860  -21.2214  -45.4502 H         1 UNK         0.0600 
    163 H163        6.6624  -21.3355  -43.9324 H         1 UNK         0.0600 
    164 H164        5.6235  -19.6621  -42.2267 H         1 UNK         0.3000 
    165 H165        3.2600  -19.2283  -39.5912 H         1 UNK         0.0600 
    166 H166        5.2663  -19.7334  -38.2360 H         1 UNK         0.0600 
    167 H167        4.6432  -21.2110  -38.9515 H         1 UNK         0.0600 
    168 H168        6.0735  -20.4457  -39.6333 H         1 UNK         0.0600 
    169 H169        5.7637  -17.9880  -40.0150 H         1 UNK         0.3000 
    170 H170        5.4267  -15.4897  -40.3338 H         1 UNK         0.0600 
    171 H171        5.8806  -16.4507  -43.2355 H         1 UNK         0.0600 
    172 H172        6.7950  -15.1736  -42.4392 H         1 UNK         0.0600 
    173 H173        6.9276  -16.8268  -41.8708 H         1 UNK         0.0600 
    174 H174        3.2590  -15.2905  -42.1442 H         1 UNK         0.3000 
    175 H175        2.9447  -11.8610  -42.0111 H         1 UNK         0.0600 
    176 H176        3.5178  -13.3155  -44.6514 H         1 UNK         0.0600 
    177 H177        2.5792  -11.8332  -44.4728 H         1 UNK         0.0600 
    178 H178        4.2982  -11.8338  -44.1103 H         1 UNK         0.0600 
    179 H179        1.4713  -13.9111  -43.4135 H         1 UNK         0.3000 
    180 H180        0.2367  -15.6364  -42.0338 H         1 UNK         0.0600 
    181 H181       -1.2388  -14.1498  -39.7973 H         1 UNK         0.0600 
    182 H182       -0.0985  -15.4655  -39.5541 H         1 UNK         0.0600 
    183 H183       -1.6071  -15.7659  -40.4001 H         1 UNK         0.0600 
    184 H184       -1.9286  -13.7115  -42.0514 H         1 UNK         0.3000 
    185 H185       -3.1643  -13.7675  -44.0268 H         1 UNK         0.0600 
    186 H186       -1.2522  -11.5971  -45.0812 H         1 UNK         0.0600 
    187 H187       -3.0101  -11.4757  -45.0295 H         1 UNK         0.0600 
    188 H188       -2.0916  -11.5450  -43.5350 H         1 UNK         0.0600 
    189 H189       -1.4044  -14.1409  -46.3454 H         1 UNK         0.3000 
    190 H190       -1.3049  -19.2137  -45.7088 H         1 UNK         0.3000 
    191 H191       -3.5741  -18.4266  -47.1902 H         1 UNK         0.0600 
    192 H192       -2.2990  -16.9101  -45.6965 H         1 UNK         0.0600 
    193 H193       -2.8321  -17.8119  -44.2830 H         1 UNK         0.0600 
    194 H194       -4.0013  -16.9263  -45.2536 H         1 UNK         0.0600 
    195 H195       -3.3541  -20.3994  -44.1883 H         1 UNK         0.3000 
    196 H196       -6.1322  -20.8094  -43.8161 H         1 UNK         0.0600 
    197 H197       -4.4463  -21.2470  -42.0570 H         1 UNK         0.0600 
    198 H198       -3.7496  -22.5592  -43.0046 H         1 UNK         0.0600 
    199 H199       -5.3817  -22.7029  -42.3620 H         1 UNK         0.0600 
    200 H200       -3.7554  -22.5967  -45.7826 H         1 UNK         0.3000 
    201 H201       -5.6306  -24.6156  -46.7061 H         1 UNK         0.0600 
    202 H202       -3.1714  -25.0228  -46.5323 H         1 UNK         0.0600 
    203 H203       -2.8676  -23.7810  -47.7449 H         1 UNK         0.0600 
    204 H204       -3.7313  -25.2504  -48.1808 H         1 UNK         0.0600 
    205 H205       -5.2809  -21.3278  -47.4752 H         1 UNK         0.3000 
    206 H206       -5.8256  -19.9334  -49.0888 H         1 UNK         0.0600 
    207 H207       -8.1053  -20.9070  -48.7721 H         1 UNK         0.0600 
    208 H208       -7.7902  -22.0822  -50.0487 H         1 UNK         0.0600 
    209 H209       -7.8576  -20.3654  -50.4242 H         1 UNK         0.0600 
    210 H210       -3.5088  -21.2413  -49.4882 H         1 UNK         0.3000 
    211 H211       -1.8612  -21.6761  -50.8528 H         1 UNK         0.0600 
    212 H212       -3.5446  -20.5575  -53.1470 H         1 UNK         0.0600 
    213 H213       -1.8113  -20.8340  -53.1764 H         1 UNK         0.0600 
    214 H214       -2.4837  -19.6295  -52.0939 H         1 UNK         0.0600 
    215 H215       -4.2157  -23.6010  -50.4986 H         1 UNK         0.3000 
    216 H216       -4.5894  -25.7398  -50.7432 H         1 UNK         0.0600 
    217 H217       -2.7426  -27.2667  -51.2505 H         1 UNK         0.0600 
    218 H218       -2.0924  -25.9111  -50.3562 H         1 UNK         0.0600 
    219 H219       -1.8518  -26.0048  -52.0976 H         1 UNK         0.0600 
    220 H220       -3.8740  -27.6054  -52.8250 H         1 UNK         0.3000 
    221 H221       -6.0471  -27.1914  -54.6188 H         1 UNK         0.0600 
    222 H222       -5.3030  -29.4363  -53.8628 H         1 UNK         0.0600 
    223 H223       -5.2417  -29.3377  -55.6146 H         1 UNK         0.0600 
    224 H224       -3.7541  -29.2278  -54.6818 H         1 UNK         0.0600 
    225 H225       -2.6964  -26.2660  -54.8326 H         1 UNK         0.3000 
    226 H226       -2.5072  -25.9675  -57.6978 H         1 UNK         0.0600 
    227 H227       -0.5007  -26.2103  -56.2483 H         1 UNK         0.0600 
    228 H228       -0.4464  -24.6823  -57.1143 H         1 UNK         0.0600 
    229 H229       -0.8947  -24.7057  -55.4135 H         1 UNK         0.0600 
    230 H230       -3.7123  -23.9760  -55.0625 H         1 UNK         0.3000 
    231 H231       -4.7170  -22.0523  -54.8447 H         1 UNK         0.0600 
    232 H232       -6.2427  -21.2435  -56.5783 H         1 UNK         0.0600 
    233 H233       -6.2542  -22.9932  -56.6325 H         1 UNK         0.0600 
    234 H234       -5.3543  -22.0853  -57.8444 H         1 UNK         0.0600 
    235 H235       -4.9263  -19.7560  -56.5280 H         1 UNK         0.3000 
    236 H236       -3.9688  -17.7933  -56.8455 H         1 UNK         0.0600 
    237 H237       -1.5217  -19.3690  -57.8269 H         1 UNK         0.0600 
    238 H238       -2.8815  -18.8277  -58.7999 H         1 UNK         0.0600 
    239 H239       -1.8051  -17.6484  -58.0745 H         1 UNK         0.0600 
    240 H240       -0.6776  -18.5277  -56.1676 H         1 UNK         0.3000 
    241 H241       -0.9044  -17.8956  -53.2915 H         1 UNK         0.0600 
    242 H242        1.5974  -20.3262  -52.7256 H         1 UNK         0.3800 
    243 H243        0.4654  -19.2154  -52.0129 H         1 UNK         0.3800 
    244 H244        1.0608  -16.5533  -55.2318 H         1 UNK         0.0800 
    245 H245        1.2055  -16.4812  -53.4981 H         1 UNK         0.0800 
    246 H246        0.5113  -14.3790  -52.2825 H         1 UNK         0.0800 
    247 H247       -1.0887  -13.6953  -52.4044 H         1 UNK         0.0800 
@<TRIPOS>BOND
     1    1    2 1    
     2    1  127 1    
     3    1  128 1    
     4    1  129 1    
     5    2    3 2    
     6    2    4 am   BACKBONE|DICT|INTERRES
     7    4    5 1    
     8    4  130 1    
     9    5    6 1    
    10    5   65 1    
    11    5  131 1    
    12    6    7 1    
    13    6  132 1    
    14    6  133 1    
    15    7    8 1    
    16    8    9 1    
    17    8  134 1    
    18    8  135 1    
    19    9   10 ar   
    20    9   14 ar   
    21   10   11 ar   
    22   10  136 1    
    23   11   12 ar   
    24   11  126 1    
    25   12   13 ar   
    26   12  137 1    
    27   13   14 ar   
    28   13   15 1    
    29   14  138 1    
    30   15   16 1    
    31   15  139 1    
    32   15  140 1    
    33   16   17 1    
    34   17   18 1    
    35   17  141 1    
    36   17  142 1    
    37   18   19 1    
    38   18   67 1    
    39   18  143 1    
    40   19   20 am   BACKBONE|DICT|INTERRES
    41   19  144 1    
    42   20   21 2    
    43   20   22 1    
    44   22   23 1    
    45   22   24 1    
    46   22  145 1    
    47   23  146 1    
    48   23  147 1    
    49   23  148 1    
    50   24   25 am   BACKBONE|DICT|INTERRES
    51   24  149 1    
    52   25   26 2    
    53   25   27 1    
    54   27   28 1    
    55   27   29 1    
    56   27  150 1    
    57   28  151 1    
    58   28  152 1    
    59   28  153 1    
    60   29   30 am   BACKBONE|DICT|INTERRES
    61   29  154 1    
    62   30   31 2    
    63   30   32 1    
    64   32   33 1    
    65   32   34 1    
    66   32  155 1    
    67   33  156 1    
    68   33  157 1    
    69   33  158 1    
    70   34   35 am   BACKBONE|DICT|INTERRES
    71   34  159 1    
    72   35   36 2    
    73   35   37 1    
    74   37   38 1    
    75   37   39 1    
    76   37  160 1    
    77   38  161 1    
    78   38  162 1    
    79   38  163 1    
    80   39   40 am   BACKBONE|DICT|INTERRES
    81   39  164 1    
    82   40   41 2    
    83   40   42 1    
    84   42   43 1    
    85   42   44 1    
    86   42  165 1    
    87   43  166 1    
    88   43  167 1    
    89   43  168 1    
    90   44   45 am   BACKBONE|DICT|INTERRES
    91   44  169 1    
    92   45   46 2    
    93   45   47 1    
    94   47   48 1    
    95   47   49 1    
    96   47  170 1    
    97   48  171 1    
    98   48  172 1    
    99   48  173 1    
   100   49   50 am   BACKBONE|DICT|INTERRES
   101   49  174 1    
   102   50   51 2    
   103   50   52 1    
   104   52   53 1    
   105   52   54 1    
   106   52  175 1    
   107   53  176 1    
   108   53  177 1    
   109   53  178 1    
   110   54   55 am   BACKBONE|DICT|INTERRES
   111   54  179 1    
   112   55   56 2    
   113   55   57 1    
   114   57   58 1    
   115   57   59 1    
   116   57  180 1    
   117   58  181 1    
   118   58  182 1    
   119   58  183 1    
   120   59   60 am   BACKBONE|DICT|INTERRES
   121   59  184 1    
   122   60   61 2    
   123   60   62 1    
   124   62   63 1    
   125   62   64 1    
   126   62  185 1    
   127   63  186 1    
   128   63  187 1    
   129   63  188 1    
   130   64   65 am   BACKBONE|DICT|INTERRES
   131   64  189 1    
   132   65   66 2    
   133   67   68 2    
   134   67   69 am   BACKBONE|DICT|INTERRES
   135   69   70 1    
   136   69  190 1    
   137   70   71 1    
   138   70   72 1    
   139   70  191 1    
   140   71  192 1    
   141   71  193 1    
   142   71  194 1    
   143   72   73 2    
   144   72   74 am   BACKBONE|DICT|INTERRES
   145   74   75 1    
   146   74  195 1    
   147   75   76 1    
   148   75   77 1    
   149   75  196 1    
   150   76  197 1    
   151   76  198 1    
   152   76  199 1    
   153   77   78 2    
   154   77   79 am   BACKBONE|DICT|INTERRES
   155   79   80 1    
   156   79  200 1    
   157   80   81 1    
   158   80   82 1    
   159   80  201 1    
   160   81  202 1    
   161   81  203 1    
   162   81  204 1    
   163   82   83 2    
   164   82   84 am   BACKBONE|DICT|INTERRES
   165   84   85 1    
   166   84  205 1    
   167   85   86 1    
   168   85   87 1    
   169   85  206 1    
   170   86  207 1    
   171   86  208 1    
   172   86  209 1    
   173   87   88 2    
   174   87   89 am   BACKBONE|DICT|INTERRES
   175   89   90 1    
   176   89  210 1    
   177   90   91 1    
   178   90   92 1    
   179   90  211 1    
   180   91  212 1    
   181   91  213 1    
   182   91  214 1    
   183   92   93 2    
   184   92   94 am   BACKBONE|DICT|INTERRES
   185   94   95 1    
   186   94  215 1    
   187   95   96 1    
   188   95   97 1    
   189   95  216 1    
   190   96  217 1    
   191   96  218 1    
   192   96  219 1    
   193   97   98 2    
   194   97   99 am   BACKBONE|DICT|INTERRES
   195   99  100 1    
   196   99  220 1    
   197  100  101 1    
   198  100  102 1    
   199  100  221 1    
   200  101  222 1    
   201  101  223 1    
   202  101  224 1    
   203  102  103 2    
   204  102  104 am   BACKBONE|DICT|INTERRES
   205  104  105 1    
   206  104  225 1    
   207  105  106 1    
   208  105  107 1    
   209  105  226 1    
   210  106  227 1    
   211  106  228 1    
   212  106  229 1    
   213  107  108 2    
   214  107  109 am   BACKBONE|DICT|INTERRES
   215  109  110 1    
   216  109  230 1    
   217  110  111 1    
   218  110  112 1    
   219  110  231 1    
   220  111  232 1    
   221  111  233 1    
   222  111  234 1    
   223  112  113 2    
   224  112  114 am   BACKBONE|DICT|INTERRES
   225  114  115 1    
   226  114  235 1    
   227  115  116 1    
   228  115  117 1    
   229  115  236 1    
   230  116  237 1    
   231  116  238 1    
   232  116  239 1    
   233  117  118 2    
   234  117  119 am   BACKBONE|DICT|INTERRES
   235  119  120 1    
   236  119  240 1    
   237  120  121 1    
   238  120  124 1    
   239  120  241 1    
   240  121  122 am   BACKBONE|DICT|INTERRES
   241  121  123 2    
   242  122  242 1    
   243  122  243 1    
   244  124  125 1    
   245  124  244 1    
   246  124  245 1    
   247  125  126 1    
   248  126  246 1    
   249  126  247 1    
@<TRIPOS>SUBSTRUCTURE
     1 UNK         1 GROUP             0       ****    0 ROOT    
