@<TRIPOS>MOLECULE
3R540
247   249    1
SMALL
USER_CHARGES


@<TRIPOS>ATOM
      1 CA         -3.9030  -17.9427  -43.4170 C.3       0 UNK        -0.1800 
      2 C          -3.2653  -17.5508  -44.7400 C.2       0 UNK         0.5000 
      3 O          -2.1211  -17.9194  -44.9997 O.2       0 UNK        -0.5000 
      4 N          -3.9931  -16.7779  -45.5570 N.am      1 UNK        -0.5000 
      5 CA         -3.5738  -16.1743  -46.8288 C.3       1 UNK         0.1400 
      6 C6         -3.3095  -17.2090  -47.9589 C.3       23 UNK        -0.0398 
      7 S7         -3.5463  -16.4750  -49.6148 S.3       23 UNK        -0.2404 
      8 C8         -1.8423  -16.1280  -50.1567 C.3       23 UNK        -0.0205 
      9 C9         -1.1633  -17.3667  -50.7172 C.ar      23 UNK        -0.0193 
     10 C10        -1.3678  -17.7304  -52.0498 C.ar      23 UNK        -0.1150 
     11 C11        -0.7348  -18.8545  -52.5837 C.ar      23 UNK        -0.0193 
     12 C12         0.0886  -19.6314  -51.7637 C.ar      23 UNK        -0.1150 
     13 C13         0.2896  -19.2961  -50.4191 C.ar      23 UNK        -0.0193 
     14 C14        -0.3204  -18.1389  -49.9143 C.ar      23 UNK        -0.1150 
     15 C15         1.1723  -20.2155  -49.5669 C.3       23 UNK        -0.0205 
     16 S16         1.1656  -19.9291  -47.7589 S.3       23 UNK        -0.2404 
     17 C17        -0.5806  -20.2192  -47.3134 C.3       23 UNK        -0.0398 
     18 CA         -0.8462  -21.6207  -46.7226 C.3       11 UNK         0.1400 
     19 N          -0.1586  -21.8426  -45.4467 N.am      11 UNK        -0.5000 
     20 C          -0.1794  -22.9872  -44.7435 C.2       10 UNK         0.5000 
     21 O          -0.7306  -24.0158  -45.1398 O.2       10 UNK        -0.5000 
     22 CA          0.4558  -22.9748  -43.3390 C.3       10 UNK         0.1400 
     23 CB          1.8556  -23.6041  -43.3843 C.3       10 UNK        -0.1800 
     24 N           0.5506  -21.6431  -42.7360 N.am      10 UNK        -0.5000 
     25 C          -0.4711  -20.8057  -42.4986 C.2       9 UNK         0.5000 
     26 O          -1.6500  -21.0919  -42.7090 O.2       9 UNK        -0.5000 
     27 CA         -0.1104  -19.3931  -41.9952 C.3       9 UNK         0.1400 
     28 CB         -0.3890  -19.2605  -40.4908 C.3       9 UNK        -0.1800 
     29 N           1.2800  -19.0063  -42.2643 N.am      9 UNK        -0.5000 
     30 C           1.7958  -18.8259  -43.4891 C.2       8 UNK         0.5000 
     31 O           1.1300  -18.9293  -44.5182 O.2       8 UNK        -0.5000 
     32 CA          3.3016  -18.5227  -43.5601 C.3       8 UNK         0.1400 
     33 CB          3.7522  -17.9494  -44.9156 C.3       8 UNK        -0.1800 
     34 N           3.6953  -17.6054  -42.4945 N.am      8 UNK        -0.5000 
     35 C           4.8326  -17.6799  -41.7912 C.2       7 UNK         0.5000 
     36 O           5.6323  -18.6133  -41.8816 O.2       7 UNK        -0.5000 
     37 CA          5.1241  -16.4908  -40.8501 C.3       7 UNK         0.1400 
     38 CB          6.5722  -16.4685  -40.3189 C.3       7 UNK        -0.1800 
     39 N           4.7696  -15.2077  -41.4656 N.am      7 UNK        -0.5000 
     40 C           5.2573  -14.6761  -42.5980 C.2       6 UNK         0.5000 
     41 O           6.2046  -15.1483  -43.2275 O.2       6 UNK        -0.5000 
     42 CA          4.5415  -13.4266  -43.1492 C.3       6 UNK         0.1400 
     43 CB          3.8965  -13.7512  -44.5044 C.3       6 UNK        -0.1800 
     44 N           3.4940  -12.9437  -42.2468 N.am      6 UNK        -0.5000 
     45 C           3.6636  -11.9927  -41.3185 C.2       5 UNK         0.5000 
     46 O           4.7078  -11.3574  -41.1692 O.2       5 UNK        -0.5000 
     47 CA          2.4745  -11.7325  -40.3723 C.3       5 UNK         0.1400 
     48 CB          1.5093  -10.7087  -40.9888 C.3       5 UNK        -0.1800 
     49 N           1.7305  -12.9492  -40.0366 N.am      5 UNK        -0.5000 
     50 C           2.2266  -13.9996  -39.3663 C.2       4 UNK         0.5000 
     51 O           3.3673  -14.0389  -38.9076 O.2       4 UNK        -0.5000 
     52 CA          1.3201  -15.2377  -39.2257 C.3       4 UNK         0.1400 
     53 CB          0.6537  -15.2654  -37.8426 C.3       4 UNK        -0.1800 
     54 N           0.2837  -15.3272  -40.2565 N.am      4 UNK        -0.5000 
     55 C           0.5051  -15.5041  -41.5658 C.2       3 UNK         0.5000 
     56 O           1.6337  -15.6345  -42.0491 O.2       3 UNK        -0.5000 
     57 CA         -0.7590  -15.5671  -42.4477 C.3       3 UNK         0.1400 
     58 CB         -1.7456  -14.4173  -42.1473 C.3       3 UNK        -0.1800 
     59 N          -0.4919  -15.6356  -43.8855 N.am      3 UNK        -0.5000 
     60 C           0.0798  -14.7008  -44.6616 C.2       2 UNK         0.5000 
     61 O           0.5697  -13.6523  -44.2403 O.2       2 UNK        -0.5000 
     62 CA          0.0230  -14.9547  -46.1821 C.3       2 UNK         0.1400 
     63 CB          1.2459  -15.7406  -46.6732 C.3       2 UNK        -0.1800 
     64 N          -1.1804  -15.6954  -46.5534 N.am      2 UNK        -0.5000 
     65 C          -2.4133  -15.1765  -46.6187 C.2       1 UNK         0.5000 
     66 O          -2.6596  -13.9767  -46.4891 O.2       1 UNK        -0.5000 
     67 C          -2.3675  -21.8745  -46.6431 C.2       11 UNK         0.5000 
     68 O          -2.9505  -22.2457  -47.6598 O.2       11 UNK        -0.5000 
     69 N          -2.9831  -21.7462  -45.4567 N.am      12 UNK        -0.5000 
     70 CA         -4.3869  -22.0991  -45.2175 C.3       12 UNK         0.1400 
     71 CB         -4.7624  -21.7503  -43.7707 C.3       12 UNK        -0.1800 
     72 C          -4.7142  -23.5802  -45.5009 C.2       12 UNK         0.5000 
     73 O          -5.8427  -23.8808  -45.8904 O.2       12 UNK        -0.5000 
     74 N          -3.7249  -24.4649  -45.3186 N.am      13 UNK        -0.5000 
     75 CA         -3.8208  -25.8912  -45.6167 C.3       13 UNK         0.1400 
     76 CB         -3.2062  -26.6874  -44.4543 C.3       13 UNK        -0.1800 
     77 C          -3.1099  -26.2330  -46.9361 C.2       13 UNK         0.5000 
     78 O          -3.6492  -27.0030  -47.7312 O.2       13 UNK        -0.5000 
     79 N          -1.9070  -25.6762  -47.1387 N.am      14 UNK        -0.5000 
     80 CA         -1.0196  -26.0168  -48.2521 C.3       14 UNK         0.1400 
     81 CB          0.4075  -25.5586  -47.9127 C.3       14 UNK        -0.1800 
     82 C          -1.4583  -25.4428  -49.6117 C.2       14 UNK         0.5000 
     83 O          -1.1601  -26.0532  -50.6393 O.2       14 UNK        -0.5000 
     84 N          -2.1317  -24.2864  -49.6009 N.am      15 UNK        -0.5000 
     85 CA         -2.5628  -23.5633  -50.7984 C.3       15 UNK         0.1400 
     86 CB         -1.8200  -22.2212  -50.8613 C.3       15 UNK        -0.1800 
     87 C          -4.0792  -23.3321  -50.8257 C.2       15 UNK         0.5000 
     88 O          -4.6671  -23.3417  -51.9063 O.2       15 UNK        -0.5000 
     89 N          -4.6753  -23.0946  -49.6482 N.am      16 UNK        -0.5000 
     90 CA         -6.0927  -22.8004  -49.4071 C.3       16 UNK         0.1400 
     91 CB         -6.9708  -24.0196  -49.7565 C.3       16 UNK        -0.1800 
     92 C          -6.5759  -21.4970  -50.0821 C.2       16 UNK         0.5000 
     93 O          -7.7713  -21.3501  -50.3414 O.2       16 UNK        -0.5000 
     94 N          -5.6332  -20.5764  -50.3459 N.am      17 UNK        -0.5000 
     95 CA         -5.8101  -19.2809  -51.0123 C.3       17 UNK         0.1400 
     96 CB         -6.6200  -18.3220  -50.1141 C.3       17 UNK        -0.1800 
     97 C          -6.3968  -19.4018  -52.4368 C.2       17 UNK         0.5000 
     98 O          -7.1988  -18.5601  -52.8471 O.2       17 UNK        -0.5000 
     99 N          -5.9946  -20.4504  -53.1693 N.am      18 UNK        -0.5000 
    100 CA        -6.4948  -20.8316  -54.4948 C.3       18 UNK         0.1400 
    101 CB        -6.1386  -22.3091  -54.7411 C.3       18 UNK        -0.1800 
    102 C         -6.0266  -19.9165  -55.6515 C.2       18 UNK         0.5000 
    103 O         -5.6100  -20.4167  -56.6974 O.2       18 UNK        -0.5000 
    104 N         -6.1194  -18.5940  -55.4598 N.am      19 UNK        -0.5000 
    105 CA        -5.7794  -17.5251  -56.4028 C.3       19 UNK         0.1400 
    106 CB        -6.8406  -17.4503  -57.5240 C.3       19 UNK        -0.1800 
    107 C         -4.3298  -17.6455  -56.9198 C.2       19 UNK         0.5000 
    108 O         -3.3996  -17.3575  -56.1663 O.2       19 UNK        -0.5000 
    109 N         -4.1689  -18.0661  -58.1804 N.am      20 UNK        -0.5000 
    110 CA        -2.8825  -18.3162  -58.8289 C.3       20 UNK         0.1400 
    111 CB        -2.8817  -17.6108  -60.1949 C.3       20 UNK        -0.1800 
    112 C         -2.5918  -19.8196  -59.0047 C.2       20 UNK         0.5000 
    113 O         -1.4630  -20.1671  -59.3552 O.2       20 UNK        -0.5000 
    114 N         -3.5804  -20.6964  -58.7630 N.am      21 UNK        -0.5000 
    115 CA        -3.4598  -22.1495  -58.9425 C.3       21 UNK         0.1400 
    116 CB        -4.8531  -22.7957  -58.9038 C.3       21 UNK        -0.1800 
    117 C         -2.5234  -22.8068  -57.9115 C.2       21 UNK         0.5000 
    118 O         -1.9319  -23.8479  -58.1993 O.2       21 UNK        -0.5000 
    119 N         -2.3773  -22.1610  -56.7499 N.am      22 UNK        -0.5000 
    120 CA        -1.3608  -22.4517  -55.7305 C.3       22 UNK         0.1400 
    121 C          0.0927  -22.0392  -56.1181 C.2       22 UNK         0.5000 
    122 N          0.3327  -21.3446  -57.2251 N.am      22 UNK        -0.7600 
    123 O          1.0313  -22.3673  -55.3979 O.2       22 UNK        -0.5000 
    124 C124       -1.7707  -21.9000  -54.3374 C.3       23 UNK        -0.0398 
    125 S125       -2.4156  -20.1885  -54.3538 S.3       23 UNK        -0.2404 
    126 C126       -0.9186  -19.1976  -54.0543 C.3       23 UNK        -0.0205 
    127 H127       -4.9481  -18.2209  -43.5529 H         1 UNK         0.0600 
    128 H128       -3.8537  -17.1100  -42.7156 H         1 UNK         0.0600 
    129 H129       -3.3765  -18.7882  -42.9745 H         1 UNK         0.0600 
    130 H130       -4.9164  -16.5028  -45.2517 H         1 UNK         0.3000 
    131 H131       -4.4351  -15.5768  -47.1333 H         1 UNK         0.0600 
    132 H132       -2.3328  -17.6836  -47.8773 H         1 UNK         0.0800 
    133 H133       -4.0292  -18.0242  -47.8766 H         1 UNK         0.0800 
    134 H134       -1.8758  -15.3573  -50.9282 H         1 UNK         0.0800 
    135 H135       -1.2590  -15.7041  -49.3395 H         1 UNK         0.0800 
    136 H136       -2.0125  -17.1308  -52.6775 H         1 UNK         0.1150 
    137 H137        0.5738  -20.5055  -52.1749 H         1 UNK         0.1150 
    138 H138       -0.1553  -17.8352  -48.8919 H         1 UNK         0.1150 
    139 H139        0.8863  -21.2531  -49.7421 H         1 UNK         0.0800 
    140 H140        2.2004  -20.1190  -49.9177 H         1 UNK         0.0800 
    141 H141       -0.8663  -19.4515  -46.5953 H         1 UNK         0.0800 
    142 H142       -1.2028  -20.0541  -48.1934 H         1 UNK         0.0800 
    143 H143       -0.4521  -22.3541  -47.4276 H         1 UNK         0.0600 
    144 H144        0.3112  -21.0349  -45.0557 H         1 UNK         0.3000 
    145 H145       -0.1775  -23.5855  -42.6926 H         1 UNK         0.0600 
    146 H146        2.2839  -23.6885  -42.3854 H         1 UNK         0.0600 
    147 H147        1.8187  -24.6097  -43.8060 H         1 UNK         0.0600 
    148 H148        2.5408  -23.0165  -43.9968 H         1 UNK         0.0600 
    149 H149        1.4809  -21.3148  -42.5260 H         1 UNK         0.3000 
    150 H150       -0.7604  -18.7003  -42.5308 H         1 UNK         0.0600 
    151 H151       -1.4286  -19.5010  -40.2640 H         1 UNK         0.0600 
    152 H152       -0.2087  -18.2445  -40.1405 H         1 UNK         0.0600 
    153 H153        0.2389  -19.9333  -39.9055 H         1 UNK         0.0600 
    154 H154        1.8905  -18.9064  -41.4663 H         1 UNK         0.3000 
    155 H155        3.7971  -19.4858  -43.4231 H         1 UNK         0.0600 
    156 H156        4.8383  -17.8708  -44.9645 H         1 UNK         0.0600 
    157 H157        3.3436  -16.9535  -45.0784 H         1 UNK         0.0600 
    158 H158        3.4355  -18.5826  -45.7454 H         1 UNK         0.0600 
    159 H159        3.0665  -16.8184  -42.3423 H         1 UNK         0.3000 
    160 H160        4.4620  -16.6124  -39.9919 H         1 UNK         0.0600 
    161 H161        7.3020  -16.4095  -41.1267 H         1 UNK         0.0600 
    162 H162        6.7914  -17.3706  -39.7467 H         1 UNK         0.0600 
    163 H163        6.7345  -15.6179  -39.6569 H         1 UNK         0.0600 
    164 H164        4.0113  -14.7119  -41.0189 H         1 UNK         0.3000 
    165 H165        5.2941  -12.6508  -43.3038 H         1 UNK         0.0600 
    166 H166        3.1790  -14.5659  -44.4081 H         1 UNK         0.0600 
    167 H167        3.3723  -12.8872  -44.9132 H         1 UNK         0.0600 
    168 H168        4.6449  -14.0564  -45.2368 H         1 UNK         0.0600 
    169 H169        2.6013  -13.4174  -42.3100 H         1 UNK         0.3000 
    170 H170        2.8726  -11.3154  -39.4449 H         1 UNK         0.0600 
    171 H171        2.0285   -9.7814  -41.2346 H         1 UNK         0.0600 
    172 H172        1.0561  -11.0850  -41.9072 H         1 UNK         0.0600 
    173 H173        0.7061  -10.4563  -40.2963 H         1 UNK         0.0600 
    174 H174        0.7824  -13.0066  -40.3769 H         1 UNK         0.3000 
    175 H175        1.9569  -16.1203  -39.3152 H         1 UNK         0.0600 
    176 H176       -0.0170  -14.4168  -37.7016 H         1 UNK         0.0600 
    177 H177        0.0756  -16.1789  -37.7014 H         1 UNK         0.0600 
    178 H178        1.4002  -15.2295  -37.0480 H         1 UNK         0.0600 
    179 H179       -0.6687  -15.2381  -39.9331 H         1 UNK         0.3000 
    180 H180       -1.2619  -16.4995  -42.1946 H         1 UNK         0.0600 
    181 H181       -1.2754  -13.4393  -42.2567 H         1 UNK         0.0600 
    182 H182       -2.1420  -14.4797  -41.1336 H         1 UNK         0.0600 
    183 H183       -2.6014  -14.4501  -42.8221 H         1 UNK         0.0600 
    184 H184       -0.8352  -16.4730  -44.3440 H         1 UNK         0.3000 
    185 H185        0.0124  -13.9858  -46.6857 H         1 UNK         0.0600 
    186 H186        1.2191  -15.8728  -47.7550 H         1 UNK         0.0600 
    187 H187        2.1714  -15.2170  -46.4370 H         1 UNK         0.0600 
    188 H188        1.2924  -16.7314  -46.2203 H         1 UNK         0.0600 
    189 H189       -1.0981  -16.7033  -46.5543 H         1 UNK         0.3000 
    190 H190       -2.4464  -21.4524  -44.6474 H         1 UNK         0.3000 
    191 H191       -4.9998  -21.4926  -45.8875 H         1 UNK         0.0600 
    192 H192       -4.6269  -20.6895  -43.5730 H         1 UNK         0.0600 
    193 H193       -5.8083  -21.9851  -43.5690 H         1 UNK         0.0600 
    194 H194       -4.1563  -22.3051  -43.0534 H         1 UNK         0.0600 
    195 H195       -2.8156  -24.1257  -45.0288 H         1 UNK         0.3000 
    196 H196       -4.8660  -26.1930  -45.7124 H         1 UNK         0.0600 
    197 H197       -3.2557  -27.7600  -44.6461 H         1 UNK         0.0600 
    198 H198       -3.7417  -26.4987  -43.5238 H         1 UNK         0.0600 
    199 H199       -2.1584  -26.4293  -44.2945 H         1 UNK         0.0600 
    200 H200       -1.5134  -25.0751  -46.4188 H         1 UNK         0.3000 
    201 H201       -1.0045  -27.1046  -48.3493 H         1 UNK         0.0600 
    202 H202        0.7568  -26.0108  -46.9842 H         1 UNK         0.0600 
    203 H203        0.4695  -24.4766  -47.8003 H         1 UNK         0.0600 
    204 H204        1.1078  -25.8467  -48.6977 H         1 UNK         0.0600 
    205 H205       -2.3544  -23.8569  -48.7114 H         1 UNK         0.3000 
    206 H206       -2.3196  -24.1251  -51.7026 H         1 UNK         0.0600 
    207 H207       -0.7712  -22.3778  -51.1100 H         1 UNK         0.0600 
    208 H208       -2.2455  -21.5620  -51.6170 H         1 UNK         0.0600 
    209 H209       -1.8604  -21.6802  -49.9179 H         1 UNK         0.0600 
    210 H210       -4.0759  -22.9878  -48.8332 H         1 UNK         0.3000 
    211 H211       -6.1840  -22.6280  -48.3343 H         1 UNK         0.0600 
    212 H212       -6.9891  -24.2121  -50.8295 H         1 UNK         0.0600 
    213 H213       -8.0012  -23.8658  -49.4343 H         1 UNK         0.0600 
    214 H214       -6.6084  -24.9192  -49.2587 H         1 UNK         0.0600 
    215 H215       -4.6850  -20.8066  -50.0865 H         1 UNK         0.3000 
    216 H216       -4.8107  -18.8601  -51.1326 H         1 UNK         0.0600 
    217 H217       -6.1949  -18.2634  -49.1126 H         1 UNK         0.0600 
    218 H218       -7.6594  -18.6370  -50.0179 H         1 UNK         0.0600 
    219 H219       -6.6209  -17.3112  -50.5236 H         1 UNK         0.0600 
    220 H220       -5.3360  -21.0946  -52.7531 H         1 UNK         0.3000 
    221 H221       -7.5838  -20.7600  -54.4704 H         1 UNK         0.0600 
    222 H222       -5.0590  -22.4582  -54.7881 H         1 UNK         0.0600 
    223 H223       -6.5309  -22.9468  -53.9487 H         1 UNK         0.0600 
    224 H224       -6.5632  -22.6677  -55.6794 H         1 UNK         0.0600 
    225 H225       -6.4749  -18.2939  -54.5561 H         1 UNK         0.3000 
    226 H226       -5.8271  -16.5904  -55.8424 H         1 UNK         0.0600 
    227 H227       -7.8268  -17.2436  -57.1081 H         1 UNK         0.0600 
    228 H228       -6.6160  -16.6465  -58.2263 H         1 UNK         0.0600 
    229 H229       -6.9145  -18.3794  -58.0901 H         1 UNK         0.0600 
    230 H230       -4.9947  -18.2819  -58.7201 H         1 UNK         0.3000 
    231 H231       -2.0673  -17.9007  -58.2332 H         1 UNK         0.0600 
    232 H232       -1.9282  -17.7470  -60.7069 H         1 UNK         0.0600 
    233 H233       -3.0379  -16.5377  -60.0833 H         1 UNK         0.0600 
    234 H234       -3.6643  -17.9976  -60.8489 H         1 UNK         0.0600 
    235 H235       -4.4445  -20.3698  -58.3427 H         1 UNK         0.3000 
    236 H236       -3.0342  -22.3289  -59.9321 H         1 UNK         0.0600 
    237 H237       -5.5249  -22.3343  -59.6276 H         1 UNK         0.0600 
    238 H238       -4.7941  -23.8577  -59.1450 H         1 UNK         0.0600 
    239 H239       -5.3106  -22.7127  -57.9182 H         1 UNK         0.0600 
    240 H240       -2.9143  -21.3178  -56.6012 H         1 UNK         0.3000 
    241 H241       -1.3182  -23.5380  -55.6311 H         1 UNK         0.0600 
    242 H242       -0.4108  -21.0669  -57.8546 H         1 UNK         0.3800 
    243 H243        1.2838  -21.1007  -57.4507 H         1 UNK         0.3800 
    244 H244       -0.9519  -21.9818  -53.6215 H         1 UNK         0.0800 
    245 H245       -2.5674  -22.5287  -53.9378 H         1 UNK         0.0800 
    246 H246       -0.0355  -19.7081  -54.4384 H         1 UNK         0.0800 
    247 H247       -1.0017  -18.2753  -54.6315 H         1 UNK         0.0800 
@<TRIPOS>BOND
     1    1    2 1    
     2    1  127 1    
     3    1  128 1    
     4    1  129 1    
     5    2    3 2    
     6    2    4 am   BACKBONE|DICT|INTERRES
     7    4    5 1    
     8    4  130 1    
     9    5    6 1    
    10    5   65 1    
    11    5  131 1    
    12    6    7 1    
    13    6  132 1    
    14    6  133 1    
    15    7    8 1    
    16    8    9 1    
    17    8  134 1    
    18    8  135 1    
    19    9   10 ar   
    20    9   14 ar   
    21   10   11 ar   
    22   10  136 1    
    23   11   12 ar   
    24   11  126 1    
    25   12   13 ar   
    26   12  137 1    
    27   13   14 ar   
    28   13   15 1    
    29   14  138 1    
    30   15   16 1    
    31   15  139 1    
    32   15  140 1    
    33   16   17 1    
    34   17   18 1    
    35   17  141 1    
    36   17  142 1    
    37   18   19 1    
    38   18   67 1    
    39   18  143 1    
    40   19   20 am   BACKBONE|DICT|INTERRES
    41   19  144 1    
    42   20   21 2    
    43   20   22 1    
    44   22   23 1    
    45   22   24 1    
    46   22  145 1    
    47   23  146 1    
    48   23  147 1    
    49   23  148 1    
    50   24   25 am   BACKBONE|DICT|INTERRES
    51   24  149 1    
    52   25   26 2    
    53   25   27 1    
    54   27   28 1    
    55   27   29 1    
    56   27  150 1    
    57   28  151 1    
    58   28  152 1    
    59   28  153 1    
    60   29   30 am   BACKBONE|DICT|INTERRES
    61   29  154 1    
    62   30   31 2    
    63   30   32 1    
    64   32   33 1    
    65   32   34 1    
    66   32  155 1    
    67   33  156 1    
    68   33  157 1    
    69   33  158 1    
    70   34   35 am   BACKBONE|DICT|INTERRES
    71   34  159 1    
    72   35   36 2    
    73   35   37 1    
    74   37   38 1    
    75   37   39 1    
    76   37  160 1    
    77   38  161 1    
    78   38  162 1    
    79   38  163 1    
    80   39   40 am   BACKBONE|DICT|INTERRES
    81   39  164 1    
    82   40   41 2    
    83   40   42 1    
    84   42   43 1    
    85   42   44 1    
    86   42  165 1    
    87   43  166 1    
    88   43  167 1    
    89   43  168 1    
    90   44   45 am   BACKBONE|DICT|INTERRES
    91   44  169 1    
    92   45   46 2    
    93   45   47 1    
    94   47   48 1    
    95   47   49 1    
    96   47  170 1    
    97   48  171 1    
    98   48  172 1    
    99   48  173 1    
   100   49   50 am   BACKBONE|DICT|INTERRES
   101   49  174 1    
   102   50   51 2    
   103   50   52 1    
   104   52   53 1    
   105   52   54 1    
   106   52  175 1    
   107   53  176 1    
   108   53  177 1    
   109   53  178 1    
   110   54   55 am   BACKBONE|DICT|INTERRES
   111   54  179 1    
   112   55   56 2    
   113   55   57 1    
   114   57   58 1    
   115   57   59 1    
   116   57  180 1    
   117   58  181 1    
   118   58  182 1    
   119   58  183 1    
   120   59   60 am   BACKBONE|DICT|INTERRES
   121   59  184 1    
   122   60   61 2    
   123   60   62 1    
   124   62   63 1    
   125   62   64 1    
   126   62  185 1    
   127   63  186 1    
   128   63  187 1    
   129   63  188 1    
   130   64   65 am   BACKBONE|DICT|INTERRES
   131   64  189 1    
   132   65   66 2    
   133   67   68 2    
   134   67   69 am   BACKBONE|DICT|INTERRES
   135   69   70 1    
   136   69  190 1    
   137   70   71 1    
   138   70   72 1    
   139   70  191 1    
   140   71  192 1    
   141   71  193 1    
   142   71  194 1    
   143   72   73 2    
   144   72   74 am   BACKBONE|DICT|INTERRES
   145   74   75 1    
   146   74  195 1    
   147   75   76 1    
   148   75   77 1    
   149   75  196 1    
   150   76  197 1    
   151   76  198 1    
   152   76  199 1    
   153   77   78 2    
   154   77   79 am   BACKBONE|DICT|INTERRES
   155   79   80 1    
   156   79  200 1    
   157   80   81 1    
   158   80   82 1    
   159   80  201 1    
   160   81  202 1    
   161   81  203 1    
   162   81  204 1    
   163   82   83 2    
   164   82   84 am   BACKBONE|DICT|INTERRES
   165   84   85 1    
   166   84  205 1    
   167   85   86 1    
   168   85   87 1    
   169   85  206 1    
   170   86  207 1    
   171   86  208 1    
   172   86  209 1    
   173   87   88 2    
   174   87   89 am   BACKBONE|DICT|INTERRES
   175   89   90 1    
   176   89  210 1    
   177   90   91 1    
   178   90   92 1    
   179   90  211 1    
   180   91  212 1    
   181   91  213 1    
   182   91  214 1    
   183   92   93 2    
   184   92   94 am   BACKBONE|DICT|INTERRES
   185   94   95 1    
   186   94  215 1    
   187   95   96 1    
   188   95   97 1    
   189   95  216 1    
   190   96  217 1    
   191   96  218 1    
   192   96  219 1    
   193   97   98 2    
   194   97   99 am   BACKBONE|DICT|INTERRES
   195   99  100 1    
   196   99  220 1    
   197  100  101 1    
   198  100  102 1    
   199  100  221 1    
   200  101  222 1    
   201  101  223 1    
   202  101  224 1    
   203  102  103 2    
   204  102  104 am   BACKBONE|DICT|INTERRES
   205  104  105 1    
   206  104  225 1    
   207  105  106 1    
   208  105  107 1    
   209  105  226 1    
   210  106  227 1    
   211  106  228 1    
   212  106  229 1    
   213  107  108 2    
   214  107  109 am   BACKBONE|DICT|INTERRES
   215  109  110 1    
   216  109  230 1    
   217  110  111 1    
   218  110  112 1    
   219  110  231 1    
   220  111  232 1    
   221  111  233 1    
   222  111  234 1    
   223  112  113 2    
   224  112  114 am   BACKBONE|DICT|INTERRES
   225  114  115 1    
   226  114  235 1    
   227  115  116 1    
   228  115  117 1    
   229  115  236 1    
   230  116  237 1    
   231  116  238 1    
   232  116  239 1    
   233  117  118 2    
   234  117  119 am   BACKBONE|DICT|INTERRES
   235  119  120 1    
   236  119  240 1    
   237  120  121 1    
   238  120  124 1    
   239  120  241 1    
   240  121  122 am   BACKBONE|DICT|INTERRES
   241  121  123 2    
   242  122  242 1    
   243  122  243 1    
   244  124  125 1    
   245  124  244 1    
   246  124  245 1    
   247  125  126 1    
   248  126  246 1    
   249  126  247 1    
@<TRIPOS>SUBSTRUCTURE
     1 UNK         1 GROUP             0       ****    0 ROOT    
