@<TRIPOS>MOLECULE
3R540
247   249    1
SMALL
USER_CHARGES


@<TRIPOS>ATOM
      1 CA          6.0534   -9.7303  -45.9545 C.3       0 UNK        -0.1800 
      2 C           4.8479  -10.6476  -45.8167 C.2       0 UNK         0.5000 
      3 O           3.9196  -10.3243  -45.0791 O.2       0 UNK        -0.5000 
      4 N           4.8502  -11.7754  -46.5396 N.am      1 UNK        -0.5000 
      5 CA          3.8346  -12.8434  -46.5431 C.3       1 UNK         0.1400 
      6 C6          4.2838  -13.9656  -47.5134 C.3       23 UNK        -0.0398 
      7 S7          3.3400  -15.5258  -47.4156 S.3       23 UNK        -0.2404 
      8 C8          2.9383  -15.7585  -49.1748 C.3       23 UNK        -0.0205 
      9 C9          2.3447  -17.1278  -49.4706 C.ar      23 UNK        -0.0193 
     10 C10         1.0399  -17.2416  -49.9590 C.ar      23 UNK        -0.1150 
     11 C11         0.5276  -18.4873  -50.3356 C.ar      23 UNK        -0.0193 
     12 C12         1.3211  -19.6292  -50.1924 C.ar      23 UNK        -0.1150 
     13 C13         2.6202  -19.5315  -49.6859 C.ar      23 UNK        -0.0193 
     14 C14         3.1266  -18.2782  -49.3295 C.ar      23 UNK        -0.1150 
     15 C15         3.4948  -20.7707  -49.5660 C.3       23 UNK        -0.0205 
     16 S16         3.3721  -21.5372  -47.9215 S.3       23 UNK        -0.2404 
     17 C17         1.7398  -22.3427  -48.0276 C.3       23 UNK        -0.0398 
     18 CA          1.4929  -23.3195  -46.8518 C.3       11 UNK         0.1400 
     19 N           1.4908  -22.6394  -45.5543 N.am      11 UNK        -0.5000 
     20 C           1.7856  -23.2126  -44.3790 C.2       10 UNK         0.5000 
     21 O           2.1800  -24.3757  -44.2773 O.2       10 UNK        -0.5000 
     22 CA          1.5713  -22.3784  -43.0998 C.3       10 UNK         0.1400 
     23 CB          2.9040  -21.8015  -42.5999 C.3       10 UNK        -0.1800 
     24 N           0.6029  -21.2931  -43.2646 N.am      10 UNK        -0.5000 
     25 C          -0.7111  -21.4611  -43.4737 C.2       9 UNK         0.5000 
     26 O          -1.2663  -22.5599  -43.4819 O.2       9 UNK        -0.5000 
     27 CA         -1.5406  -20.1908  -43.7467 C.3       9 UNK         0.1400 
     28 CB         -2.1157  -19.6313  -42.4379 C.3       9 UNK        -0.1800 
     29 N          -0.7869  -19.1407  -44.4360 N.am      9 UNK        -0.5000 
     30 C          -0.2682  -19.2489  -45.6683 C.2       8 UNK         0.5000 
     31 O          -0.3947  -20.2479  -46.3729 O.2       8 UNK        -0.5000 
     32 CA          0.5725  -18.0644  -46.1734 C.3       8 UNK         0.1400 
     33 CB         -0.3231  -16.9473  -46.7314 C.3       8 UNK        -0.1800 
     34 N           1.4290  -17.5323  -45.1143 N.am      8 UNK        -0.5000 
     35 C           2.5314  -18.1459  -44.6614 C.2       7 UNK         0.5000 
     36 O           2.9746  -19.1915  -45.1333 O.2       7 UNK        -0.5000 
     37 CA          3.2333  -17.5119  -43.4466 C.3       7 UNK         0.1400 
     38 CB          4.2708  -16.4705  -43.8921 C.3       7 UNK        -0.1800 
     39 N           2.2854  -16.8962  -42.5167 N.am      7 UNK        -0.5000 
     40 C           1.4523  -17.5913  -41.7265 C.2       6 UNK         0.5000 
     41 O           1.4364  -18.8205  -41.6739 O.2       6 UNK        -0.5000 
     42 CA          0.4374  -16.7896  -40.8846 C.3       6 UNK         0.1400 
     43 CB          1.0345  -16.4416  -39.5133 C.3       6 UNK        -0.1800 
     44 N          -0.0135  -15.5598  -41.5364 N.am      6 UNK        -0.5000 
     45 C          -0.6324  -15.4988  -42.7235 C.2       5 UNK         0.5000 
     46 O          -1.0007  -16.4952  -43.3438 O.2       5 UNK        -0.5000 
     47 CA         -0.8230  -14.1051  -43.3552 C.3       5 UNK         0.1400 
     48 CB         -2.2797  -13.6425  -43.2083 C.3       5 UNK        -0.1800 
     49 N           0.0628  -13.0595  -42.8316 N.am      5 UNK        -0.5000 
     50 C           1.4025  -13.0809  -42.8322 C.2       4 UNK         0.5000 
     51 O           2.0710  -14.0436  -43.2117 O.2       4 UNK        -0.5000 
     52 CA          2.0949  -11.8061  -42.3187 C.3       4 UNK         0.1400 
     53 CB          3.6104  -11.9963  -42.1268 C.3       4 UNK        -0.1800 
     54 N           1.8720  -10.6997  -43.2439 N.am      4 UNK        -0.5000 
     55 C           0.7647   -9.9514  -43.3263 C.2       3 UNK         0.5000 
     56 O          -0.2086  -10.0906  -42.5838 O.2       3 UNK        -0.5000 
     57 CA          0.7310   -8.9000  -44.4459 C.3       3 UNK         0.1400 
     58 CB          1.6311   -7.7034  -44.0985 C.3       3 UNK        -0.1800 
     59 N           1.1735   -9.4871  -45.7103 N.am      3 UNK        -0.5000 
     60 C           0.3566   -9.9143  -46.6827 C.2       2 UNK         0.5000 
     61 O          -0.8692   -9.7996  -46.6459 O.2       2 UNK        -0.5000 
     62 CA          1.0110  -10.5824  -47.9107 C.3       2 UNK         0.1400 
     63 CB          1.2467   -9.5477  -49.0216 C.3       2 UNK        -0.1800 
     64 N           2.2780  -11.2517  -47.6090 N.am      2 UNK        -0.5000 
     65 C           2.3974  -12.3492  -46.8476 C.2       1 UNK         0.5000 
     66 O           1.4313  -12.9412  -46.3663 O.2       1 UNK        -0.5000 
     67 C           0.1707  -24.0984  -47.0045 C.2       11 UNK         0.5000 
     68 O          -0.6858  -23.7234  -47.8082 O.2       11 UNK        -0.5000 
     69 N           0.0225  -25.1575  -46.1952 N.am      12 UNK        -0.5000 
     70 CA         -1.1914  -25.9562  -46.0009 C.3       12 UNK         0.1400 
     71 CB         -0.8782  -27.1235  -45.0540 C.3       12 UNK        -0.1800 
     72 C          -1.8441  -26.4738  -47.2943 C.2       12 UNK         0.5000 
     73 O          -3.0703  -26.4852  -47.3859 O.2       12 UNK        -0.5000 
     74 N          -1.0185  -26.8428  -48.2831 N.am      13 UNK        -0.5000 
     75 CA         -1.4490  -27.3028  -49.6054 C.3       13 UNK         0.1400 
     76 CB         -0.2189  -27.7727  -50.3964 C.3       13 UNK        -0.1800 
     77 C          -2.2353  -26.2467  -50.4086 C.2       13 UNK         0.5000 
     78 O          -3.1039  -26.6187  -51.1980 O.2       13 UNK        -0.5000 
     79 N          -1.9307  -24.9610  -50.1859 N.am      14 UNK        -0.5000 
     80 CA         -2.6596  -23.8347  -50.7624 C.3       14 UNK         0.1400 
     81 CB         -1.6795  -22.6971  -51.0931 C.3       14 UNK        -0.1800 
     82 C          -3.7587  -23.3465  -49.8061 C.2       14 UNK         0.5000 
     83 O          -4.8644  -23.0563  -50.2574 O.2       14 UNK        -0.5000 
     84 N          -3.4409  -23.2650  -48.5064 N.am      15 UNK        -0.5000 
     85 CA         -4.3099  -22.7026  -47.4714 C.3       15 UNK         0.1400 
     86 CB         -3.4960  -22.4946  -46.1876 C.3       15 UNK        -0.1800 
     87 C          -5.5778  -23.5286  -47.1828 C.2       15 UNK         0.5000 
     88 O          -6.6150  -22.9405  -46.8749 O.2       15 UNK        -0.5000 
     89 N          -5.4868  -24.8628  -47.2818 N.am      16 UNK        -0.5000 
     90 CA         -6.6224  -25.7739  -47.1001 C.3       16 UNK         0.1400 
     91 CB         -6.0996  -27.1613  -46.6966 C.3       16 UNK        -0.1800 
     92 C          -7.5128  -25.8822  -48.3542 C.2       16 UNK         0.5000 
     93 O          -8.6422  -26.3643  -48.2535 O.2       16 UNK        -0.5000 
     94 N          -6.9901  -25.4510  -49.5072 N.am      17 UNK        -0.5000 
     95 CA         -7.6822  -25.4089  -50.7914 C.3       17 UNK         0.1400 
     96 CB         -6.6544  -25.7319  -51.8911 C.3       17 UNK        -0.1800 
     97 C          -8.3413  -24.0324  -51.0128 C.2       17 UNK         0.5000 
     98 O          -8.3170  -23.1719  -50.1283 O.2       17 UNK        -0.5000 
     99 N          -8.9247  -23.8429  -52.2031 N.am      18 UNK        -0.5000 
    100 CA        -9.3919  -22.5448  -52.6920 C.3       18 UNK         0.1400 
    101 CB       -10.2214  -22.7648  -53.9667 C.3       18 UNK        -0.1800 
    102 C         -8.2056  -21.6055  -52.9826 C.2       18 UNK         0.5000 
    103 O         -7.1151  -22.0833  -53.3023 O.2       18 UNK        -0.5000 
    104 N         -8.4480  -20.2886  -52.9180 N.am      19 UNK        -0.5000 
    105 CA        -7.4439  -19.2266  -53.0815 C.3       19 UNK         0.1400 
    106 CB        -8.1284  -17.8606  -52.9248 C.3       19 UNK        -0.1800 
    107 C         -6.6460  -19.2783  -54.4010 C.2       19 UNK         0.5000 
    108 O         -5.4942  -18.8434  -54.4305 O.2       19 UNK        -0.5000 
    109 N         -7.2480  -19.8593  -55.4486 N.am      20 UNK        -0.5000 
    110 CA        -6.6269  -20.1414  -56.7440 C.3       20 UNK         0.1400 
    111 CB        -7.6842  -20.7452  -57.6803 C.3       20 UNK        -0.1800 
    112 C         -5.3918  -21.0634  -56.6632 C.2       20 UNK         0.5000 
    113 O         -4.5111  -20.9588  -57.5179 O.2       20 UNK        -0.5000 
    114 N         -5.3111  -21.9113  -55.6249 N.am      21 UNK        -0.5000 
    115 CA        -4.1657  -22.7838  -55.3468 C.3       21 UNK         0.1400 
    116 CB        -4.5431  -23.7802  -54.2426 C.3       21 UNK        -0.1800 
    117 C         -2.8821  -22.0167  -54.9671 C.2       21 UNK         0.5000 
    118 O         -1.7916  -22.5752  -55.0898 O.2       21 UNK        -0.5000 
    119 N         -3.0247  -20.7521  -54.5456 N.am      22 UNK        -0.5000 
    120 CA        -1.9180  -19.7999  -54.3778 C.3       22 UNK         0.1400 
    121 C         -1.3569  -19.2472  -55.7290 C.2       22 UNK         0.5000 
    122 N         -2.0021  -19.4638  -56.8709 N.am      22 UNK        -0.7600 
    123 O         -0.2971  -18.6288  -55.7551 O.2       22 UNK        -0.5000 
    124 C124       -2.3165  -18.6687  -53.3909 C.3       23 UNK        -0.0398 
    125 S125       -0.8779  -17.8601  -52.6116 S.3       23 UNK        -0.2404 
    126 C126       -0.8619  -18.5922  -50.9452 C.3       23 UNK        -0.0205 
    127 H127        5.7391   -8.7514  -46.3162 H         1 UNK         0.0600 
    128 H128        6.7918  -10.1303  -46.6497 H         1 UNK         0.0600 
    129 H129        6.5342   -9.5982  -44.9853 H         1 UNK         0.0600 
    130 H130        5.6498  -11.9509  -47.1314 H         1 UNK         0.3000 
    131 H131        3.8146  -13.2561  -45.5322 H         1 UNK         0.0600 
    132 H132        4.2778  -13.5911  -48.5385 H         1 UNK         0.0800 
    133 H133        5.3219  -14.2297  -47.3058 H         1 UNK         0.0800 
    134 H134        3.8451  -15.6432  -49.7706 H         1 UNK         0.0800 
    135 H135        2.2579  -14.9653  -49.4891 H         1 UNK         0.0800 
    136 H136        0.4330  -16.3564  -50.0881 H         1 UNK         0.1150 
    137 H137        0.9346  -20.5934  -50.4913 H         1 UNK         0.1150 
    138 H138        4.1378  -18.1941  -48.9564 H         1 UNK         0.1150 
    139 H139        3.2354  -21.4989  -50.3359 H         1 UNK         0.0800 
    140 H140        4.5363  -20.5008  -49.7470 H         1 UNK         0.0800 
    141 H141        1.6860  -22.8782  -48.9771 H         1 UNK         0.0800 
    142 H142        0.9688  -21.5734  -48.0665 H         1 UNK         0.0800 
    143 H143        2.3012  -24.0540  -46.8665 H         1 UNK         0.0600 
    144 H144        1.1291  -21.6939  -45.5590 H         1 UNK         0.3000 
    145 H145        1.1869  -23.0538  -42.3329 H         1 UNK         0.0600 
    146 H146        2.7758  -21.2695  -41.6571 H         1 UNK         0.0600 
    147 H147        3.6327  -22.5946  -42.4278 H         1 UNK         0.0600 
    148 H148        3.3388  -21.1089  -43.3202 H         1 UNK         0.0600 
    149 H149        0.9644  -20.3493  -43.2020 H         1 UNK         0.3000 
    150 H150       -2.3760  -20.4694  -44.3899 H         1 UNK         0.0600 
    151 H151       -2.7555  -20.3668  -41.9487 H         1 UNK         0.0600 
    152 H152       -2.7195  -18.7415  -42.6173 H         1 UNK         0.0600 
    153 H153       -1.3261  -19.3671  -41.7353 H         1 UNK         0.0600 
    154 H154       -0.6940  -18.2527  -43.9494 H         1 UNK         0.3000 
    155 H155        1.2088  -18.4252  -46.9845 H         1 UNK         0.0600 
    156 H156       -1.0086  -16.5564  -45.9800 H         1 UNK         0.0600 
    157 H157        0.2726  -16.1147  -47.1061 H         1 UNK         0.0600 
    158 H158       -0.9251  -17.3156  -47.5628 H         1 UNK         0.0600 
    159 H159        1.1193  -16.6883  -44.6556 H         1 UNK         0.3000 
    160 H160        3.7626  -18.3076  -42.9178 H         1 UNK         0.0600 
    161 H161        3.8054  -15.6407  -44.4236 H         1 UNK         0.0600 
    162 H162        5.0066  -16.9155  -44.5630 H         1 UNK         0.0600 
    163 H163        4.8108  -16.0600  -43.0389 H         1 UNK         0.0600 
    164 H164        2.2123  -15.8832  -42.5533 H         1 UNK         0.3000 
    165 H165       -0.4382  -17.4210  -40.7257 H         1 UNK         0.0600 
    166 H166        0.3012  -15.9451  -38.8776 H         1 UNK         0.0600 
    167 H167        1.3602  -17.3417  -38.9900 H         1 UNK         0.0600 
    168 H168        1.9001  -15.7843  -39.6064 H         1 UNK         0.0600 
    169 H169        0.2536  -14.6908  -41.0991 H         1 UNK         0.3000 
    170 H170       -0.6026  -14.2076  -44.4199 H         1 UNK         0.0600 
    171 H171       -2.9690  -14.3817  -43.6190 H         1 UNK         0.0600 
    172 H172       -2.5478  -13.4875  -42.1625 H         1 UNK         0.0600 
    173 H173       -2.4521  -12.7077  -43.7423 H         1 UNK         0.0600 
    174 H174       -0.3840  -12.1991  -42.5350 H         1 UNK         0.3000 
    175 H175        1.6628  -11.5563  -41.3475 H         1 UNK         0.0600 
    176 H176        4.1075  -12.2560  -43.0623 H         1 UNK         0.0600 
    177 H177        4.0760  -11.0885  -41.7430 H         1 UNK         0.0600 
    178 H178        3.8163  -12.7952  -41.4134 H         1 UNK         0.0600 
    179 H179        2.6206  -10.5337  -43.9149 H         1 UNK         0.3000 
    180 H180       -0.2940   -8.5335  -44.5333 H         1 UNK         0.0600 
    181 H181        2.6778   -7.9952  -44.0029 H         1 UNK         0.0600 
    182 H182        1.3285   -7.2489  -43.1543 H         1 UNK         0.0600 
    183 H183        1.5693   -6.9314  -44.8656 H         1 UNK         0.0600 
    184 H184        2.1666   -9.6762  -45.7907 H         1 UNK         0.3000 
    185 H185        0.3133  -11.3338  -48.2867 H         1 UNK         0.0600 
    186 H186        1.6350  -10.0191  -49.9246 H         1 UNK         0.0600 
    187 H187        0.3163   -9.0468  -49.2925 H         1 UNK         0.0600 
    188 H188        1.9552   -8.7785  -48.7114 H         1 UNK         0.0600 
    189 H189        3.1185  -10.8152  -47.9584 H         1 UNK         0.3000 
    190 H190        0.7787  -25.3409  -45.5455 H         1 UNK         0.3000 
    191 H191       -1.9191  -25.3140  -45.5045 H         1 UNK         0.0600 
    192 H192       -0.1144  -27.7833  -45.4674 H         1 UNK         0.0600 
    193 H193       -1.7683  -27.7262  -44.8675 H         1 UNK         0.0600 
    194 H194       -0.5236  -26.7631  -44.0880 H         1 UNK         0.0600 
    195 H195       -0.0239  -26.7871  -48.1214 H         1 UNK         0.3000 
    196 H196       -2.1099  -28.1597  -49.4588 H         1 UNK         0.0600 
    197 H197       -0.5065  -28.1467  -51.3799 H         1 UNK         0.0600 
    198 H198        0.2969  -28.5828  -49.8805 H         1 UNK         0.0600 
    199 H199        0.4946  -26.9619  -50.5492 H         1 UNK         0.0600 
    200 H200       -1.2451  -24.7364  -49.4738 H         1 UNK         0.3000 
    201 H201       -3.1369  -24.1409  -51.6942 H         1 UNK         0.0600 
    202 H202       -0.9206  -23.0260  -51.8032 H         1 UNK         0.0600 
    203 H203       -1.1690  -22.3271  -50.2029 H         1 UNK         0.0600 
    204 H204       -2.2036  -21.8556  -51.5481 H         1 UNK         0.0600 
    205 H205       -2.4930  -23.4977  -48.2219 H         1 UNK         0.3000 
    206 H206       -4.6356  -21.7205  -47.8209 H         1 UNK         0.0600 
    207 H207       -2.6108  -21.8874  -46.3766 H         1 UNK         0.0600 
    208 H208       -4.0891  -21.9846  -45.4278 H         1 UNK         0.0600 
    209 H209       -3.1659  -23.4408  -45.7622 H         1 UNK         0.0600 
    210 H210       -4.5899  -25.2932  -47.4924 H         1 UNK         0.3000 
    211 H211       -7.2467  -25.4026  -46.2846 H         1 UNK         0.0600 
    212 H212       -5.5129  -27.6171  -47.4952 H         1 UNK         0.0600 
    213 H213       -6.9239  -27.8385  -46.4697 H         1 UNK         0.0600 
    214 H214       -5.4710  -27.1047  -45.8077 H         1 UNK         0.0600 
    215 H215       -6.0984  -24.9764  -49.4747 H         1 UNK         0.3000 
    216 H216       -8.4677  -26.1668  -50.8174 H         1 UNK         0.0600 
    217 H217       -6.1682  -26.6901  -51.7065 H         1 UNK         0.0600 
    218 H218       -5.8748  -24.9721  -51.9422 H         1 UNK         0.0600 
    219 H219       -7.1197  -25.7939  -52.8750 H         1 UNK         0.0600 
    220 H220       -8.8869  -24.5857  -52.8850 H         1 UNK         0.3000 
    221 H221      -10.0264  -22.0898  -51.9285 H         1 UNK         0.0600 
    222 H222       -9.6251  -23.2115  -54.7636 H         1 UNK         0.0600 
    223 H223      -11.0716  -23.4200  -53.7760 H         1 UNK         0.0600 
    224 H224      -10.6189  -21.8218  -54.3442 H         1 UNK         0.0600 
    225 H225       -9.3788  -19.9811  -52.6751 H         1 UNK         0.3000 
    226 H226       -6.7218  -19.3405  -52.2704 H         1 UNK         0.0600 
    227 H227       -8.6010  -17.7646  -51.9472 H         1 UNK         0.0600 
    228 H228       -7.4060  -17.0480  -53.0149 H         1 UNK         0.0600 
    229 H229       -8.8939  -17.7053  -53.6861 H         1 UNK         0.0600 
    230 H230       -8.1910  -20.1943  -55.3205 H         1 UNK         0.3000 
    231 H231       -6.2961  -19.1900  -57.1654 H         1 UNK         0.0600 
    232 H232       -7.2641  -20.9466  -58.6667 H         1 UNK         0.0600 
    233 H233       -8.5240  -20.0641  -57.8197 H         1 UNK         0.0600 
    234 H234       -8.0747  -21.6864  -57.2910 H         1 UNK         0.0600 
    235 H235       -6.0546  -21.9198  -54.9314 H         1 UNK         0.3000 
    236 H236       -3.9504  -23.3500  -56.2552 H         1 UNK         0.0600 
    237 H237       -5.4385  -24.3432  -54.5061 H         1 UNK         0.0600 
    238 H238       -3.7426  -24.5016  -54.0746 H         1 UNK         0.0600 
    239 H239       -4.7327  -23.2710  -53.2972 H         1 UNK         0.0600 
    240 H240       -3.9563  -20.3573  -54.4951 H         1 UNK         0.3000 
    241 H241       -1.0971  -20.3546  -53.9187 H         1 UNK         0.0600 
    242 H242       -2.8636  -19.9966  -56.9081 H         1 UNK         0.3800 
    243 H243       -1.6098  -19.1047  -57.7268 H         1 UNK         0.3800 
    244 H244       -2.9162  -17.9100  -53.8965 H         1 UNK         0.0800 
    245 H245       -2.9544  -19.0643  -52.5989 H         1 UNK         0.0800 
    246 H246       -1.5868  -18.0797  -50.3112 H         1 UNK         0.0800 
    247 H247       -1.1735  -19.6361  -50.9984 H         1 UNK         0.0800 
@<TRIPOS>BOND
     1    1    2 1    
     2    1  127 1    
     3    1  128 1    
     4    1  129 1    
     5    2    3 2    
     6    2    4 am   BACKBONE|DICT|INTERRES
     7    4    5 1    
     8    4  130 1    
     9    5    6 1    
    10    5   65 1    
    11    5  131 1    
    12    6    7 1    
    13    6  132 1    
    14    6  133 1    
    15    7    8 1    
    16    8    9 1    
    17    8  134 1    
    18    8  135 1    
    19    9   10 ar   
    20    9   14 ar   
    21   10   11 ar   
    22   10  136 1    
    23   11   12 ar   
    24   11  126 1    
    25   12   13 ar   
    26   12  137 1    
    27   13   14 ar   
    28   13   15 1    
    29   14  138 1    
    30   15   16 1    
    31   15  139 1    
    32   15  140 1    
    33   16   17 1    
    34   17   18 1    
    35   17  141 1    
    36   17  142 1    
    37   18   19 1    
    38   18   67 1    
    39   18  143 1    
    40   19   20 am   BACKBONE|DICT|INTERRES
    41   19  144 1    
    42   20   21 2    
    43   20   22 1    
    44   22   23 1    
    45   22   24 1    
    46   22  145 1    
    47   23  146 1    
    48   23  147 1    
    49   23  148 1    
    50   24   25 am   BACKBONE|DICT|INTERRES
    51   24  149 1    
    52   25   26 2    
    53   25   27 1    
    54   27   28 1    
    55   27   29 1    
    56   27  150 1    
    57   28  151 1    
    58   28  152 1    
    59   28  153 1    
    60   29   30 am   BACKBONE|DICT|INTERRES
    61   29  154 1    
    62   30   31 2    
    63   30   32 1    
    64   32   33 1    
    65   32   34 1    
    66   32  155 1    
    67   33  156 1    
    68   33  157 1    
    69   33  158 1    
    70   34   35 am   BACKBONE|DICT|INTERRES
    71   34  159 1    
    72   35   36 2    
    73   35   37 1    
    74   37   38 1    
    75   37   39 1    
    76   37  160 1    
    77   38  161 1    
    78   38  162 1    
    79   38  163 1    
    80   39   40 am   BACKBONE|DICT|INTERRES
    81   39  164 1    
    82   40   41 2    
    83   40   42 1    
    84   42   43 1    
    85   42   44 1    
    86   42  165 1    
    87   43  166 1    
    88   43  167 1    
    89   43  168 1    
    90   44   45 am   BACKBONE|DICT|INTERRES
    91   44  169 1    
    92   45   46 2    
    93   45   47 1    
    94   47   48 1    
    95   47   49 1    
    96   47  170 1    
    97   48  171 1    
    98   48  172 1    
    99   48  173 1    
   100   49   50 am   BACKBONE|DICT|INTERRES
   101   49  174 1    
   102   50   51 2    
   103   50   52 1    
   104   52   53 1    
   105   52   54 1    
   106   52  175 1    
   107   53  176 1    
   108   53  177 1    
   109   53  178 1    
   110   54   55 am   BACKBONE|DICT|INTERRES
   111   54  179 1    
   112   55   56 2    
   113   55   57 1    
   114   57   58 1    
   115   57   59 1    
   116   57  180 1    
   117   58  181 1    
   118   58  182 1    
   119   58  183 1    
   120   59   60 am   BACKBONE|DICT|INTERRES
   121   59  184 1    
   122   60   61 2    
   123   60   62 1    
   124   62   63 1    
   125   62   64 1    
   126   62  185 1    
   127   63  186 1    
   128   63  187 1    
   129   63  188 1    
   130   64   65 am   BACKBONE|DICT|INTERRES
   131   64  189 1    
   132   65   66 2    
   133   67   68 2    
   134   67   69 am   BACKBONE|DICT|INTERRES
   135   69   70 1    
   136   69  190 1    
   137   70   71 1    
   138   70   72 1    
   139   70  191 1    
   140   71  192 1    
   141   71  193 1    
   142   71  194 1    
   143   72   73 2    
   144   72   74 am   BACKBONE|DICT|INTERRES
   145   74   75 1    
   146   74  195 1    
   147   75   76 1    
   148   75   77 1    
   149   75  196 1    
   150   76  197 1    
   151   76  198 1    
   152   76  199 1    
   153   77   78 2    
   154   77   79 am   BACKBONE|DICT|INTERRES
   155   79   80 1    
   156   79  200 1    
   157   80   81 1    
   158   80   82 1    
   159   80  201 1    
   160   81  202 1    
   161   81  203 1    
   162   81  204 1    
   163   82   83 2    
   164   82   84 am   BACKBONE|DICT|INTERRES
   165   84   85 1    
   166   84  205 1    
   167   85   86 1    
   168   85   87 1    
   169   85  206 1    
   170   86  207 1    
   171   86  208 1    
   172   86  209 1    
   173   87   88 2    
   174   87   89 am   BACKBONE|DICT|INTERRES
   175   89   90 1    
   176   89  210 1    
   177   90   91 1    
   178   90   92 1    
   179   90  211 1    
   180   91  212 1    
   181   91  213 1    
   182   91  214 1    
   183   92   93 2    
   184   92   94 am   BACKBONE|DICT|INTERRES
   185   94   95 1    
   186   94  215 1    
   187   95   96 1    
   188   95   97 1    
   189   95  216 1    
   190   96  217 1    
   191   96  218 1    
   192   96  219 1    
   193   97   98 2    
   194   97   99 am   BACKBONE|DICT|INTERRES
   195   99  100 1    
   196   99  220 1    
   197  100  101 1    
   198  100  102 1    
   199  100  221 1    
   200  101  222 1    
   201  101  223 1    
   202  101  224 1    
   203  102  103 2    
   204  102  104 am   BACKBONE|DICT|INTERRES
   205  104  105 1    
   206  104  225 1    
   207  105  106 1    
   208  105  107 1    
   209  105  226 1    
   210  106  227 1    
   211  106  228 1    
   212  106  229 1    
   213  107  108 2    
   214  107  109 am   BACKBONE|DICT|INTERRES
   215  109  110 1    
   216  109  230 1    
   217  110  111 1    
   218  110  112 1    
   219  110  231 1    
   220  111  232 1    
   221  111  233 1    
   222  111  234 1    
   223  112  113 2    
   224  112  114 am   BACKBONE|DICT|INTERRES
   225  114  115 1    
   226  114  235 1    
   227  115  116 1    
   228  115  117 1    
   229  115  236 1    
   230  116  237 1    
   231  116  238 1    
   232  116  239 1    
   233  117  118 2    
   234  117  119 am   BACKBONE|DICT|INTERRES
   235  119  120 1    
   236  119  240 1    
   237  120  121 1    
   238  120  124 1    
   239  120  241 1    
   240  121  122 am   BACKBONE|DICT|INTERRES
   241  121  123 2    
   242  122  242 1    
   243  122  243 1    
   244  124  125 1    
   245  124  244 1    
   246  124  245 1    
   247  125  126 1    
   248  126  246 1    
   249  126  247 1    
@<TRIPOS>SUBSTRUCTURE
     1 UNK         1 GROUP             0       ****    0 ROOT    
