@<TRIPOS>MOLECULE
3R540
247   249    1
SMALL
USER_CHARGES


@<TRIPOS>ATOM
      1 CA         -0.2813  -13.4715  -50.9754 C.3       0 UNK        -0.1800 
      2 C           0.9378  -13.4367  -50.0676 C.2       0 UNK         0.5000 
      3 O           0.8341  -13.7630  -48.8855 O.2       0 UNK        -0.5000 
      4 N           2.0879  -13.0310  -50.6190 N.am      1 UNK        -0.5000 
      5 CA          3.4049  -12.8857  -49.9794 C.3       1 UNK         0.1400 
      6 C6          4.0192  -14.1886  -49.3822 C.3       23 UNK        -0.0398 
      7 S7          3.7131  -15.7169  -50.3416 S.3       23 UNK        -0.2404 
      8 C8          2.8069  -16.6681  -49.0802 C.3       23 UNK        -0.0205 
      9 C9          2.0336  -17.8424  -49.6530 C.ar      23 UNK        -0.0193 
     10 C10         0.7920  -17.6330  -50.2591 C.ar      23 UNK        -0.1150 
     11 C11         0.0098  -18.7166  -50.6669 C.ar      23 UNK        -0.0193 
     12 C12         0.4888  -20.0171  -50.4797 C.ar      23 UNK        -0.1150 
     13 C13         1.7409  -20.2399  -49.8975 C.ar      23 UNK        -0.0193 
     14 C14         2.5147  -19.1447  -49.4993 C.ar      23 UNK        -0.1150 
     15 C15         2.2351  -21.6674  -49.6810 C.3       23 UNK        -0.0205 
     16 S16         2.8590  -21.9909  -47.9918 S.3       23 UNK        -0.2404 
     17 C17         1.4851  -21.4122  -46.9367 C.3       23 UNK        -0.0398 
     18 CA          0.5487  -22.5400  -46.4472 C.3       11 UNK         0.1400 
     19 N          -0.2686  -22.0906  -45.3188 N.am      11 UNK        -0.5000 
     20 C          -1.0963  -22.8618  -44.6015 C.2       10 UNK         0.5000 
     21 O          -1.2122  -24.0764  -44.7591 O.2       10 UNK        -0.5000 
     22 CA         -1.9805  -22.1412  -43.5693 C.3       10 UNK         0.1400 
     23 CB         -1.2238  -21.9261  -42.2502 C.3       10 UNK        -0.1800 
     24 N          -2.4704  -20.8578  -44.0756 N.am      10 UNK        -0.5000 
     25 C          -3.3935  -20.7326  -45.0404 C.2       9 UNK         0.5000 
     26 O          -3.9589  -21.6881  -45.5710 O.2       9 UNK        -0.5000 
     27 CA         -3.7069  -19.3034  -45.5223 C.3       9 UNK         0.1400 
     28 CB         -4.7377  -18.6311  -44.6039 C.3       9 UNK        -0.1800 
     29 N          -2.5153  -18.4590  -45.6140 N.am      9 UNK        -0.5000 
     30 C          -1.5040  -18.6790  -46.4652 C.2       8 UNK         0.5000 
     31 O          -1.4666  -19.6260  -47.2482 O.2       8 UNK        -0.5000 
     32 CA         -0.3077  -17.7160  -46.3801 C.3       8 UNK         0.1400 
     33 CB         -0.6008  -16.4220  -47.1454 C.3       8 UNK        -0.1800 
     34 N           0.0797  -17.3702  -45.0128 N.am      8 UNK        -0.5000 
     35 C           0.4467  -18.2394  -44.0598 C.2       7 UNK         0.5000 
     36 O           0.3786  -19.4632  -44.1889 O.2       7 UNK        -0.5000 
     37 CA          0.9984  -17.6169  -42.7593 C.3       7 UNK         0.1400 
     38 CB          1.7086  -18.6384  -41.8477 C.3       7 UNK        -0.1800 
     39 N           1.8598  -16.4618  -43.0353 N.am      7 UNK        -0.5000 
     40 C           2.9914  -16.4431  -43.7589 C.2       6 UNK         0.5000 
     41 O           3.5593  -17.4535  -44.1744 O.2       6 UNK        -0.5000 
     42 CA          3.5699  -15.0614  -44.1214 C.3       6 UNK         0.1400 
     43 CB          3.4535  -14.8235  -45.6356 C.3       6 UNK        -0.1800 
     44 N           2.8896  -13.9699  -43.4213 N.am      6 UNK        -0.5000 
     45 C           3.2819  -13.4557  -42.2475 C.2       5 UNK         0.5000 
     46 O           4.3150  -13.7894  -41.6666 O.2       5 UNK        -0.5000 
     47 CA          2.3545  -12.4111  -41.5952 C.3       5 UNK         0.1400 
     48 CB          2.8518  -10.9862  -41.8785 C.3       5 UNK        -0.1800 
     49 N           0.9589  -12.5374  -42.0252 N.am      5 UNK        -0.5000 
     50 C           0.1391  -13.5218  -41.6267 C.2       4 UNK         0.5000 
     51 O           0.4761  -14.4118  -40.8462 O.2       4 UNK        -0.5000 
     52 CA         -1.2783  -13.5556  -42.2300 C.3       4 UNK         0.1400 
     53 CB         -2.2670  -12.8093  -41.3222 C.3       4 UNK        -0.1800 
     54 N          -1.3626  -13.0059  -43.5839 N.am      4 UNK        -0.5000 
     55 C          -0.7150  -13.4820  -44.6550 C.2       3 UNK         0.5000 
     56 O           0.0509  -14.4480  -44.6084 O.2       3 UNK        -0.5000 
     57 CA         -0.9312  -12.7522  -45.9971 C.3       3 UNK         0.1400 
     58 CB         -1.9935  -11.6311  -45.9518 C.3       3 UNK        -0.1800 
     59 N           0.3265  -12.2399  -46.5455 N.am      3 UNK        -0.5000 
     60 C           1.1826  -11.3843  -45.9606 C.2       2 UNK         0.5000 
     61 O           1.0041  -10.9166  -44.8348 O.2       2 UNK        -0.5000 
     62 CA          2.4497  -10.9921  -46.7520 C.3       2 UNK         0.1400 
     63 CB          3.6829  -10.8219  -45.8427 C.3       2 UNK        -0.1800 
     64 N           2.7237  -11.9548  -47.8180 N.am      2 UNK        -0.5000 
     65 C           3.4002  -11.7310  -48.9508 C.2       1 UNK         0.5000 
     66 O           3.9673  -10.6703  -49.2163 O.2       1 UNK        -0.5000 
     67 C          -0.3264  -23.1044  -47.5869 C.2       11 UNK         0.5000 
     68 O          -0.0664  -24.2095  -48.0633 O.2       11 UNK        -0.5000 
     69 N          -1.3791  -22.3667  -47.9663 N.am      12 UNK        -0.5000 
     70 CA         -2.3668  -22.7939  -48.9545 C.3       12 UNK         0.1400 
     71 CB         -3.3134  -21.6380  -49.2872 C.3       12 UNK        -0.1800 
     72 C          -3.1597  -24.0336  -48.5100 C.2       12 UNK         0.5000 
     73 O          -3.3544  -24.9375  -49.3194 O.2       12 UNK        -0.5000 
     74 N          -3.5658  -24.0886  -47.2334 N.am      13 UNK        -0.5000 
     75 CA         -4.2446  -25.2443  -46.6400 C.3       13 UNK         0.1400 
     76 CB         -4.7128  -24.9038  -45.2177 C.3       13 UNK        -0.1800 
     77 C          -3.3783  -26.5189  -46.6413 C.2       13 UNK         0.5000 
     78 O          -3.9020  -27.6034  -46.8971 O.2       13 UNK        -0.5000 
     79 N          -2.0704  -26.3621  -46.3926 N.am      14 UNK        -0.5000 
     80 CA         -1.0753  -27.4300  -46.4873 C.3       14 UNK         0.1400 
     81 CB          0.2321  -26.9767  -45.8198 C.3       14 UNK        -0.1800 
     82 C          -0.8261  -27.8811  -47.9396 C.2       14 UNK         0.5000 
     83 O          -0.6657  -29.0790  -48.1775 O.2       14 UNK        -0.5000 
     84 N          -0.8100  -26.9260  -48.8819 N.am      15 UNK        -0.5000 
     85 CA         -0.6735  -27.1768  -50.3191 C.3       15 UNK         0.1400 
     86 CB         -0.4101  -25.8539  -51.0559 C.3       15 UNK        -0.1800 
     87 C          -1.8934  -27.9038  -50.9185 C.2       15 UNK         0.5000 
     88 O          -1.7104  -28.7826  -51.7609 O.2       15 UNK        -0.5000 
     89 N          -3.0959  -27.5360  -50.4488 N.am      16 UNK        -0.5000 
     90 CA         -4.4090  -28.1112  -50.7606 C.3       16 UNK         0.1400 
     91 CB         -4.5075  -29.5412  -50.1897 C.3       16 UNK        -0.1800 
     92 C          -4.7437  -28.0491  -52.2711 C.2       16 UNK         0.5000 
     93 O          -4.6662  -29.0711  -52.9533 O.2       16 UNK        -0.5000 
     94 N          -5.0951  -26.8820  -52.8279 N.am      17 UNK        -0.5000 
     95 CA         -5.3017  -25.5886  -52.1772 C.3       17 UNK         0.1400 
     96 CB         -6.7821  -25.4373  -51.7802 C.3       17 UNK        -0.1800 
     97 C          -4.8007  -24.4831  -53.1181 C.2       17 UNK         0.5000 
     98 O          -5.5762  -23.6308  -53.5552 O.2       17 UNK        -0.5000 
     99 N          -3.5084  -24.5659  -53.4602 N.am      18 UNK        -0.5000 
    100 CA        -2.8131  -23.6840  -54.3964 C.3       18 UNK         0.1400 
    101 CB        -1.3571  -24.1554  -54.5397 C.3       18 UNK        -0.1800 
    102 C         -2.8691  -22.2022  -53.9785 C.2       18 UNK         0.5000 
    103 O         -2.3354  -21.8468  -52.9261 O.2       18 UNK        -0.5000 
    104 N         -3.5109  -21.3836  -54.8257 N.am      19 UNK        -0.5000 
    105 CA        -3.6418  -19.9244  -54.7344 C.3       19 UNK         0.1400 
    106 CB        -2.2748  -19.2519  -54.9833 C.3       19 UNK        -0.1800 
    107 C         -4.3261  -19.4218  -53.4443 C.2       19 UNK         0.5000 
    108 O         -4.0284  -18.3155  -52.9951 O.2       19 UNK        -0.5000 
    109 N         -5.2481  -20.2241  -52.8874 N.am      20 UNK        -0.5000 
    110 CA        -5.8931  -20.0508  -51.5759 C.3       20 UNK         0.1400 
    111 CB        -6.8172  -21.2492  -51.3137 C.3       20 UNK        -0.1800 
    112 C         -6.6310  -18.7196  -51.3163 C.2       20 UNK         0.5000 
    113 O         -6.9517  -18.4267  -50.1626 O.2       20 UNK        -0.5000 
    114 N         -6.8276  -17.9023  -52.3596 N.am      21 UNK        -0.5000 
    115 CA        -7.2395  -16.4975  -52.2806 C.3       21 UNK         0.1400 
    116 CB        -7.3763  -15.9435  -53.7070 C.3       21 UNK        -0.1800 
    117 C         -6.2892  -15.6087  -51.4427 C.2       21 UNK         0.5000 
    118 O         -6.7115  -14.5448  -50.9880 O.2       21 UNK        -0.5000 
    119 N         -5.0467  -16.0657  -51.2247 N.am      22 UNK        -0.5000 
    120 CA        -4.0918  -15.5080  -50.2541 C.3       22 UNK         0.1400 
    121 C         -4.5398  -15.5697  -48.7595 C.2       22 UNK         0.5000 
    122 N         -5.5211  -16.3853  -48.3864 N.am      22 UNK        -0.7600 
    123 O         -3.9912  -14.8526  -47.9273 O.2       22 UNK        -0.5000 
    124 C124       -2.6763  -16.1125  -50.4425 C.3       23 UNK        -0.0398 
    125 S125       -2.5920  -17.9096  -50.1020 S.3       23 UNK        -0.2404 
    126 C126       -1.3523  -18.4894  -51.3056 C.3       23 UNK        -0.0205 
    127 H127       -0.2062  -12.7283  -51.7694 H         1 UNK         0.0600 
    128 H128       -1.1870  -13.2648  -50.4051 H         1 UNK         0.0600 
    129 H129       -0.3746  -14.4548  -51.4346 H         1 UNK         0.0600 
    130 H130        2.0754  -12.7686  -51.5945 H         1 UNK         0.3000 
    131 H131        4.0683  -12.5747  -50.7882 H         1 UNK         0.0600 
    132 H132        5.0995  -14.0677  -49.2885 H         1 UNK         0.0800 
    133 H133        3.6663  -14.3521  -48.3662 H         1 UNK         0.0800 
    134 H134        3.5111  -17.0101  -48.3203 H         1 UNK         0.0800 
    135 H135        2.1006  -16.0191  -48.5637 H         1 UNK         0.0800 
    136 H136        0.4182  -16.6264  -50.3789 H         1 UNK         0.1150 
    137 H137       -0.1206  -20.8575  -50.7832 H         1 UNK         0.1150 
    138 H138        3.4741  -19.3095  -49.0296 H         1 UNK         0.1150 
    139 H139        1.4433  -22.3850  -49.9014 H         1 UNK         0.0800 
    140 H140        3.0355  -21.8699  -50.3934 H         1 UNK         0.0800 
    141 H141        0.9215  -20.6244  -47.4336 H         1 UNK         0.0800 
    142 H142        1.9482  -20.9297  -46.0747 H         1 UNK         0.0800 
    143 H143        1.1690  -23.3584  -46.0755 H         1 UNK         0.0600 
    144 H144       -0.2072  -21.1052  -45.0798 H         1 UNK         0.3000 
    145 H145       -2.8428  -22.7782  -43.3622 H         1 UNK         0.0600 
    146 H146       -1.8561  -21.4415  -41.5062 H         1 UNK         0.0600 
    147 H147       -0.8994  -22.8790  -41.8303 H         1 UNK         0.0600 
    148 H148       -0.3345  -21.3115  -42.3879 H         1 UNK         0.0600 
    149 H149       -2.0055  -20.0282  -43.7373 H         1 UNK         0.3000 
    150 H150       -4.1397  -19.3788  -46.5225 H         1 UNK         0.0600 
    151 H151       -5.6468  -19.2300  -44.5350 H         1 UNK         0.0600 
    152 H152       -5.0239  -17.6505  -44.9846 H         1 UNK         0.0600 
    153 H153       -4.3527  -18.5001  -43.5919 H         1 UNK         0.0600 
    154 H154       -2.4610  -17.6657  -44.9929 H         1 UNK         0.3000 
    155 H155        0.5494  -18.2033  -46.8489 H         1 UNK         0.0600 
    156 H156        0.2301  -15.7208  -47.0777 H         1 UNK         0.0600 
    157 H157       -1.4955  -15.9235  -46.7715 H         1 UNK         0.0600 
    158 H158       -0.7586  -16.6327  -48.1990 H         1 UNK         0.0600 
    159 H159        0.1605  -16.3765  -44.8150 H         1 UNK         0.3000 
    160 H160        0.1358  -17.2314  -42.2140 H         1 UNK         0.0600 
    161 H161        2.5368  -19.1321  -42.3565 H         1 UNK         0.0600 
    162 H162        1.0170  -19.4157  -41.5220 H         1 UNK         0.0600 
    163 H163        2.1022  -18.1592  -40.9514 H         1 UNK         0.0600 
    164 H164        1.4895  -15.5696  -42.7398 H         1 UNK         0.3000 
    165 H165        4.6301  -15.0721  -43.8607 H         1 UNK         0.0600 
    166 H166        3.9615  -13.9066  -45.9285 H         1 UNK         0.0600 
    167 H167        3.9182  -15.6358  -46.1956 H         1 UNK         0.0600 
    168 H168        2.4140  -14.7557  -45.9587 H         1 UNK         0.0600 
    169 H169        2.0082  -13.6668  -43.8154 H         1 UNK         0.3000 
    170 H170        2.3944  -12.5692  -40.5152 H         1 UNK         0.0600 
    171 H171        3.8711  -10.8496  -41.5155 H         1 UNK         0.0600 
    172 H172        2.8531  -10.7642  -42.9445 H         1 UNK         0.0600 
    173 H173        2.2275  -10.2436  -41.3816 H         1 UNK         0.0600 
    174 H174        0.6295  -11.8654  -42.7074 H         1 UNK         0.3000 
    175 H175       -1.5850  -14.6025  -42.2809 H         1 UNK         0.0600 
    176 H176       -2.0298  -11.7466  -41.2572 H         1 UNK         0.0600 
    177 H177       -3.2892  -12.9043  -41.6889 H         1 UNK         0.0600 
    178 H178       -2.2483  -13.2125  -40.3087 H         1 UNK         0.0600 
    179 H179       -1.9509  -12.1943  -43.7041 H         1 UNK         0.3000 
    180 H180       -1.2854  -13.5073  -46.6997 H         1 UNK         0.0600 
    181 H181       -1.7139  -10.8209  -45.2774 H         1 UNK         0.0600 
    182 H182       -2.9622  -12.0177  -45.6324 H         1 UNK         0.0600 
    183 H183       -2.1377  -11.1974  -46.9415 H         1 UNK         0.0600 
    184 H184        0.5496  -12.6135  -47.4636 H         1 UNK         0.3000 
    185 H185        2.2313  -10.0281  -47.2156 H         1 UNK         0.0600 
    186 H186        4.5807  -10.6006  -46.4195 H         1 UNK         0.0600 
    187 H187        3.5393   -9.9936  -45.1485 H         1 UNK         0.0600 
    188 H188        3.8760  -11.7145  -45.2489 H         1 UNK         0.0600 
    189 H189        2.2353  -12.8399  -47.7465 H         1 UNK         0.3000 
    190 H190       -1.5015  -21.4357  -47.5716 H         1 UNK         0.3000 
    191 H191       -1.8289  -23.0545  -49.8683 H         1 UNK         0.0600 
    192 H192       -2.7662  -20.8050  -49.7260 H         1 UNK         0.0600 
    193 H193       -4.0596  -21.9575  -50.0144 H         1 UNK         0.0600 
    194 H194       -3.8383  -21.2712  -48.4047 H         1 UNK         0.0600 
    195 H195       -3.4241  -23.2827  -46.6324 H         1 UNK         0.3000 
    196 H196       -5.1301  -25.4500  -47.2449 H         1 UNK         0.0600 
    197 H197       -5.2485  -25.7429  -44.7722 H         1 UNK         0.0600 
    198 H198       -5.3906  -24.0501  -45.2191 H         1 UNK         0.0600 
    199 H199       -3.8744  -24.6662  -44.5636 H         1 UNK         0.0600 
    200 H200       -1.7304  -25.4438  -46.1242 H         1 UNK         0.3000 
    201 H201       -1.4531  -28.2919  -45.9333 H         1 UNK         0.0600 
    202 H202        0.0711  -26.7221  -44.7721 H         1 UNK         0.0600 
    203 H203        0.6572  -26.1026  -46.3131 H         1 UNK         0.0600 
    204 H204        0.9814  -27.7686  -45.8515 H         1 UNK         0.0600 
    205 H205       -0.8721  -25.9554  -48.5908 H         1 UNK         0.3000 
    206 H206        0.1984  -27.8187  -50.4615 H         1 UNK         0.0600 
    207 H207        0.4683  -25.3467  -50.6563 H         1 UNK         0.0600 
    208 H208       -0.2280  -26.0322  -52.1161 H         1 UNK         0.0600 
    209 H209       -1.2545  -25.1696  -50.9789 H         1 UNK         0.0600 
    210 H210       -3.1172  -26.7391  -49.8167 H         1 UNK         0.3000 
    211 H211       -5.1504  -27.5158  -50.2275 H         1 UNK         0.0600 
    212 H212       -3.7847  -30.2172  -50.6476 H         1 UNK         0.0600 
    213 H213       -5.5002  -29.9599  -50.3580 H         1 UNK         0.0600 
    214 H214       -4.3307  -29.5451  -49.1138 H         1 UNK         0.0600 
    215 H215       -5.2561  -26.8699  -53.8252 H         1 UNK         0.3000 
    216 H216       -4.6993  -25.5082  -51.2785 H         1 UNK         0.0600 
    217 H217       -7.0922  -26.2224  -51.0910 H         1 UNK         0.0600 
    218 H218       -7.4377  -25.4806  -52.6507 H         1 UNK         0.0600 
    219 H219       -6.9584  -24.4841  -51.2816 H         1 UNK         0.0600 
    220 H220       -2.9555  -25.3060  -53.0555 H         1 UNK         0.3000 
    221 H221       -3.2977  -23.7959  -55.3685 H         1 UNK         0.0600 
    222 H222       -0.8178  -24.0891  -53.5940 H         1 UNK         0.0600 
    223 H223       -1.3056  -25.1880  -54.8854 H         1 UNK         0.0600 
    224 H224       -0.8197  -23.5429  -55.2649 H         1 UNK         0.0600 
    225 H225       -3.9467  -21.7985  -55.6377 H         1 UNK         0.3000 
    226 H226       -4.3026  -19.6278  -55.5499 H         1 UNK         0.0600 
    227 H227       -1.8456  -19.5741  -55.9319 H         1 UNK         0.0600 
    228 H228       -2.3687  -18.1662  -55.0259 H         1 UNK         0.0600 
    229 H229       -1.5583  -19.4882  -54.1966 H         1 UNK         0.0600 
    230 H230       -5.4231  -21.1103  -53.3428 H         1 UNK         0.3000 
    231 H231       -5.0915  -20.0740  -50.8378 H         1 UNK         0.0600 
    232 H232       -7.3137  -21.1650  -50.3460 H         1 UNK         0.0600 
    233 H233       -6.2524  -22.1804  -51.3022 H         1 UNK         0.0600 
    234 H234       -7.5916  -21.3334  -52.0768 H         1 UNK         0.0600 
    235 H235       -6.4974  -18.2184  -53.2593 H         1 UNK         0.3000 
    236 H236       -8.2199  -16.4667  -51.8015 H         1 UNK         0.0600 
    237 H237       -8.1063  -16.5118  -54.2837 H         1 UNK         0.0600 
    238 H238       -7.7117  -14.9056  -53.6935 H         1 UNK         0.0600 
    239 H239       -6.4258  -15.9749  -54.2414 H         1 UNK         0.0600 
    240 H240       -4.7594  -16.9289  -51.6760 H         1 UNK         0.3000 
    241 H241       -4.0125  -14.4446  -50.4871 H         1 UNK         0.0600 
    242 H242       -5.9721  -17.0008  -49.0537 H         1 UNK         0.3800 
    243 H243       -5.8053  -16.4021  -47.4212 H         1 UNK         0.3800 
    244 H244       -2.3495  -15.9252  -51.4654 H         1 UNK         0.0800 
    245 H245       -1.9594  -15.5983  -49.8030 H         1 UNK         0.0800 
    246 H246       -1.7198  -19.4225  -51.7338 H         1 UNK         0.0800 
    247 H247       -1.2607  -17.7950  -52.1410 H         1 UNK         0.0800 
@<TRIPOS>BOND
     1    1    2 1    
     2    1  127 1    
     3    1  128 1    
     4    1  129 1    
     5    2    3 2    
     6    2    4 am   BACKBONE|DICT|INTERRES
     7    4    5 1    
     8    4  130 1    
     9    5    6 1    
    10    5   65 1    
    11    5  131 1    
    12    6    7 1    
    13    6  132 1    
    14    6  133 1    
    15    7    8 1    
    16    8    9 1    
    17    8  134 1    
    18    8  135 1    
    19    9   10 ar   
    20    9   14 ar   
    21   10   11 ar   
    22   10  136 1    
    23   11   12 ar   
    24   11  126 1    
    25   12   13 ar   
    26   12  137 1    
    27   13   14 ar   
    28   13   15 1    
    29   14  138 1    
    30   15   16 1    
    31   15  139 1    
    32   15  140 1    
    33   16   17 1    
    34   17   18 1    
    35   17  141 1    
    36   17  142 1    
    37   18   19 1    
    38   18   67 1    
    39   18  143 1    
    40   19   20 am   BACKBONE|DICT|INTERRES
    41   19  144 1    
    42   20   21 2    
    43   20   22 1    
    44   22   23 1    
    45   22   24 1    
    46   22  145 1    
    47   23  146 1    
    48   23  147 1    
    49   23  148 1    
    50   24   25 am   BACKBONE|DICT|INTERRES
    51   24  149 1    
    52   25   26 2    
    53   25   27 1    
    54   27   28 1    
    55   27   29 1    
    56   27  150 1    
    57   28  151 1    
    58   28  152 1    
    59   28  153 1    
    60   29   30 am   BACKBONE|DICT|INTERRES
    61   29  154 1    
    62   30   31 2    
    63   30   32 1    
    64   32   33 1    
    65   32   34 1    
    66   32  155 1    
    67   33  156 1    
    68   33  157 1    
    69   33  158 1    
    70   34   35 am   BACKBONE|DICT|INTERRES
    71   34  159 1    
    72   35   36 2    
    73   35   37 1    
    74   37   38 1    
    75   37   39 1    
    76   37  160 1    
    77   38  161 1    
    78   38  162 1    
    79   38  163 1    
    80   39   40 am   BACKBONE|DICT|INTERRES
    81   39  164 1    
    82   40   41 2    
    83   40   42 1    
    84   42   43 1    
    85   42   44 1    
    86   42  165 1    
    87   43  166 1    
    88   43  167 1    
    89   43  168 1    
    90   44   45 am   BACKBONE|DICT|INTERRES
    91   44  169 1    
    92   45   46 2    
    93   45   47 1    
    94   47   48 1    
    95   47   49 1    
    96   47  170 1    
    97   48  171 1    
    98   48  172 1    
    99   48  173 1    
   100   49   50 am   BACKBONE|DICT|INTERRES
   101   49  174 1    
   102   50   51 2    
   103   50   52 1    
   104   52   53 1    
   105   52   54 1    
   106   52  175 1    
   107   53  176 1    
   108   53  177 1    
   109   53  178 1    
   110   54   55 am   BACKBONE|DICT|INTERRES
   111   54  179 1    
   112   55   56 2    
   113   55   57 1    
   114   57   58 1    
   115   57   59 1    
   116   57  180 1    
   117   58  181 1    
   118   58  182 1    
   119   58  183 1    
   120   59   60 am   BACKBONE|DICT|INTERRES
   121   59  184 1    
   122   60   61 2    
   123   60   62 1    
   124   62   63 1    
   125   62   64 1    
   126   62  185 1    
   127   63  186 1    
   128   63  187 1    
   129   63  188 1    
   130   64   65 am   BACKBONE|DICT|INTERRES
   131   64  189 1    
   132   65   66 2    
   133   67   68 2    
   134   67   69 am   BACKBONE|DICT|INTERRES
   135   69   70 1    
   136   69  190 1    
   137   70   71 1    
   138   70   72 1    
   139   70  191 1    
   140   71  192 1    
   141   71  193 1    
   142   71  194 1    
   143   72   73 2    
   144   72   74 am   BACKBONE|DICT|INTERRES
   145   74   75 1    
   146   74  195 1    
   147   75   76 1    
   148   75   77 1    
   149   75  196 1    
   150   76  197 1    
   151   76  198 1    
   152   76  199 1    
   153   77   78 2    
   154   77   79 am   BACKBONE|DICT|INTERRES
   155   79   80 1    
   156   79  200 1    
   157   80   81 1    
   158   80   82 1    
   159   80  201 1    
   160   81  202 1    
   161   81  203 1    
   162   81  204 1    
   163   82   83 2    
   164   82   84 am   BACKBONE|DICT|INTERRES
   165   84   85 1    
   166   84  205 1    
   167   85   86 1    
   168   85   87 1    
   169   85  206 1    
   170   86  207 1    
   171   86  208 1    
   172   86  209 1    
   173   87   88 2    
   174   87   89 am   BACKBONE|DICT|INTERRES
   175   89   90 1    
   176   89  210 1    
   177   90   91 1    
   178   90   92 1    
   179   90  211 1    
   180   91  212 1    
   181   91  213 1    
   182   91  214 1    
   183   92   93 2    
   184   92   94 am   BACKBONE|DICT|INTERRES
   185   94   95 1    
   186   94  215 1    
   187   95   96 1    
   188   95   97 1    
   189   95  216 1    
   190   96  217 1    
   191   96  218 1    
   192   96  219 1    
   193   97   98 2    
   194   97   99 am   BACKBONE|DICT|INTERRES
   195   99  100 1    
   196   99  220 1    
   197  100  101 1    
   198  100  102 1    
   199  100  221 1    
   200  101  222 1    
   201  101  223 1    
   202  101  224 1    
   203  102  103 2    
   204  102  104 am   BACKBONE|DICT|INTERRES
   205  104  105 1    
   206  104  225 1    
   207  105  106 1    
   208  105  107 1    
   209  105  226 1    
   210  106  227 1    
   211  106  228 1    
   212  106  229 1    
   213  107  108 2    
   214  107  109 am   BACKBONE|DICT|INTERRES
   215  109  110 1    
   216  109  230 1    
   217  110  111 1    
   218  110  112 1    
   219  110  231 1    
   220  111  232 1    
   221  111  233 1    
   222  111  234 1    
   223  112  113 2    
   224  112  114 am   BACKBONE|DICT|INTERRES
   225  114  115 1    
   226  114  235 1    
   227  115  116 1    
   228  115  117 1    
   229  115  236 1    
   230  116  237 1    
   231  116  238 1    
   232  116  239 1    
   233  117  118 2    
   234  117  119 am   BACKBONE|DICT|INTERRES
   235  119  120 1    
   236  119  240 1    
   237  120  121 1    
   238  120  124 1    
   239  120  241 1    
   240  121  122 am   BACKBONE|DICT|INTERRES
   241  121  123 2    
   242  122  242 1    
   243  122  243 1    
   244  124  125 1    
   245  124  244 1    
   246  124  245 1    
   247  125  126 1    
   248  126  246 1    
   249  126  247 1    
@<TRIPOS>SUBSTRUCTURE
     1 UNK         1 GROUP             0       ****    0 ROOT    
