@<TRIPOS>MOLECULE
3R540
247   249    1
SMALL
USER_CHARGES


@<TRIPOS>ATOM
      1 CA         -3.5305  -14.0722  -54.2479 C.3       0 UNK        -0.1800 
      2 C          -2.4531  -13.5491  -53.3090 C.2       0 UNK         0.5000 
      3 O          -2.1603  -12.3529  -53.3284 O.2       0 UNK        -0.5000 
      4 N          -1.8758  -14.4285  -52.4803 N.am      1 UNK        -0.5000 
      5 CA         -0.9927  -14.0534  -51.3718 C.3       1 UNK         0.1400 
      6 C6         -0.0034  -15.1943  -51.0147 C.3       23 UNK        -0.0398 
      7 S7          1.5437  -14.5511  -50.2858 S.3       23 UNK        -0.2404 
      8 C8          2.0222  -15.8886  -49.1366 C.3       23 UNK        -0.0205 
      9 C9          2.5553  -17.1673  -49.7864 C.ar      23 UNK        -0.0193 
     10 C10         3.0767  -17.1983  -51.0869 C.ar      23 UNK        -0.1150 
     11 C11         3.5593  -18.3895  -51.6379 C.ar      23 UNK        -0.0193 
     12 C12         3.5089  -19.5637  -50.8817 C.ar      23 UNK        -0.1150 
     13 C13         2.9892  -19.5546  -49.5843 C.ar      23 UNK        -0.0193 
     14 C14         2.5447  -18.3475  -49.0371 C.ar      23 UNK        -0.1150 
     15 C15         2.9204  -20.8491  -48.7833 C.3       23 UNK        -0.0205 
     16 S16         1.2400  -21.2138  -48.1681 S.3       23 UNK        -0.2404 
     17 C17         1.3448  -23.0265  -47.9686 C.3       23 UNK        -0.0398 
     18 CA          0.5883  -23.6170  -46.7552 C.3       11 UNK         0.1400 
     19 N           1.0792  -23.1271  -45.4646 N.am      11 UNK        -0.5000 
     20 C           0.9005  -23.7723  -44.3026 C.2       10 UNK         0.5000 
     21 O           0.3160  -24.8538  -44.2226 O.2       10 UNK        -0.5000 
     22 CA          1.3972  -23.0942  -43.0108 C.3       10 UNK         0.1400 
     23 CB          2.0951  -24.0853  -42.0574 C.3       10 UNK        -0.1800 
     24 N           2.2148  -21.8973  -43.2241 N.am      10 UNK        -0.5000 
     25 C           3.4516  -21.7984  -43.7315 C.2       9 UNK         0.5000 
     26 O           4.1088  -22.7563  -44.1385 O.2       9 UNK        -0.5000 
     27 CA          4.0529  -20.3795  -43.8131 C.3       9 UNK         0.1400 
     28 CB          4.0955  -19.9011  -45.2711 C.3       9 UNK        -0.1800 
     29 N           3.3148  -19.3951  -43.0178 N.am      9 UNK        -0.5000 
     30 C           3.3622  -19.2987  -41.6822 C.2       8 UNK         0.5000 
     31 O           4.1020  -19.9808  -40.9723 O.2       8 UNK        -0.5000 
     32 CA          2.3872  -18.3016  -41.0293 C.3       8 UNK         0.1400 
     33 CB          2.9577  -16.8763  -41.0750 C.3       8 UNK        -0.1800 
     34 N           1.0547  -18.3228  -41.6413 N.am      8 UNK        -0.5000 
     35 C           0.2119  -19.3655  -41.5957 C.2       7 UNK         0.5000 
     36 O           0.4651  -20.4208  -41.0162 O.2       7 UNK        -0.5000 
     37 CA         -1.1232  -19.2281  -42.3479 C.3       7 UNK         0.1400 
     38 CB         -2.1418  -18.4325  -41.5187 C.3       7 UNK        -0.1800 
     39 N          -0.9600  -18.6066  -43.6605 N.am      7 UNK        -0.5000 
     40 C          -0.3801  -19.1954  -44.7150 C.2       6 UNK         0.5000 
     41 O          -0.0056  -20.3687  -44.7211 O.2       6 UNK        -0.5000 
     42 CA         -0.1621  -18.3252  -45.9671 C.3       6 UNK         0.1400 
     43 CB         -1.3919  -18.3483  -46.8866 C.3       6 UNK        -0.1800 
     44 N           0.1835  -16.9389  -45.6482 N.am      6 UNK        -0.5000 
     45 C           1.2971  -16.5654  -45.0018 C.2       5 UNK         0.5000 
     46 O           2.1772  -17.3480  -44.6486 O.2       5 UNK        -0.5000 
     47 CA          1.4201  -15.0781  -44.6337 C.3       5 UNK         0.1400 
     48 CB          1.9370  -14.2531  -45.8207 C.3       5 UNK        -0.1800 
     49 N           0.1496  -14.5315  -44.1570 N.am      5 UNK        -0.5000 
     50 C          -0.4048  -14.8448  -42.9768 C.2       4 UNK         0.5000 
     51 O           0.1162  -15.6009  -42.1584 O.2       4 UNK        -0.5000 
     52 CA         -1.7933  -14.2501  -42.6799 C.3       4 UNK         0.1400 
     53 CB         -1.6648  -12.8225  -42.1282 C.3       4 UNK        -0.1800 
     54 N          -2.6613  -14.2399  -43.8573 N.am      4 UNK        -0.5000 
     55 C          -3.1176  -15.3401  -44.4727 C.2       3 UNK         0.5000 
     56 O          -2.8981  -16.4844  -44.0805 O.2       3 UNK        -0.5000 
     57 CA         -3.8987  -15.1258  -45.7814 C.3       3 UNK         0.1400 
     58 CB         -5.3970  -14.9431  -45.5008 C.3       3 UNK        -0.1800 
     59 N          -3.4038  -13.9894  -46.5631 N.am      3 UNK        -0.5000 
     60 C          -2.1767  -13.9202  -47.0943 C.2       2 UNK         0.5000 
     61 O          -1.3210  -14.7981  -46.9571 O.2       2 UNK        -0.5000 
     62 CA         -1.8375  -12.6484  -47.8910 C.3       2 UNK         0.1400 
     63 CB         -0.8984  -11.7371  -47.0869 C.3       2 UNK        -0.1800 
     64 N          -1.2106  -12.9886  -49.1664 N.am      2 UNK        -0.5000 
     65 C          -1.8454  -13.6264  -50.1565 C.2       1 UNK         0.5000 
     66 O          -3.0510  -13.8879  -50.1203 O.2       1 UNK        -0.5000 
     67 C          -0.9443  -23.4988  -46.8837 C.2       11 UNK         0.5000 
     68 O          -1.5428  -24.2870  -47.6170 O.2       11 UNK        -0.5000 
     69 N          -1.5679  -22.5871  -46.1173 N.am      12 UNK        -0.5000 
     70 CA         -3.0231  -22.4194  -46.0107 C.3       12 UNK         0.1400 
     71 CB         -3.3436  -21.2487  -45.0708 C.3       12 UNK        -0.1800 
     72 C          -3.7804  -23.6819  -45.5520 C.2       12 UNK         0.5000 
     73 O          -4.9599  -23.8183  -45.8713 O.2       12 UNK        -0.5000 
     74 N          -3.0954  -24.5994  -44.8538 N.am      13 UNK        -0.5000 
     75 CA         -3.6294  -25.9026  -44.4524 C.3       13 UNK         0.1400 
     76 CB         -2.6363  -26.5772  -43.4943 C.3       13 UNK        -0.1800 
     77 C          -3.9432  -26.8301  -45.6453 C.2       13 UNK         0.5000 
     78 O          -4.8357  -27.6713  -45.5323 O.2       13 UNK        -0.5000 
     79 N          -3.2189  -26.6553  -46.7592 N.am      14 UNK        -0.5000 
     80 CA         -3.4209  -27.3840  -48.0110 C.3       14 UNK         0.1400 
     81 CB         -2.0578  -27.8651  -48.5335 C.3       14 UNK        -0.1800 
     82 C          -4.1148  -26.5013  -49.0618 C.2       14 UNK         0.5000 
     83 O          -4.9925  -26.9831  -49.7782 O.2       14 UNK        -0.5000 
     84 N          -3.7068  -25.2277  -49.1400 N.am      15 UNK        -0.5000 
     85 CA         -4.1604  -24.2576  -50.1368 C.3       15 UNK         0.1400 
     86 CB         -3.1137  -23.1405  -50.2270 C.3       15 UNK        -0.1800 
     87 C          -5.5522  -23.6579  -49.8589 C.2       15 UNK         0.5000 
     88 O          -6.1168  -23.0233  -50.7498 O.2       15 UNK        -0.5000 
     89 N          -6.0637  -23.8354  -48.6340 N.am      16 UNK        -0.5000 
     90 CA         -7.3366  -23.3568  -48.0824 C.3       16 UNK         0.1400 
     91 CB         -8.5448  -23.8190  -48.9199 C.3       16 UNK        -0.1800 
     92 C          -7.3801  -21.8406  -47.8127 C.2       16 UNK         0.5000 
     93 O          -7.8145  -21.4429  -46.7308 O.2       16 UNK        -0.5000 
     94 N          -6.9318  -21.0187  -48.7689 N.am      17 UNK        -0.5000 
     95 CA         -6.9032  -19.5622  -48.6687 C.3       17 UNK         0.1400 
     96 CB         -8.3138  -18.9863  -48.8945 C.3       17 UNK        -0.1800 
     97 C          -5.9197  -18.9754  -49.6889 C.2       17 UNK         0.5000 
     98 O          -5.7062  -19.5667  -50.7506 O.2       17 UNK        -0.5000 
     99 N          -5.3568  -17.8068  -49.3439 N.am      18 UNK        -0.5000 
    100 CA        -4.5377  -16.9111  -50.1780 C.3       18 UNK         0.1400 
    101 CB        -5.4385  -16.1985  -51.2061 C.3       18 UNK        -0.1800 
    102 C         -3.3111  -17.5687  -50.8493 C.2       18 UNK         0.5000 
    103 O         -2.8669  -17.1122  -51.9074 O.2       18 UNK        -0.5000 
    104 N         -2.8225  -18.6646  -50.2487 N.am      19 UNK        -0.5000 
    105 CA        -1.7876  -19.5717  -50.7584 C.3       19 UNK         0.1400 
    106 CB        -0.4133  -18.8819  -50.7312 C.3       19 UNK        -0.1800 
    107 C         -2.1124  -20.1596  -52.1510 C.2       19 UNK         0.5000 
    108 O         -1.1929  -20.4815  -52.9013 O.2       19 UNK        -0.5000 
    109 N         -3.4092  -20.2561  -52.4914 N.am      20 UNK        -0.5000 
    110 CA        -3.9485  -20.6758  -53.7910 C.3       20 UNK         0.1400 
    111 CB        -3.7217  -22.1853  -54.0186 C.3       20 UNK        -0.1800 
    112 C         -3.4491  -19.8024  -54.9657 C.2       20 UNK         0.5000 
    113 O         -3.2757  -20.3019  -56.0787 O.2       20 UNK        -0.5000 
    114 N         -3.2233  -18.5102  -54.6827 N.am      21 UNK        -0.5000 
    115 CA        -2.7048  -17.4806  -55.5866 C.3       21 UNK         0.1400 
    116 CB        -3.6718  -17.2146  -56.7591 C.3       21 UNK        -0.1800 
    117 C         -1.2430  -17.7052  -56.0246 C.2       21 UNK         0.5000 
    118 O         -0.8649  -17.3242  -57.1339 O.2       21 UNK        -0.5000 
    119 N         -0.4363  -18.2829  -55.1257 N.am      22 UNK        -0.5000 
    120 CA         1.0303  -18.3372  -55.2104 C.3       22 UNK         0.1400 
    121 C          1.6633  -16.9145  -55.2428 C.2       22 UNK         0.5000 
    122 N          2.6211  -16.6692  -56.1267 N.am      22 UNK        -0.7600 
    123 O          1.3117  -16.0425  -54.4521 O.2       22 UNK        -0.5000 
    124 C124        1.5862  -19.1784  -54.0367 C.3       23 UNK        -0.0398 
    125 S125        3.3545  -19.6152  -54.1624 S.3       23 UNK        -0.2404 
    126 C126        4.1385  -18.3969  -53.0493 C.3       23 UNK        -0.0205 
    127 H127       -3.9351  -15.0236  -53.9038 H         1 UNK         0.0600 
    128 H128       -4.3569  -13.3635  -54.3026 H         1 UNK         0.0600 
    129 H129       -3.1270  -14.2019  -55.2519 H         1 UNK         0.0600 
    130 H130       -2.2086  -15.3885  -52.4564 H         1 UNK         0.3000 
    131 H131       -0.4111  -13.1846  -51.6882 H         1 UNK         0.0600 
    132 H132        0.2796  -15.7422  -51.9147 H         1 UNK         0.0800 
    133 H133       -0.4633  -15.9259  -50.3481 H         1 UNK         0.0800 
    134 H134        1.1668  -16.1229  -48.5001 H         1 UNK         0.0800 
    135 H135        2.8004  -15.5034  -48.4777 H         1 UNK         0.0800 
    136 H136        3.1155  -16.2954  -51.6786 H         1 UNK         0.1150 
    137 H137        3.8711  -20.4869  -51.3116 H         1 UNK         0.1150 
    138 H138        2.1698  -18.3314  -48.0262 H         1 UNK         0.1150 
    139 H139        3.2562  -21.6812  -49.4039 H         1 UNK         0.0800 
    140 H140        3.6137  -20.7935  -47.9463 H         1 UNK         0.0800 
    141 H141        2.3947  -23.3109  -47.8865 H         1 UNK         0.0800 
    142 H142        0.9908  -23.4879  -48.8923 H         1 UNK         0.0800 
    143 H143        0.7931  -24.6899  -46.7782 H         1 UNK         0.0600 
    144 H144        1.4912  -22.2046  -45.4500 H         1 UNK         0.3000 
    145 H145        0.4960  -22.7425  -42.5072 H         1 UNK         0.0600 
    146 H146        2.4187  -23.5888  -41.1424 H         1 UNK         0.0600 
    147 H147        1.4193  -24.8901  -41.7660 H         1 UNK         0.0600 
    148 H148        2.9689  -24.5465  -42.5181 H         1 UNK         0.0600 
    149 H149        1.7669  -21.0333  -42.9502 H         1 UNK         0.3000 
    150 H150        5.0773  -20.4320  -43.4391 H         1 UNK         0.0600 
    151 H151        4.6987  -20.5740  -45.8811 H         1 UNK         0.0600 
    152 H152        4.5389  -18.9083  -45.3494 H         1 UNK         0.0600 
    153 H153        3.0965  -19.8558  -45.7072 H         1 UNK         0.0600 
    154 H154        2.7325  -18.7411  -43.5370 H         1 UNK         0.3000 
    155 H155        2.2760  -18.5865  -39.9811 H         1 UNK         0.0600 
    156 H156        3.0636  -16.5177  -42.0989 H         1 UNK         0.0600 
    157 H157        3.9427  -16.8342  -40.6085 H         1 UNK         0.0600 
    158 H158        2.3151  -16.1772  -40.5396 H         1 UNK         0.0600 
    159 H159        0.7493  -17.4633  -42.0875 H         1 UNK         0.3000 
    160 H160       -1.5231  -20.2332  -42.4940 H         1 UNK         0.0600 
    161 H161       -3.1134  -18.4052  -42.0124 H         1 UNK         0.0600 
    162 H162       -1.8189  -17.4035  -41.3604 H         1 UNK         0.0600 
    163 H163       -2.2877  -18.8866  -40.5379 H         1 UNK         0.0600 
    164 H164       -1.3331  -17.6691  -43.7689 H         1 UNK         0.3000 
    165 H165        0.6756  -18.7595  -46.5099 H         1 UNK         0.0600 
    166 H166       -1.2519  -17.6971  -47.7494 H         1 UNK         0.0600 
    167 H167       -1.5741  -19.3555  -47.2635 H         1 UNK         0.0600 
    168 H168       -2.2907  -18.0190  -46.3653 H         1 UNK         0.0600 
    169 H169       -0.4696  -16.2199  -45.9466 H         1 UNK         0.3000 
    170 H170        2.1505  -14.9931  -43.8265 H         1 UNK         0.0600 
    171 H171        2.9148  -14.6123  -46.1434 H         1 UNK         0.0600 
    172 H172        1.2681  -14.3096  -46.6788 H         1 UNK         0.0600 
    173 H173        2.0514  -13.2031  -45.5512 H         1 UNK         0.0600 
    174 H174       -0.3679  -13.9541  -44.8020 H         1 UNK         0.3000 
    175 H175       -2.2654  -14.8712  -41.9157 H         1 UNK         0.0600 
    176 H176       -2.6375  -12.4209  -41.8437 H         1 UNK         0.0600 
    177 H177       -1.0340  -12.8040  -41.2384 H         1 UNK         0.0600 
    178 H178       -1.2218  -12.1446  -42.8590 H         1 UNK         0.0600 
    179 H179       -2.8933  -13.3389  -44.2479 H         1 UNK         0.3000 
    180 H180       -3.7748  -16.0251  -46.3881 H         1 UNK         0.0600 
    181 H181       -5.5915  -14.0412  -44.9191 H         1 UNK         0.0600 
    182 H182       -5.7944  -15.7889  -44.9379 H         1 UNK         0.0600 
    183 H183       -5.9668  -14.8748  -46.4277 H         1 UNK         0.0600 
    184 H184       -4.0539  -13.2332  -46.7226 H         1 UNK         0.3000 
    185 H185       -2.7583  -12.0983  -48.0963 H         1 UNK         0.0600 
    186 H186        0.0625  -12.2136  -46.8945 H         1 UNK         0.0600 
    187 H187       -0.7064  -10.8050  -47.6186 H         1 UNK         0.0600 
    188 H188       -1.3356  -11.4753  -46.1225 H         1 UNK         0.0600 
    189 H189       -0.2121  -12.8513  -49.2332 H         1 UNK         0.3000 
    190 H190       -0.9952  -21.9670  -45.5533 H         1 UNK         0.3000 
    191 H191       -3.3997  -22.1659  -47.0027 H         1 UNK         0.0600 
    192 H192       -2.9704  -20.3075  -45.4682 H         1 UNK         0.0600 
    193 H193       -2.9086  -21.3980  -44.0826 H         1 UNK         0.0600 
    194 H194       -4.4206  -21.1312  -44.9412 H         1 UNK         0.0600 
    195 H195       -2.1232  -24.4242  -44.6402 H         1 UNK         0.3000 
    196 H196       -4.5632  -25.7313  -43.9127 H         1 UNK         0.0600 
    197 H197       -3.0276  -27.5291  -43.1330 H         1 UNK         0.0600 
    198 H198       -2.4417  -25.9535  -42.6217 H         1 UNK         0.0600 
    199 H199       -1.6818  -26.7789  -43.9820 H         1 UNK         0.0600 
    200 H200       -2.5233  -25.9191  -46.7748 H         1 UNK         0.3000 
    201 H201       -4.0473  -28.2633  -47.8474 H         1 UNK         0.0600 
    202 H202       -1.5800  -28.5374  -47.8208 H         1 UNK         0.0600 
    203 H203       -1.3766  -27.0326  -48.7155 H         1 UNK         0.0600 
    204 H204       -2.1691  -28.4109  -49.4713 H         1 UNK         0.0600 
    205 H205       -2.9456  -24.9187  -48.5394 H         1 UNK         0.3000 
    206 H206       -4.2104  -24.7552  -51.1076 H         1 UNK         0.0600 
    207 H207       -2.1349  -23.5306  -50.5070 H         1 UNK         0.0600 
    208 H208       -3.4042  -22.4162  -50.9818 H         1 UNK         0.0600 
    209 H209       -3.0075  -22.6041  -49.2848 H         1 UNK         0.0600 
    210 H210       -5.4796  -24.3088  -47.9561 H         1 UNK         0.3000 
    211 H211       -7.4228  -23.8439  -47.1098 H         1 UNK         0.0600 
    212 H212       -8.5750  -23.3401  -49.8987 H         1 UNK         0.0600 
    213 H213       -9.4799  -23.5760  -48.4140 H         1 UNK         0.0600 
    214 H214       -8.5287  -24.8981  -49.0732 H         1 UNK         0.0600 
    215 H215       -6.5837  -21.4114  -49.6405 H         1 UNK         0.3000 
    216 H216       -6.5582  -19.2881  -47.6693 H         1 UNK         0.0600 
    217 H217       -8.3059  -17.8963  -48.8524 H         1 UNK         0.0600 
    218 H218       -9.0136  -19.3313  -48.1334 H         1 UNK         0.0600 
    219 H219       -8.7107  -19.2745  -49.8687 H         1 UNK         0.0600 
    220 H220       -5.5935  -17.4302  -48.4368 H         1 UNK         0.3000 
    221 H221       -4.1392  -16.1572  -49.4991 H         1 UNK         0.0600 
    222 H222       -5.8079  -16.8891  -51.9651 H         1 UNK         0.0600 
    223 H223       -6.3000  -15.7372  -50.7234 H         1 UNK         0.0600 
    224 H224       -4.8964  -15.4025  -51.7167 H         1 UNK         0.0600 
    225 H225       -3.2822  -18.9624  -49.4012 H         1 UNK         0.3000 
    226 H226       -1.7471  -20.4156  -50.0687 H         1 UNK         0.0600 
    227 H227       -0.2090  -18.4470  -49.7545 H         1 UNK         0.0600 
    228 H228        0.3843  -19.5959  -50.9380 H         1 UNK         0.0600 
    229 H229       -0.3440  -18.0904  -51.4762 H         1 UNK         0.0600 
    230 H230       -4.1091  -19.9642  -51.8137 H         1 UNK         0.3000 
    231 H231       -5.0258  -20.5127  -53.7360 H         1 UNK         0.0600 
    232 H232       -4.1570  -22.7744  -53.2119 H         1 UNK         0.0600 
    233 H233       -2.6618  -22.4319  -54.0838 H         1 UNK         0.0600 
    234 H234       -4.1928  -22.5185  -54.9439 H         1 UNK         0.0600 
    235 H235       -3.3547  -18.2100  -53.7233 H         1 UNK         0.3000 
    236 H236       -2.6671  -16.5748  -54.9867 H         1 UNK         0.0600 
    237 H237       -3.3630  -16.3371  -57.3284 H         1 UNK         0.0600 
    238 H238       -3.7113  -18.0547  -57.4525 H         1 UNK         0.0600 
    239 H239       -4.6835  -17.0256  -56.4001 H         1 UNK         0.0600 
    240 H240       -0.8412  -18.6144  -54.2608 H         1 UNK         0.3000 
    241 H241        1.2759  -18.8484  -56.1431 H         1 UNK         0.0600 
    242 H242        3.0412  -15.7534  -56.1509 H         1 UNK         0.3800 
    243 H243        2.9333  -17.3742  -56.7763 H         1 UNK         0.3800 
    244 H244        1.3754  -18.6904  -53.0859 H         1 UNK         0.0800 
    245 H245        1.0588  -20.1312  -54.0012 H         1 UNK         0.0800 
    246 H246        4.0602  -17.4079  -53.5029 H         1 UNK         0.0800 
    247 H247        5.2047  -18.6175  -52.9868 H         1 UNK         0.0800 
@<TRIPOS>BOND
     1    1    2 1    
     2    1  127 1    
     3    1  128 1    
     4    1  129 1    
     5    2    3 2    
     6    2    4 am   BACKBONE|DICT|INTERRES
     7    4    5 1    
     8    4  130 1    
     9    5    6 1    
    10    5   65 1    
    11    5  131 1    
    12    6    7 1    
    13    6  132 1    
    14    6  133 1    
    15    7    8 1    
    16    8    9 1    
    17    8  134 1    
    18    8  135 1    
    19    9   10 ar   
    20    9   14 ar   
    21   10   11 ar   
    22   10  136 1    
    23   11   12 ar   
    24   11  126 1    
    25   12   13 ar   
    26   12  137 1    
    27   13   14 ar   
    28   13   15 1    
    29   14  138 1    
    30   15   16 1    
    31   15  139 1    
    32   15  140 1    
    33   16   17 1    
    34   17   18 1    
    35   17  141 1    
    36   17  142 1    
    37   18   19 1    
    38   18   67 1    
    39   18  143 1    
    40   19   20 am   BACKBONE|DICT|INTERRES
    41   19  144 1    
    42   20   21 2    
    43   20   22 1    
    44   22   23 1    
    45   22   24 1    
    46   22  145 1    
    47   23  146 1    
    48   23  147 1    
    49   23  148 1    
    50   24   25 am   BACKBONE|DICT|INTERRES
    51   24  149 1    
    52   25   26 2    
    53   25   27 1    
    54   27   28 1    
    55   27   29 1    
    56   27  150 1    
    57   28  151 1    
    58   28  152 1    
    59   28  153 1    
    60   29   30 am   BACKBONE|DICT|INTERRES
    61   29  154 1    
    62   30   31 2    
    63   30   32 1    
    64   32   33 1    
    65   32   34 1    
    66   32  155 1    
    67   33  156 1    
    68   33  157 1    
    69   33  158 1    
    70   34   35 am   BACKBONE|DICT|INTERRES
    71   34  159 1    
    72   35   36 2    
    73   35   37 1    
    74   37   38 1    
    75   37   39 1    
    76   37  160 1    
    77   38  161 1    
    78   38  162 1    
    79   38  163 1    
    80   39   40 am   BACKBONE|DICT|INTERRES
    81   39  164 1    
    82   40   41 2    
    83   40   42 1    
    84   42   43 1    
    85   42   44 1    
    86   42  165 1    
    87   43  166 1    
    88   43  167 1    
    89   43  168 1    
    90   44   45 am   BACKBONE|DICT|INTERRES
    91   44  169 1    
    92   45   46 2    
    93   45   47 1    
    94   47   48 1    
    95   47   49 1    
    96   47  170 1    
    97   48  171 1    
    98   48  172 1    
    99   48  173 1    
   100   49   50 am   BACKBONE|DICT|INTERRES
   101   49  174 1    
   102   50   51 2    
   103   50   52 1    
   104   52   53 1    
   105   52   54 1    
   106   52  175 1    
   107   53  176 1    
   108   53  177 1    
   109   53  178 1    
   110   54   55 am   BACKBONE|DICT|INTERRES
   111   54  179 1    
   112   55   56 2    
   113   55   57 1    
   114   57   58 1    
   115   57   59 1    
   116   57  180 1    
   117   58  181 1    
   118   58  182 1    
   119   58  183 1    
   120   59   60 am   BACKBONE|DICT|INTERRES
   121   59  184 1    
   122   60   61 2    
   123   60   62 1    
   124   62   63 1    
   125   62   64 1    
   126   62  185 1    
   127   63  186 1    
   128   63  187 1    
   129   63  188 1    
   130   64   65 am   BACKBONE|DICT|INTERRES
   131   64  189 1    
   132   65   66 2    
   133   67   68 2    
   134   67   69 am   BACKBONE|DICT|INTERRES
   135   69   70 1    
   136   69  190 1    
   137   70   71 1    
   138   70   72 1    
   139   70  191 1    
   140   71  192 1    
   141   71  193 1    
   142   71  194 1    
   143   72   73 2    
   144   72   74 am   BACKBONE|DICT|INTERRES
   145   74   75 1    
   146   74  195 1    
   147   75   76 1    
   148   75   77 1    
   149   75  196 1    
   150   76  197 1    
   151   76  198 1    
   152   76  199 1    
   153   77   78 2    
   154   77   79 am   BACKBONE|DICT|INTERRES
   155   79   80 1    
   156   79  200 1    
   157   80   81 1    
   158   80   82 1    
   159   80  201 1    
   160   81  202 1    
   161   81  203 1    
   162   81  204 1    
   163   82   83 2    
   164   82   84 am   BACKBONE|DICT|INTERRES
   165   84   85 1    
   166   84  205 1    
   167   85   86 1    
   168   85   87 1    
   169   85  206 1    
   170   86  207 1    
   171   86  208 1    
   172   86  209 1    
   173   87   88 2    
   174   87   89 am   BACKBONE|DICT|INTERRES
   175   89   90 1    
   176   89  210 1    
   177   90   91 1    
   178   90   92 1    
   179   90  211 1    
   180   91  212 1    
   181   91  213 1    
   182   91  214 1    
   183   92   93 2    
   184   92   94 am   BACKBONE|DICT|INTERRES
   185   94   95 1    
   186   94  215 1    
   187   95   96 1    
   188   95   97 1    
   189   95  216 1    
   190   96  217 1    
   191   96  218 1    
   192   96  219 1    
   193   97   98 2    
   194   97   99 am   BACKBONE|DICT|INTERRES
   195   99  100 1    
   196   99  220 1    
   197  100  101 1    
   198  100  102 1    
   199  100  221 1    
   200  101  222 1    
   201  101  223 1    
   202  101  224 1    
   203  102  103 2    
   204  102  104 am   BACKBONE|DICT|INTERRES
   205  104  105 1    
   206  104  225 1    
   207  105  106 1    
   208  105  107 1    
   209  105  226 1    
   210  106  227 1    
   211  106  228 1    
   212  106  229 1    
   213  107  108 2    
   214  107  109 am   BACKBONE|DICT|INTERRES
   215  109  110 1    
   216  109  230 1    
   217  110  111 1    
   218  110  112 1    
   219  110  231 1    
   220  111  232 1    
   221  111  233 1    
   222  111  234 1    
   223  112  113 2    
   224  112  114 am   BACKBONE|DICT|INTERRES
   225  114  115 1    
   226  114  235 1    
   227  115  116 1    
   228  115  117 1    
   229  115  236 1    
   230  116  237 1    
   231  116  238 1    
   232  116  239 1    
   233  117  118 2    
   234  117  119 am   BACKBONE|DICT|INTERRES
   235  119  120 1    
   236  119  240 1    
   237  120  121 1    
   238  120  124 1    
   239  120  241 1    
   240  121  122 am   BACKBONE|DICT|INTERRES
   241  121  123 2    
   242  122  242 1    
   243  122  243 1    
   244  124  125 1    
   245  124  244 1    
   246  124  245 1    
   247  125  126 1    
   248  126  246 1    
   249  126  247 1    
@<TRIPOS>SUBSTRUCTURE
     1 UNK         1 GROUP             0       ****    0 ROOT    
