@<TRIPOS>MOLECULE
3R540
247   249    1
SMALL
USER_CHARGES


@<TRIPOS>ATOM
      1 CA          7.4489  -10.3035  -49.2795 C.3       0 UNK        -0.1800 
      2 C           6.2402  -11.2196  -49.4105 C.2       0 UNK         0.5000 
      3 O           5.5059  -11.1216  -50.3933 O.2       0 UNK        -0.5000 
      4 N           6.0403  -12.1064  -48.4255 N.am      1 UNK        -0.5000 
      5 CA          4.9315  -13.0627  -48.3233 C.3       1 UNK         0.1400 
      6 C6          4.9439  -14.1337  -49.4465 C.3       23 UNK        -0.0398 
      7 S7          4.0923  -15.6644  -48.9385 S.3       23 UNK        -0.2404 
      8 C8          4.1602  -16.5996  -50.4947 C.3       23 UNK        -0.0205 
      9 C9          3.3105  -17.8562  -50.4115 C.ar      23 UNK        -0.0193 
     10 C10         1.9394  -17.7851  -50.6654 C.ar      23 UNK        -0.1150 
     11 C11         1.1304  -18.9285  -50.5928 C.ar      23 UNK        -0.0193 
     12 C12         1.7239  -20.1485  -50.2517 C.ar      23 UNK        -0.1150 
     13 C13         3.0967  -20.2332  -49.9930 C.ar      23 UNK        -0.0193 
     14 C14         3.8861  -19.0840  -50.0809 C.ar      23 UNK        -0.1150 
     15 C15         3.7303  -21.5660  -49.6198 C.3       23 UNK        -0.0205 
     16 S16         4.3247  -21.6064  -47.8944 S.3       23 UNK        -0.2404 
     17 C17         2.7941  -21.3138  -46.9447 C.3       23 UNK        -0.0398 
     18 CA          2.1363  -22.6089  -46.4136 C.3       11 UNK         0.1400 
     19 N           1.2206  -22.3204  -45.3063 N.am      11 UNK        -0.5000 
     20 C           0.6170  -23.2344  -44.5334 C.2       10 UNK         0.5000 
     21 O           0.8326  -24.4434  -44.6018 O.2       10 UNK        -0.5000 
     22 CA         -0.4473  -22.7116  -43.5535 C.3       10 UNK         0.1400 
     23 CB          0.1912  -22.3032  -42.2177 C.3       10 UNK        -0.1800 
     24 N          -1.1874  -21.5817  -44.1193 N.am      10 UNK        -0.5000 
     25 C          -2.1342  -21.7027  -45.0609 C.2       9 UNK         0.5000 
     26 O          -2.5195  -22.7844  -45.5024 O.2       9 UNK        -0.5000 
     27 CA         -2.7244  -20.4010  -45.6349 C.3       9 UNK         0.1400 
     28 CB         -3.9053  -19.9164  -44.7823 C.3       9 UNK        -0.1800 
     29 N          -1.7376  -19.3253  -45.7571 N.am      9 UNK        -0.5000 
     30 C          -0.7058  -19.3428  -46.6128 C.2       8 UNK         0.5000 
     31 O          -0.5110  -20.2523  -47.4170 O.2       8 UNK        -0.5000 
     32 CA          0.3100  -18.1860  -46.5176 C.3       8 UNK         0.1400 
     33 CB         -0.0986  -17.0322  -47.4417 C.3       8 UNK        -0.1800 
     34 N           0.5093  -17.6682  -45.1596 N.am      8 UNK        -0.5000 
     35 C           0.8983  -18.3981  -44.1032 C.2       7 UNK         0.5000 
     36 O           1.0965  -19.6131  -44.1590 O.2       7 UNK        -0.5000 
     37 CA          1.0695  -17.6414  -42.7695 C.3       7 UNK         0.1400 
     38 CB          1.7379  -18.4891  -41.6680 C.3       7 UNK        -0.1800 
     39 N           1.7598  -16.3613  -42.9370 N.am      7 UNK        -0.5000 
     40 C           3.0026  -16.1543  -43.3995 C.2       6 UNK         0.5000 
     41 O           3.7861  -17.0582  -43.6918 O.2       6 UNK        -0.5000 
     42 CA          3.4489  -14.6896  -43.5793 C.3       6 UNK         0.1400 
     43 CB          3.7978  -14.4040  -45.0460 C.3       6 UNK        -0.1800 
     44 N           2.4199  -13.7375  -43.1592 N.am      6 UNK        -0.5000 
     45 C           2.3554  -13.1505  -41.9569 C.2       5 UNK         0.5000 
     46 O           3.2123  -13.2839  -41.0829 O.2       5 UNK        -0.5000 
     47 CA          1.1086  -12.2908  -41.6691 C.3       5 UNK         0.1400 
     48 CB          1.4174  -10.7988  -41.8637 C.3       5 UNK        -0.1800 
     49 N          -0.0437  -12.6666  -42.4948 N.am      5 UNK        -0.5000 
     50 C          -0.7607  -13.7858  -42.3117 C.2       4 UNK         0.5000 
     51 O          -0.5268  -14.6025  -41.4211 O.2       4 UNK        -0.5000 
     52 CA         -1.8948  -14.0792  -43.3121 C.3       4 UNK         0.1400 
     53 CB         -3.2269  -13.5170  -42.7948 C.3       4 UNK        -0.1800 
     54 N          -1.6484  -13.5643  -44.6594 N.am      4 UNK        -0.5000 
     55 C          -0.6374  -13.9310  -45.4579 C.2       3 UNK         0.5000 
     56 O           0.2222  -14.7500  -45.1274 O.2       3 UNK        -0.5000 
     57 CA         -0.5570  -13.2680  -46.8498 C.3       3 UNK         0.1400 
     58 CB         -1.8034  -12.4350  -47.2217 C.3       3 UNK        -0.1800 
     59 N           0.6491  -12.4539  -47.0183 N.am      3 UNK        -0.5000 
     60 C           1.0960  -11.4702  -46.2268 C.2       2 UNK         0.5000 
     61 O           0.5652  -11.1678  -45.1560 O.2       2 UNK        -0.5000 
     62 CA          2.3327  -10.6864  -46.7302 C.3       2 UNK         0.1400 
     63 CB          2.8152   -9.6333  -45.7161 C.3       2 UNK        -0.1800 
     64 N           3.4766  -11.5294  -47.0924 N.am      2 UNK        -0.5000 
     65 C           3.5768  -12.3331  -48.1605 C.2       1 UNK         0.5000 
     66 O           2.6733  -12.4786  -48.9865 O.2       1 UNK        -0.5000 
     67 C           1.4309  -23.3994  -47.5388 C.2       11 UNK         0.5000 
     68 O           1.9782  -24.3893  -48.0259 O.2       11 UNK        -0.5000 
     69 N           0.2100  -22.9729  -47.8973 N.am      12 UNK        -0.5000 
     70 CA         -0.6815  -23.6561  -48.8382 C.3       12 UNK         0.1400 
     71 CB         -1.8607  -22.7278  -49.1664 C.3       12 UNK        -0.1800 
     72 C          -1.1869  -25.0213  -48.3245 C.2       12 UNK         0.5000 
     73 O          -1.5564  -25.8714  -49.1355 O.2       12 UNK        -0.5000 
     74 N          -1.1802  -25.2086  -46.9966 N.am      13 UNK        -0.5000 
     75 CA         -1.4715  -26.4371  -46.2569 C.3       13 UNK         0.1400 
     76 CB         -0.3312  -27.4595  -46.4591 C.3       13 UNK        -0.1800 
     77 C          -2.8724  -26.9841  -46.5857 C.2       13 UNK         0.5000 
     78 O          -3.8625  -26.3665  -46.1947 O.2       13 UNK        -0.5000 
     79 N          -2.9387  -28.1014  -47.3217 N.am      14 UNK        -0.5000 
     80 CA         -4.1741  -28.7395  -47.7797 C.3       14 UNK         0.1400 
     81 CB         -3.8275  -30.0866  -48.4318 C.3       14 UNK        -0.1800 
     82 C          -5.0047  -27.8704  -48.7453 C.2       14 UNK         0.5000 
     83 O          -6.2249  -28.0297  -48.7933 O.2       14 UNK        -0.5000 
     84 N          -4.3459  -26.9616  -49.4809 N.am      15 UNK        -0.5000 
     85 CA         -5.0035  -25.9957  -50.3632 C.3       15 UNK         0.1400 
     86 CB         -4.0366  -25.5895  -51.4829 C.3       15 UNK        -0.1800 
     87 C          -5.5397  -24.7638  -49.6059 C.2       15 UNK         0.5000 
     88 O          -6.3807  -24.0477  -50.1531 O.2       15 UNK        -0.5000 
     89 N          -5.0539  -24.5477  -48.3719 N.am      16 UNK        -0.5000 
     90 CA         -5.5814  -23.6791  -47.3081 C.3       16 UNK         0.1400 
     91 CB         -6.8867  -24.2964  -46.7661 C.3       16 UNK        -0.1800 
     92 C          -5.7692  -22.1836  -47.6479 C.2       16 UNK         0.5000 
     93 O          -6.4820  -21.4913  -46.9205 O.2       16 UNK        -0.5000 
     94 N          -5.1655  -21.7145  -48.7508 N.am      17 UNK        -0.5000 
     95 CA         -5.4259  -20.4220  -49.4034 C.3       17 UNK         0.1400 
     96 CB         -4.9426  -19.2344  -48.5438 C.3       17 UNK        -0.1800 
     97 C          -6.8881  -20.2825  -49.8920 C.2       17 UNK         0.5000 
     98 O          -7.4189  -19.1736  -49.9615 O.2       17 UNK        -0.5000 
     99 N          -7.5053  -21.4212  -50.2312 N.am      18 UNK        -0.5000 
    100 CA        -8.8426  -21.5289  -50.8052 C.3       18 UNK         0.1400 
    101 CB        -9.7063  -22.4315  -49.9089 C.3       18 UNK        -0.1800 
    102 C         -8.7501  -22.0956  -52.2295 C.2       18 UNK         0.5000 
    103 O         -9.3519  -21.5343  -53.1454 O.2       18 UNK        -0.5000 
    104 N         -7.9808  -23.1815  -52.3939 N.am      19 UNK        -0.5000 
    105 CA        -7.7153  -23.8191  -53.6858 C.3       19 UNK         0.1400 
    106 CB        -7.6305  -25.3392  -53.4814 C.3       19 UNK        -0.1800 
    107 C         -6.4256  -23.2914  -54.3428 C.2       19 UNK         0.5000 
    108 O         -6.2715  -23.4203  -55.5581 O.2       19 UNK        -0.5000 
    109 N         -5.5219  -22.7168  -53.5371 N.am      20 UNK        -0.5000 
    110 CA        -4.2839  -22.0830  -53.9904 C.3       20 UNK         0.1400 
    111 CB        -3.2901  -22.0278  -52.8163 C.3       20 UNK        -0.1800 
    112 C         -4.5459  -20.6684  -54.5365 C.2       20 UNK         0.5000 
    113 O         -5.5965  -20.0818  -54.2632 O.2       20 UNK        -0.5000 
    114 N         -3.5482  -20.1158  -55.2410 N.am      21 UNK        -0.5000 
    115 CA        -3.5519  -18.7609  -55.8104 C.3       21 UNK         0.1400 
    116 CB        -2.2536  -18.5522  -56.6052 C.3       21 UNK        -0.1800 
    117 C         -3.7344  -17.6323  -54.7726 C.2       21 UNK         0.5000 
    118 O         -4.2013  -16.5499  -55.1296 O.2       21 UNK        -0.5000 
    119 N         -3.3927  -17.9173  -53.5098 N.am      22 UNK        -0.5000 
    120 CA        -3.6811  -17.0720  -52.3416 C.3       22 UNK         0.1400 
    121 C         -5.1877  -16.9966  -51.9520 C.2       22 UNK         0.5000 
    122 N         -6.0661  -17.8407  -52.4797 N.am      22 UNK        -0.7600 
    123 O         -5.5659  -16.1480  -51.1497 O.2       22 UNK        -0.5000 
    124 C124       -2.8325  -17.4913  -51.1148 C.3       23 UNK        -0.0398 
    125 S125       -1.0468  -17.2910  -51.4093 S.3       23 UNK        -0.2404 
    126 C126       -0.3810  -18.8982  -50.8459 C.3       23 UNK        -0.0205 
    127 H127        8.0127  -10.5020  -48.3677 H         1 UNK         0.0600 
    128 H128        7.1293   -9.2616  -49.2611 H         1 UNK         0.0600 
    129 H129        8.1178  -10.4411  -50.1291 H         1 UNK         0.0600 
    130 H130        6.6935  -12.1236  -47.6544 H         1 UNK         0.3000 
    131 H131        5.1141  -13.5845  -47.3843 H         1 UNK         0.0600 
    132 H132        4.5080  -13.7498  -50.3705 H         1 UNK         0.0800 
    133 H133        5.9726  -14.4038  -49.6887 H         1 UNK         0.0800 
    134 H134        3.8067  -15.9731  -51.3152 H         1 UNK         0.0800 
    135 H135        5.1969  -16.8530  -50.7219 H         1 UNK         0.0800 
    136 H136        1.5187  -16.8214  -50.9088 H         1 UNK         0.1150 
    137 H137        1.1096  -21.0352  -50.1773 H         1 UNK         0.1150 
    138 H138        4.9462  -19.1451  -49.8779 H         1 UNK         0.1150 
    139 H139        3.0321  -22.3872  -49.7851 H         1 UNK         0.0800 
    140 H140        4.5753  -21.7532  -50.2837 H         1 UNK         0.0800 
    141 H141        2.0892  -20.7228  -47.5268 H         1 UNK         0.0800 
    142 H142        3.0756  -20.6784  -46.1033 H         1 UNK         0.0800 
    143 H143        2.9229  -23.2481  -46.0069 H         1 UNK         0.0600 
    144 H144        1.0279  -21.3417  -45.1175 H         1 UNK         0.3000 
    145 H145       -1.1512  -23.5231  -43.3556 H         1 UNK         0.0600 
    146 H146       -0.5517  -21.9022  -41.5283 H         1 UNK         0.0600 
    147 H147        0.6546  -23.1633  -41.7330 H         1 UNK         0.0600 
    148 H148        0.9682  -21.5514  -42.3528 H         1 UNK         0.0600 
    149 H149       -0.8657  -20.6589  -43.8618 H         1 UNK         0.3000 
    150 H150       -3.0994  -20.6338  -46.6324 H         1 UNK         0.0600 
    151 H151       -4.6695  -20.6907  -44.7002 H         1 UNK         0.0600 
    152 H152       -4.3798  -19.0419  -45.2276 H         1 UNK         0.0600 
    153 H153       -3.5929  -19.6527  -43.7712 H         1 UNK         0.0600 
    154 H154       -1.8281  -18.5432  -45.1260 H         1 UNK         0.3000 
    155 H155        1.2721  -18.5671  -46.8640 H         1 UNK         0.0600 
    156 H156        0.6766  -16.2663  -47.4755 H         1 UNK         0.0600 
    157 H157       -1.0290  -16.5661  -47.1167 H         1 UNK         0.0600 
    158 H158       -0.2468  -17.3788  -48.4624 H         1 UNK         0.0600 
    159 H159        0.4068  -16.6631  -45.0449 H         1 UNK         0.3000 
    160 H160        0.0626  -17.3980  -42.4279 H         1 UNK         0.0600 
    161 H161        2.7163  -18.8590  -41.9757 H         1 UNK         0.0600 
    162 H162        1.1241  -19.3543  -41.4179 H         1 UNK         0.0600 
    163 H163        1.8692  -17.9126  -40.7523 H         1 UNK         0.0600 
    164 H164        1.2063  -15.5437  -42.7217 H         1 UNK         0.3000 
    165 H165        4.3539  -14.5527  -42.9839 H         1 UNK         0.0600 
    166 H166        2.9280  -14.4997  -45.6975 H         1 UNK         0.0600 
    167 H167        4.1931  -13.3949  -45.1501 H         1 UNK         0.0600 
    168 H168        4.5611  -15.0914  -45.4130 H         1 UNK         0.0600 
    169 H169        1.6554  -13.5979  -43.8079 H         1 UNK         0.3000 
    170 H170        0.8413  -12.4424  -40.6210 H         1 UNK         0.0600 
    171 H171        2.2200  -10.4782  -41.1985 H         1 UNK         0.0600 
    172 H172        1.7336  -10.5804  -42.8828 H         1 UNK         0.0600 
    173 H173        0.5461  -10.1822  -41.6425 H         1 UNK         0.0600 
    174 H174       -0.2467  -12.0708  -43.2896 H         1 UNK         0.3000 
    175 H175       -1.9892  -15.1645  -43.3873 H         1 UNK         0.0600 
    176 H176       -3.2053  -12.4285  -42.7283 H         1 UNK         0.0600 
    177 H177       -4.0541  -13.7980  -43.4469 H         1 UNK         0.0600 
    178 H178       -3.4542  -13.9024  -41.7999 H         1 UNK         0.0600 
    179 H179       -2.2937  -12.8659  -44.9983 H         1 UNK         0.3000 
    180 H180       -0.4804  -14.0817  -47.5711 H         1 UNK         0.0600 
    181 H181       -1.9295  -11.5686  -46.5711 H         1 UNK         0.0600 
    182 H182       -2.7130  -13.0347  -47.1668 H         1 UNK         0.0600 
    183 H183       -1.7296  -12.0659  -48.2448 H         1 UNK         0.0600 
    184 H184        1.1932  -12.6373  -47.8580 H         1 UNK         0.3000 
    185 H185        2.0133  -10.1530  -47.6277 H         1 UNK         0.0600 
    186 H186        3.6214   -9.0276  -46.1304 H         1 UNK         0.0600 
    187 H187        2.0102   -8.9502  -45.4415 H         1 UNK         0.0600 
    188 H188        3.1817  -10.0974  -44.7999 H         1 UNK         0.0600 
    189 H189        4.2731  -11.4634  -46.4762 H         1 UNK         0.3000 
    190 H190       -0.1346  -22.0979  -47.5099 H         1 UNK         0.3000 
    191 H191       -0.1234  -23.8398  -49.7584 H         1 UNK         0.0600 
    192 H192       -1.5158  -21.7914  -49.6052 H         1 UNK         0.0600 
    193 H193       -2.4349  -22.4856  -48.2722 H         1 UNK         0.0600 
    194 H194       -2.5394  -23.1894  -49.8821 H         1 UNK         0.0600 
    195 H195       -0.9267  -24.4165  -46.4228 H         1 UNK         0.3000 
    196 H196       -1.4886  -26.1653  -45.2004 H         1 UNK         0.0600 
    197 H197       -0.5121  -28.3712  -45.8883 H         1 UNK         0.0600 
    198 H198        0.6175  -27.0486  -46.1126 H         1 UNK         0.0600 
    199 H199       -0.2021  -27.7373  -47.5057 H         1 UNK         0.0600 
    200 H200       -2.0736  -28.5237  -47.6262 H         1 UNK         0.3000 
    201 H201       -4.7932  -28.9335  -46.9014 H         1 UNK         0.0600 
    202 H202       -3.3140  -30.7447  -47.7306 H         1 UNK         0.0600 
    203 H203       -3.1860  -29.9574  -49.3045 H         1 UNK         0.0600 
    204 H204       -4.7291  -30.6051  -48.7609 H         1 UNK         0.0600 
    205 H205       -3.3395  -26.8724  -49.3778 H         1 UNK         0.3000 
    206 H206       -5.8629  -26.4802  -50.8304 H         1 UNK         0.0600 
    207 H207       -3.7047  -26.4602  -52.0484 H         1 UNK         0.0600 
    208 H208       -4.5185  -24.9150  -52.1887 H         1 UNK         0.0600 
    209 H209       -3.1508  -25.0885  -51.0965 H         1 UNK         0.0600 
    210 H210       -4.3666  -25.2115  -48.0384 H         1 UNK         0.3000 
    211 H211       -4.8447  -23.7104  -46.5049 H         1 UNK         0.0600 
    212 H212       -7.6877  -24.2529  -47.5053 H         1 UNK         0.0600 
    213 H213       -7.2335  -23.7754  -45.8730 H         1 UNK         0.0600 
    214 H214       -6.7416  -25.3412  -46.4901 H         1 UNK         0.0600 
    215 H215       -4.6153  -22.3735  -49.2804 H         1 UNK         0.3000 
    216 H216       -4.8246  -20.4127  -50.3111 H         1 UNK         0.0600 
    217 H217       -3.8736  -19.3025  -48.3463 H         1 UNK         0.0600 
    218 H218       -5.4634  -19.1787  -47.5884 H         1 UNK         0.0600 
    219 H219       -5.1083  -18.2858  -49.0551 H         1 UNK         0.0600 
    220 H220       -7.0043  -22.2970  -50.1114 H         1 UNK         0.3000 
    221 H221       -9.3197  -20.5485  -50.8654 H         1 UNK         0.0600 
    222 H222       -9.2763  -23.4281  -49.8000 H         1 UNK         0.0600 
    223 H223       -9.8108  -22.0050  -48.9112 H         1 UNK         0.0600 
    224 H224      -10.7093  -22.5472  -50.3213 H         1 UNK         0.0600 
    225 H225       -7.5272  -23.5931  -51.5834 H         1 UNK         0.3000 
    226 H226       -8.5400  -23.6205  -54.3736 H         1 UNK         0.0600 
    227 H227       -8.5508  -25.7306  -53.0475 H         1 UNK         0.0600 
    228 H228       -7.4748  -25.8529  -54.4309 H         1 UNK         0.0600 
    229 H229       -6.8071  -25.6120  -52.8232 H         1 UNK         0.0600 
    230 H230       -5.7629  -22.6022  -52.5658 H         1 UNK         0.3000 
    231 H231       -3.8464  -22.6851  -54.7897 H         1 UNK         0.0600 
    232 H232       -2.3488  -21.5639  -53.1133 H         1 UNK         0.0600 
    233 H233       -3.0466  -23.0263  -52.4577 H         1 UNK         0.0600 
    234 H234       -3.6837  -21.4561  -51.9778 H         1 UNK         0.0600 
    235 H235       -2.7148  -20.6608  -55.4092 H         1 UNK         0.3000 
    236 H236       -4.3927  -18.6992  -56.5042 H         1 UNK         0.0600 
    237 H237       -2.1567  -19.2869  -57.4048 H         1 UNK         0.0600 
    238 H238       -2.2334  -17.5653  -57.0696 H         1 UNK         0.0600 
    239 H239       -1.3739  -18.6316  -55.9653 H         1 UNK         0.0600 
    240 H240       -2.9930  -18.8222  -53.3191 H         1 UNK         0.3000 
    241 H241       -3.3963  -16.0514  -52.6050 H         1 UNK         0.0600 
    242 H242       -5.7958  -18.5521  -53.1527 H         1 UNK         0.3800 
    243 H243       -7.0250  -17.7894  -52.1744 H         1 UNK         0.3800 
    244 H244       -3.0821  -16.8839  -50.2427 H         1 UNK         0.0800 
    245 H245       -3.0506  -18.5241  -50.8399 H         1 UNK         0.0800 
    246 H246       -0.6342  -19.6558  -51.5887 H         1 UNK         0.0800 
    247 H247       -0.8853  -19.1874  -49.9232 H         1 UNK         0.0800 
@<TRIPOS>BOND
     1    1    2 1    
     2    1  127 1    
     3    1  128 1    
     4    1  129 1    
     5    2    3 2    
     6    2    4 am   BACKBONE|DICT|INTERRES
     7    4    5 1    
     8    4  130 1    
     9    5    6 1    
    10    5   65 1    
    11    5  131 1    
    12    6    7 1    
    13    6  132 1    
    14    6  133 1    
    15    7    8 1    
    16    8    9 1    
    17    8  134 1    
    18    8  135 1    
    19    9   10 ar   
    20    9   14 ar   
    21   10   11 ar   
    22   10  136 1    
    23   11   12 ar   
    24   11  126 1    
    25   12   13 ar   
    26   12  137 1    
    27   13   14 ar   
    28   13   15 1    
    29   14  138 1    
    30   15   16 1    
    31   15  139 1    
    32   15  140 1    
    33   16   17 1    
    34   17   18 1    
    35   17  141 1    
    36   17  142 1    
    37   18   19 1    
    38   18   67 1    
    39   18  143 1    
    40   19   20 am   BACKBONE|DICT|INTERRES
    41   19  144 1    
    42   20   21 2    
    43   20   22 1    
    44   22   23 1    
    45   22   24 1    
    46   22  145 1    
    47   23  146 1    
    48   23  147 1    
    49   23  148 1    
    50   24   25 am   BACKBONE|DICT|INTERRES
    51   24  149 1    
    52   25   26 2    
    53   25   27 1    
    54   27   28 1    
    55   27   29 1    
    56   27  150 1    
    57   28  151 1    
    58   28  152 1    
    59   28  153 1    
    60   29   30 am   BACKBONE|DICT|INTERRES
    61   29  154 1    
    62   30   31 2    
    63   30   32 1    
    64   32   33 1    
    65   32   34 1    
    66   32  155 1    
    67   33  156 1    
    68   33  157 1    
    69   33  158 1    
    70   34   35 am   BACKBONE|DICT|INTERRES
    71   34  159 1    
    72   35   36 2    
    73   35   37 1    
    74   37   38 1    
    75   37   39 1    
    76   37  160 1    
    77   38  161 1    
    78   38  162 1    
    79   38  163 1    
    80   39   40 am   BACKBONE|DICT|INTERRES
    81   39  164 1    
    82   40   41 2    
    83   40   42 1    
    84   42   43 1    
    85   42   44 1    
    86   42  165 1    
    87   43  166 1    
    88   43  167 1    
    89   43  168 1    
    90   44   45 am   BACKBONE|DICT|INTERRES
    91   44  169 1    
    92   45   46 2    
    93   45   47 1    
    94   47   48 1    
    95   47   49 1    
    96   47  170 1    
    97   48  171 1    
    98   48  172 1    
    99   48  173 1    
   100   49   50 am   BACKBONE|DICT|INTERRES
   101   49  174 1    
   102   50   51 2    
   103   50   52 1    
   104   52   53 1    
   105   52   54 1    
   106   52  175 1    
   107   53  176 1    
   108   53  177 1    
   109   53  178 1    
   110   54   55 am   BACKBONE|DICT|INTERRES
   111   54  179 1    
   112   55   56 2    
   113   55   57 1    
   114   57   58 1    
   115   57   59 1    
   116   57  180 1    
   117   58  181 1    
   118   58  182 1    
   119   58  183 1    
   120   59   60 am   BACKBONE|DICT|INTERRES
   121   59  184 1    
   122   60   61 2    
   123   60   62 1    
   124   62   63 1    
   125   62   64 1    
   126   62  185 1    
   127   63  186 1    
   128   63  187 1    
   129   63  188 1    
   130   64   65 am   BACKBONE|DICT|INTERRES
   131   64  189 1    
   132   65   66 2    
   133   67   68 2    
   134   67   69 am   BACKBONE|DICT|INTERRES
   135   69   70 1    
   136   69  190 1    
   137   70   71 1    
   138   70   72 1    
   139   70  191 1    
   140   71  192 1    
   141   71  193 1    
   142   71  194 1    
   143   72   73 2    
   144   72   74 am   BACKBONE|DICT|INTERRES
   145   74   75 1    
   146   74  195 1    
   147   75   76 1    
   148   75   77 1    
   149   75  196 1    
   150   76  197 1    
   151   76  198 1    
   152   76  199 1    
   153   77   78 2    
   154   77   79 am   BACKBONE|DICT|INTERRES
   155   79   80 1    
   156   79  200 1    
   157   80   81 1    
   158   80   82 1    
   159   80  201 1    
   160   81  202 1    
   161   81  203 1    
   162   81  204 1    
   163   82   83 2    
   164   82   84 am   BACKBONE|DICT|INTERRES
   165   84   85 1    
   166   84  205 1    
   167   85   86 1    
   168   85   87 1    
   169   85  206 1    
   170   86  207 1    
   171   86  208 1    
   172   86  209 1    
   173   87   88 2    
   174   87   89 am   BACKBONE|DICT|INTERRES
   175   89   90 1    
   176   89  210 1    
   177   90   91 1    
   178   90   92 1    
   179   90  211 1    
   180   91  212 1    
   181   91  213 1    
   182   91  214 1    
   183   92   93 2    
   184   92   94 am   BACKBONE|DICT|INTERRES
   185   94   95 1    
   186   94  215 1    
   187   95   96 1    
   188   95   97 1    
   189   95  216 1    
   190   96  217 1    
   191   96  218 1    
   192   96  219 1    
   193   97   98 2    
   194   97   99 am   BACKBONE|DICT|INTERRES
   195   99  100 1    
   196   99  220 1    
   197  100  101 1    
   198  100  102 1    
   199  100  221 1    
   200  101  222 1    
   201  101  223 1    
   202  101  224 1    
   203  102  103 2    
   204  102  104 am   BACKBONE|DICT|INTERRES
   205  104  105 1    
   206  104  225 1    
   207  105  106 1    
   208  105  107 1    
   209  105  226 1    
   210  106  227 1    
   211  106  228 1    
   212  106  229 1    
   213  107  108 2    
   214  107  109 am   BACKBONE|DICT|INTERRES
   215  109  110 1    
   216  109  230 1    
   217  110  111 1    
   218  110  112 1    
   219  110  231 1    
   220  111  232 1    
   221  111  233 1    
   222  111  234 1    
   223  112  113 2    
   224  112  114 am   BACKBONE|DICT|INTERRES
   225  114  115 1    
   226  114  235 1    
   227  115  116 1    
   228  115  117 1    
   229  115  236 1    
   230  116  237 1    
   231  116  238 1    
   232  116  239 1    
   233  117  118 2    
   234  117  119 am   BACKBONE|DICT|INTERRES
   235  119  120 1    
   236  119  240 1    
   237  120  121 1    
   238  120  124 1    
   239  120  241 1    
   240  121  122 am   BACKBONE|DICT|INTERRES
   241  121  123 2    
   242  122  242 1    
   243  122  243 1    
   244  124  125 1    
   245  124  244 1    
   246  124  245 1    
   247  125  126 1    
   248  126  246 1    
   249  126  247 1    
@<TRIPOS>SUBSTRUCTURE
     1 UNK         1 GROUP             0       ****    0 ROOT    
