@<TRIPOS>MOLECULE
3R540
247   249    1
SMALL
USER_CHARGES


@<TRIPOS>ATOM
      1 CA         -0.9036  -11.6574  -46.4872 C.3       0 UNK        -0.1800 
      2 C           0.3317  -11.7786  -47.3671 C.2       0 UNK         0.5000 
      3 O           0.4522  -11.0644  -48.3633 O.2       0 UNK        -0.5000 
      4 N           1.2489  -12.6778  -46.9961 N.am      1 UNK        -0.5000 
      5 CA          2.5528  -12.8520  -47.6436 C.3       1 UNK         0.1400 
      6 C6          3.0827  -14.2997  -47.4811 C.3       23 UNK        -0.0398 
      7 S7          2.0187  -15.5127  -48.3236 S.3       23 UNK        -0.2404 
      8 C8          2.9681  -15.8684  -49.8323 C.3       23 UNK        -0.0205 
      9 C9          2.1622  -16.7650  -50.7573 C.ar      23 UNK        -0.0193 
     10 C10         1.4686  -16.2210  -51.8405 C.ar      23 UNK        -0.1150 
     11 C11         0.6614  -17.0319  -52.6430 C.ar      23 UNK        -0.0193 
     12 C12         0.5888  -18.4039  -52.3777 C.ar      23 UNK        -0.1150 
     13 C13         1.2919  -18.9710  -51.3096 C.ar      23 UNK        -0.0193 
     14 C14         2.0798  -18.1367  -50.5041 C.ar      23 UNK        -0.1150 
     15 C15         1.1571  -20.4802  -51.0793 C.3       23 UNK        -0.0205 
     16 S16         2.0895  -21.1760  -49.6724 S.3       23 UNK        -0.2404 
     17 C17         1.1030  -20.5930  -48.2513 C.3       23 UNK        -0.0398 
     18 CA          0.3696  -21.7494  -47.5298 C.3       11 UNK         0.1400 
     19 N           0.1358  -21.4637  -46.1130 N.am      11 UNK        -0.5000 
     20 C          -0.2663  -22.3734  -45.2139 C.2       10 UNK         0.5000 
     21 O          -0.4573  -23.5603  -45.4813 O.2       10 UNK        -0.5000 
     22 CA         -0.5415  -21.8651  -43.7872 C.3       10 UNK         0.1400 
     23 CB          0.7685  -21.6959  -43.0036 C.3       10 UNK        -0.1800 
     24 N          -1.2908  -20.6083  -43.7741 N.am      10 UNK        -0.5000 
     25 C          -2.5423  -20.4697  -44.2349 C.2       9 UNK         0.5000 
     26 O          -3.2141  -21.4026  -44.6760 O.2       9 UNK        -0.5000 
     27 CA         -3.1221  -19.0428  -44.2539 C.3       9 UNK         0.1400 
     28 CB         -3.6154  -18.6290  -42.8597 C.3       9 UNK        -0.1800 
     29 N          -2.1668  -18.0525  -44.7525 N.am      9 UNK        -0.5000 
     30 C          -1.6481  -18.0552  -45.9881 C.2       8 UNK         0.5000 
     31 O          -1.9498  -18.8743  -46.8555 O.2       8 UNK        -0.5000 
     32 CA         -0.5712  -17.0023  -46.2941 C.3       8 UNK         0.1400 
     33 CB         -1.2098  -15.6426  -46.6139 C.3       8 UNK        -0.1800 
     34 N           0.3957  -16.8661  -45.2025 N.am      8 UNK        -0.5000 
     35 C           1.2350  -17.8398  -44.8179 C.2       7 UNK         0.5000 
     36 O           1.3134  -18.9340  -45.3736 O.2       7 UNK        -0.5000 
     37 CA          2.0805  -17.5758  -43.5603 C.3       7 UNK         0.1400 
     38 CB          3.3481  -16.7768  -43.8994 C.3       7 UNK        -0.1800 
     39 N           1.3128  -16.8811  -42.5277 N.am      7 UNK        -0.5000 
     40 C           0.2881  -17.4281  -41.8557 C.2       6 UNK         0.5000 
     41 O          -0.0748  -18.5957  -41.9951 O.2       6 UNK        -0.5000 
     42 CA         -0.4941  -16.4981  -40.9093 C.3       6 UNK         0.1400 
     43 CB          0.1556  -16.4738  -39.5179 C.3       6 UNK        -0.1800 
     44 N          -0.5908  -15.1301  -41.4221 N.am      6 UNK        -0.5000 
     45 C          -1.2314  -14.7800  -42.5476 C.2       5 UNK         0.5000 
     46 O          -1.8815  -15.5708  -43.2295 O.2       5 UNK        -0.5000 
     47 CA         -1.0665  -13.3220  -43.0202 C.3       5 UNK         0.1400 
     48 CB         -2.2357  -12.4550  -42.5330 C.3       5 UNK        -0.1800 
     49 N           0.1995  -12.7352  -42.5695 N.am      5 UNK        -0.5000 
     50 C           1.3988  -13.0697  -43.0623 C.2       4 UNK         0.5000 
     51 O           1.5535  -13.7779  -44.0627 O.2       4 UNK        -0.5000 
     52 CA          2.6142  -12.6070  -42.2436 C.3       4 UNK         0.1400 
     53 CB          2.7116  -13.4354  -40.9432 C.3       4 UNK        -0.1800 
     54 N           3.8270  -12.7678  -43.0401 N.am      4 UNK        -0.5000 
     55 C           5.0510  -12.3319  -42.7094 C.2       3 UNK         0.5000 
     56 O           5.3079  -11.7099  -41.6782 O.2       3 UNK        -0.5000 
     57 CA          6.1663  -12.5929  -43.7287 C.3       3 UNK         0.1400 
     58 CB          6.4077  -14.1004  -43.9411 C.3       3 UNK        -0.1800 
     59 N           5.7958  -11.9426  -44.9764 N.am      3 UNK        -0.5000 
     60 C           6.5907  -11.6367  -46.0040 C.2       2 UNK         0.5000 
     61 O           7.7981  -11.8817  -46.0292 O.2       2 UNK        -0.5000 
     62 CA          5.8938  -10.9630  -47.2119 C.3       2 UNK         0.1400 
     63 CB          6.8504  -10.7292  -48.3951 C.3       2 UNK        -0.1800 
     64 N           4.7359  -11.7311  -47.6874 N.am      2 UNK        -0.5000 
     65 C           3.5580  -11.8411  -47.0572 C.2       1 UNK         0.5000 
     66 O           3.2928  -11.2289  -46.0174 O.2       1 UNK        -0.5000 
     67 C          -0.9283  -22.1600  -48.2548 C.2       11 UNK         0.5000 
     68 O          -0.9052  -23.1185  -49.0237 O.2       11 UNK        -0.5000 
     69 N          -2.0449  -21.4770  -47.9593 N.am      12 UNK        -0.5000 
     70 CA         -3.3810  -21.8197  -48.4497 C.3       12 UNK         0.1400 
     71 CB         -4.3999  -20.7548  -48.0178 C.3       12 UNK        -0.1800 
     72 C          -3.8424  -23.2099  -47.9859 C.2       12 UNK         0.5000 
     73 O          -4.3439  -23.9800  -48.8038 O.2       12 UNK        -0.5000 
     74 N          -3.6462  -23.5164  -46.6959 N.am      13 UNK        -0.5000 
     75 CA         -3.9550  -24.8181  -46.1028 C.3       13 UNK         0.1400 
     76 CB         -3.7354  -24.7637  -44.5836 C.3       13 UNK        -0.1800 
     77 C          -3.1485  -25.9641  -46.7405 C.2       13 UNK         0.5000 
     78 O          -3.7263  -27.0049  -47.0575 O.2       13 UNK        -0.5000 
     79 N          -1.8455  -25.7314  -46.9570 N.am      14 UNK        -0.5000 
     80 CA         -0.9401  -26.6459  -47.6534 C.3       14 UNK         0.1400 
     81 CB          0.5034  -26.1358  -47.5267 C.3       14 UNK        -0.1800 
     82 C          -1.3236  -26.8506  -49.1312 C.2       14 UNK         0.5000 
     83 O          -1.3397  -27.9879  -49.6046 O.2       14 UNK        -0.5000 
     84 N          -1.6701  -25.7583  -49.8241 N.am      15 UNK        -0.5000 
     85 CA         -2.1263  -25.7297  -51.2142 C.3       15 UNK         0.1400 
     86 CB         -1.8549  -24.3347  -51.7982 C.3       15 UNK        -0.1800 
     87 C          -3.6043  -26.1496  -51.3609 C.2       15 UNK         0.5000 
     88 O          -4.4086  -25.4027  -51.9234 O.2       15 UNK        -0.5000 
     89 N          -3.9213  -27.3494  -50.8539 N.am      16 UNK        -0.5000 
     90 CA         -5.1859  -28.0804  -50.9825 C.3       16 UNK         0.1400 
     91 CB         -5.2959  -28.6774  -52.4001 C.3       16 UNK        -0.1800 
     92 C          -6.4355  -27.2747  -50.5655 C.2       16 UNK         0.5000 
     93 O          -7.4671  -27.3497  -51.2357 O.2       16 UNK        -0.5000 
     94 N          -6.3113  -26.5277  -49.4583 N.am      17 UNK        -0.5000 
     95 CA         -7.3260  -25.6473  -48.8711 C.3       17 UNK         0.1400 
     96 CB         -8.5263  -26.4598  -48.3407 C.3       17 UNK        -0.1800 
     97 C          -7.7316  -24.5070  -49.8284 C.2       17 UNK         0.5000 
     98 O          -8.8986  -24.3880  -50.2072 O.2       17 UNK        -0.5000 
     99 N          -6.7341  -23.6868  -50.1811 N.am      18 UNK        -0.5000 
    100 CA        -6.8060  -22.4839  -51.0113 C.3       18 UNK         0.1400 
    101 CB        -7.7047  -21.4125  -50.3560 C.3       18 UNK        -0.1800 
    102 C         -7.1990  -22.7823  -52.4704 C.2       18 UNK         0.5000 
    103 O         -8.0734  -22.1121  -53.0255 O.2       18 UNK        -0.5000 
    104 N         -6.5274  -23.7620  -53.0915 N.am      19 UNK        -0.5000 
    105 CA        -6.6790  -24.1052  -54.5084 C.3       19 UNK         0.1400 
    106 CB        -6.1747  -25.5392  -54.7394 C.3       19 UNK        -0.1800 
    107 C         -5.9687  -23.0697  -55.4067 C.2       19 UNK         0.5000 
    108 O         -4.9139  -23.3558  -55.9745 O.2       19 UNK        -0.5000 
    109 N         -6.5480  -21.8615  -55.4619 N.am      20 UNK        -0.5000 
    110 CA        -6.0872  -20.6470  -56.1519 C.3       20 UNK         0.1400 
    111 CB        -5.9204  -20.8884  -57.6666 C.3       20 UNK        -0.1800 
    112 C         -4.8387  -19.9871  -55.5230 C.2       20 UNK         0.5000 
    113 O         -4.3265  -19.0111  -56.0739 O.2       20 UNK        -0.5000 
    114 N         -4.3816  -20.5036  -54.3766 N.am      21 UNK        -0.5000 
    115 CA        -3.2804  -19.9615  -53.5865 C.3       21 UNK         0.1400 
    116 CB        -2.7019  -21.0922  -52.7266 C.3       21 UNK        -0.1800 
    117 C         -3.7487  -18.8037  -52.6895 C.2       21 UNK         0.5000 
    118 O         -4.9076  -18.7829  -52.2675 O.2       21 UNK        -0.5000 
    119 N         -2.8225  -17.8869  -52.3871 N.am      22 UNK        -0.5000 
    120 CA        -3.0319  -16.7576  -51.4673 C.3       22 UNK         0.1400 
    121 C         -3.1618  -17.1980  -49.9831 C.2       22 UNK         0.5000 
    122 N         -2.4037  -18.2001  -49.5534 N.am      22 UNK        -0.7600 
    123 O         -3.9276  -16.6134  -49.2229 O.2       22 UNK        -0.5000 
    124 C124       -1.9090  -15.6913  -51.5641 C.3       23 UNK        -0.0398 
    125 S125       -1.4164  -15.2012  -53.2596 S.3       23 UNK        -0.2404 
    126 C126       -0.1510  -16.4247  -53.7820 C.3       23 UNK        -0.0205 
    127 H127       -1.4420  -12.6038  -46.4474 H         1 UNK         0.0600 
    128 H128       -1.5829  -10.8986  -46.8760 H         1 UNK         0.0600 
    129 H129       -0.6203  -11.3699  -45.4745 H         1 UNK         0.0600 
    130 H130        1.1318  -13.1820  -46.1255 H         1 UNK         0.3000 
    131 H131        2.4586  -12.6395  -48.7108 H         1 UNK         0.0600 
    132 H132        4.0976  -14.4026  -47.8686 H         1 UNK         0.0800 
    133 H133        3.1348  -14.5705  -46.4256 H         1 UNK         0.0800 
    134 H134        3.9093  -16.3535  -49.5694 H         1 UNK         0.0800 
    135 H135        3.2236  -14.9336  -50.3337 H         1 UNK         0.0800 
    136 H136        1.5187  -15.1586  -52.0347 H         1 UNK         0.1150 
    137 H137       -0.0173  -19.0411  -53.0060 H         1 UNK         0.1150 
    138 H138        2.6259  -18.5341  -49.6620 H         1 UNK         0.1150 
    139 H139        0.1055  -20.7346  -50.9496 H         1 UNK         0.0800 
    140 H140        1.4878  -20.9944  -51.9827 H         1 UNK         0.0800 
    141 H141        0.4159  -19.7965  -48.5435 H         1 UNK         0.0800 
    142 H142        1.8190  -20.1290  -47.5737 H         1 UNK         0.0800 
    143 H143        1.0288  -22.6204  -47.5474 H         1 UNK         0.0600 
    144 H144        0.3189  -20.5124  -45.8049 H         1 UNK         0.3000 
    145 H145       -1.1456  -22.6187  -43.2779 H         1 UNK         0.0600 
    146 H146        0.5740  -21.4118  -41.9692 H         1 UNK         0.0600 
    147 H147        1.3354  -22.6275  -42.9846 H         1 UNK         0.0600 
    148 H148        1.4073  -20.9307  -43.4450 H         1 UNK         0.0600 
    149 H149       -0.8197  -19.7999  -43.3794 H         1 UNK         0.3000 
    150 H150       -3.9795  -19.0424  -44.9298 H         1 UNK         0.0600 
    151 H151       -4.3686  -19.3261  -42.4906 H         1 UNK         0.0600 
    152 H152       -4.0698  -17.6382  -42.8804 H         1 UNK         0.0600 
    153 H153       -2.8035  -18.6088  -42.1331 H         1 UNK         0.0600 
    154 H154       -1.9053  -17.3041  -44.1176 H         1 UNK         0.3000 
    155 H155       -0.0287  -17.3381  -47.1801 H         1 UNK         0.0600 
    156 H156       -1.8322  -15.2763  -45.7988 H         1 UNK         0.0600 
    157 H157       -1.8430  -15.7134  -47.4986 H         1 UNK         0.0600 
    158 H158       -0.4523  -14.8896  -46.8202 H         1 UNK         0.0600 
    159 H159        0.3900  -15.9973  -44.6885 H         1 UNK         0.3000 
    160 H160        2.3904  -18.5426  -43.1577 H         1 UNK         0.0600 
    161 H161        3.9607  -16.6102  -43.0132 H         1 UNK         0.0600 
    162 H162        3.1136  -15.8058  -44.3317 H         1 UNK         0.0600 
    163 H163        3.9622  -17.3138  -44.6233 H         1 UNK         0.0600 
    164 H164        1.5280  -15.9077  -42.3791 H         1 UNK         0.3000 
    165 H165       -1.5061  -16.8957  -40.8100 H         1 UNK         0.0600 
    166 H166       -0.4284  -15.8732  -38.8204 H         1 UNK         0.0600 
    167 H167        0.2221  -17.4799  -39.1017 H         1 UNK         0.0600 
    168 H168        1.1661  -16.0645  -39.5501 H         1 UNK         0.0600 
    169 H169       -0.1035  -14.4162  -40.9033 H         1 UNK         0.3000 
    170 H170       -1.0798  -13.3337  -44.1108 H         1 UNK         0.0600 
    171 H171       -3.1896  -12.8607  -42.8727 H         1 UNK         0.0600 
    172 H172       -2.2712  -12.3986  -41.4444 H         1 UNK         0.0600 
    173 H173       -2.1597  -11.4389  -42.9208 H         1 UNK         0.0600 
    174 H174        0.1512  -12.1288  -41.7630 H         1 UNK         0.3000 
    175 H175        2.4876  -11.5493  -42.0042 H         1 UNK         0.0600 
    176 H176        2.8816  -14.4922  -41.1526 H         1 UNK         0.0600 
    177 H177        3.5250  -13.0916  -40.3051 H         1 UNK         0.0600 
    178 H178        1.8009  -13.3579  -40.3490 H         1 UNK         0.0600 
    179 H179        3.6745  -13.2482  -43.9173 H         1 UNK         0.3000 
    180 H180        7.0838  -12.1365  -43.3512 H         1 UNK         0.0600 
    181 H181        5.5510  -14.5885  -44.4066 H         1 UNK         0.0600 
    182 H182        6.5983  -14.6026  -42.9919 H         1 UNK         0.0600 
    183 H183        7.2745  -14.2750  -44.5784 H         1 UNK         0.0600 
    184 H184        4.8213  -11.6574  -45.0523 H         1 UNK         0.3000 
    185 H185        5.5440   -9.9857  -46.8725 H         1 UNK         0.0600 
    186 H186        7.7010  -10.1153  -48.0963 H         1 UNK         0.0600 
    187 H187        7.2431  -11.6681  -48.7873 H         1 UNK         0.0600 
    188 H188        6.3487  -10.2081  -49.2108 H         1 UNK         0.0600 
    189 H189        4.8912  -12.2726  -48.5254 H         1 UNK         0.3000 
    190 H190       -1.9823  -20.6734  -47.3394 H         1 UNK         0.3000 
    191 H191       -3.3442  -21.8318  -49.5406 H         1 UNK         0.0600 
    192 H192       -4.3781  -20.5840  -46.9421 H         1 UNK         0.0600 
    193 H193       -5.4136  -21.0568  -48.2765 H         1 UNK         0.0600 
    194 H194       -4.2191  -19.8025  -48.5105 H         1 UNK         0.0600 
    195 H195       -3.2714  -22.8070  -46.0728 H         1 UNK         0.3000 
    196 H196       -5.0129  -25.0191  -46.2819 H         1 UNK         0.0600 
    197 H197       -3.9838  -25.7186  -44.1189 H         1 UNK         0.0600 
    198 H198       -4.3656  -24.0033  -44.1222 H         1 UNK         0.0600 
    199 H199       -2.6998  -24.5353  -44.3319 H         1 UNK         0.0600 
    200 H200       -1.4458  -24.8576  -46.6274 H         1 UNK         0.3000 
    201 H201       -1.0011  -27.6166  -47.1570 H         1 UNK         0.0600 
    202 H202        0.8020  -26.0547  -46.4813 H         1 UNK         0.0600 
    203 H203        0.6267  -25.1544  -47.9852 H         1 UNK         0.0600 
    204 H204        1.2026  -26.8166  -48.0139 H         1 UNK         0.0600 
    205 H205       -1.6019  -24.8522  -49.3675 H         1 UNK         0.3000 
    206 H206       -1.5343  -26.4447  -51.7889 H         1 UNK         0.0600 
    207 H207       -0.7988  -24.0736  -51.7299 H         1 UNK         0.0600 
    208 H208       -2.1352  -24.2885  -52.8512 H         1 UNK         0.0600 
    209 H209       -2.4235  -23.5712  -51.2673 H         1 UNK         0.0600 
    210 H210       -3.1746  -27.8459  -50.3778 H         1 UNK         0.3000 
    211 H211       -5.1262  -28.9144  -50.2819 H         1 UNK         0.0600 
    212 H212       -5.3365  -27.8996  -53.1614 H         1 UNK         0.0600 
    213 H213       -6.1916  -29.2908  -52.5049 H         1 UNK         0.0600 
    214 H214       -4.4415  -29.3162  -52.6238 H         1 UNK         0.0600 
    215 H215       -5.4034  -26.5035  -49.0123 H         1 UNK         0.3000 
    216 H216       -6.8552  -25.1716  -48.0097 H         1 UNK         0.0600 
    217 H217       -9.2290  -25.8131  -47.8142 H         1 UNK         0.0600 
    218 H218       -8.2021  -27.2270  -47.6377 H         1 UNK         0.0600 
    219 H219       -9.0766  -26.9513  -49.1433 H         1 UNK         0.0600 
    220 H220       -5.8070  -23.9051  -49.8166 H         1 UNK         0.3000 
    221 H221       -5.7922  -22.0823  -51.0435 H         1 UNK         0.0600 
    222 H222       -8.7588  -21.6894  -50.3918 H         1 UNK         0.0600 
    223 H223       -7.4431  -21.2511  -49.3117 H         1 UNK         0.0600 
    224 H224       -7.6017  -20.4554  -50.8690 H         1 UNK         0.0600 
    225 H225       -5.8169  -24.2826  -52.5802 H         1 UNK         0.3000 
    226 H226       -7.7408  -24.0908  -54.7633 H         1 UNK         0.0600 
    227 H227       -6.7327  -26.2490  -54.1287 H         1 UNK         0.0600 
    228 H228       -6.3025  -25.8351  -55.7812 H         1 UNK         0.0600 
    229 H229       -5.1169  -25.6423  -54.4960 H         1 UNK         0.0600 
    230 H230       -7.3700  -21.7355  -54.8780 H         1 UNK         0.3000 
    231 H231       -6.8925  -19.9216  -56.0284 H         1 UNK         0.0600 
    232 H232       -6.8131  -21.3442  -58.0950 H         1 UNK         0.0600 
    233 H233       -5.0723  -21.5375  -57.8852 H         1 UNK         0.0600 
    234 H234       -5.7524  -19.9493  -58.1951 H         1 UNK         0.0600 
    235 H235       -4.8808  -21.2845  -53.9812 H         1 UNK         0.3000 
    236 H236       -2.5000  -19.5976  -54.2586 H         1 UNK         0.0600 
    237 H237       -1.8970  -20.7314  -52.0880 H         1 UNK         0.0600 
    238 H238       -3.4611  -21.5319  -52.0789 H         1 UNK         0.0600 
    239 H239       -2.2909  -21.8838  -53.3527 H         1 UNK         0.0600 
    240 H240       -1.8983  -17.9581  -52.7813 H         1 UNK         0.3000 
    241 H241       -3.9711  -16.2782  -51.7505 H         1 UNK         0.0600 
    242 H242       -2.4367  -18.4706  -48.5747 H         1 UNK         0.3800 
    243 H243       -1.7694  -18.6649  -50.1786 H         1 UNK         0.3800 
    244 H244       -2.2499  -14.7811  -51.0675 H         1 UNK         0.0800 
    245 H245       -1.0324  -15.9939  -50.9934 H         1 UNK         0.0800 
    246 H246       -0.6463  -17.2074  -54.3584 H         1 UNK         0.0800 
    247 H247        0.5332  -15.9369  -54.4778 H         1 UNK         0.0800 
@<TRIPOS>BOND
     1    1    2 1    
     2    1  127 1    
     3    1  128 1    
     4    1  129 1    
     5    2    3 2    
     6    2    4 am   BACKBONE|DICT|INTERRES
     7    4    5 1    
     8    4  130 1    
     9    5    6 1    
    10    5   65 1    
    11    5  131 1    
    12    6    7 1    
    13    6  132 1    
    14    6  133 1    
    15    7    8 1    
    16    8    9 1    
    17    8  134 1    
    18    8  135 1    
    19    9   10 ar   
    20    9   14 ar   
    21   10   11 ar   
    22   10  136 1    
    23   11   12 ar   
    24   11  126 1    
    25   12   13 ar   
    26   12  137 1    
    27   13   14 ar   
    28   13   15 1    
    29   14  138 1    
    30   15   16 1    
    31   15  139 1    
    32   15  140 1    
    33   16   17 1    
    34   17   18 1    
    35   17  141 1    
    36   17  142 1    
    37   18   19 1    
    38   18   67 1    
    39   18  143 1    
    40   19   20 am   BACKBONE|DICT|INTERRES
    41   19  144 1    
    42   20   21 2    
    43   20   22 1    
    44   22   23 1    
    45   22   24 1    
    46   22  145 1    
    47   23  146 1    
    48   23  147 1    
    49   23  148 1    
    50   24   25 am   BACKBONE|DICT|INTERRES
    51   24  149 1    
    52   25   26 2    
    53   25   27 1    
    54   27   28 1    
    55   27   29 1    
    56   27  150 1    
    57   28  151 1    
    58   28  152 1    
    59   28  153 1    
    60   29   30 am   BACKBONE|DICT|INTERRES
    61   29  154 1    
    62   30   31 2    
    63   30   32 1    
    64   32   33 1    
    65   32   34 1    
    66   32  155 1    
    67   33  156 1    
    68   33  157 1    
    69   33  158 1    
    70   34   35 am   BACKBONE|DICT|INTERRES
    71   34  159 1    
    72   35   36 2    
    73   35   37 1    
    74   37   38 1    
    75   37   39 1    
    76   37  160 1    
    77   38  161 1    
    78   38  162 1    
    79   38  163 1    
    80   39   40 am   BACKBONE|DICT|INTERRES
    81   39  164 1    
    82   40   41 2    
    83   40   42 1    
    84   42   43 1    
    85   42   44 1    
    86   42  165 1    
    87   43  166 1    
    88   43  167 1    
    89   43  168 1    
    90   44   45 am   BACKBONE|DICT|INTERRES
    91   44  169 1    
    92   45   46 2    
    93   45   47 1    
    94   47   48 1    
    95   47   49 1    
    96   47  170 1    
    97   48  171 1    
    98   48  172 1    
    99   48  173 1    
   100   49   50 am   BACKBONE|DICT|INTERRES
   101   49  174 1    
   102   50   51 2    
   103   50   52 1    
   104   52   53 1    
   105   52   54 1    
   106   52  175 1    
   107   53  176 1    
   108   53  177 1    
   109   53  178 1    
   110   54   55 am   BACKBONE|DICT|INTERRES
   111   54  179 1    
   112   55   56 2    
   113   55   57 1    
   114   57   58 1    
   115   57   59 1    
   116   57  180 1    
   117   58  181 1    
   118   58  182 1    
   119   58  183 1    
   120   59   60 am   BACKBONE|DICT|INTERRES
   121   59  184 1    
   122   60   61 2    
   123   60   62 1    
   124   62   63 1    
   125   62   64 1    
   126   62  185 1    
   127   63  186 1    
   128   63  187 1    
   129   63  188 1    
   130   64   65 am   BACKBONE|DICT|INTERRES
   131   64  189 1    
   132   65   66 2    
   133   67   68 2    
   134   67   69 am   BACKBONE|DICT|INTERRES
   135   69   70 1    
   136   69  190 1    
   137   70   71 1    
   138   70   72 1    
   139   70  191 1    
   140   71  192 1    
   141   71  193 1    
   142   71  194 1    
   143   72   73 2    
   144   72   74 am   BACKBONE|DICT|INTERRES
   145   74   75 1    
   146   74  195 1    
   147   75   76 1    
   148   75   77 1    
   149   75  196 1    
   150   76  197 1    
   151   76  198 1    
   152   76  199 1    
   153   77   78 2    
   154   77   79 am   BACKBONE|DICT|INTERRES
   155   79   80 1    
   156   79  200 1    
   157   80   81 1    
   158   80   82 1    
   159   80  201 1    
   160   81  202 1    
   161   81  203 1    
   162   81  204 1    
   163   82   83 2    
   164   82   84 am   BACKBONE|DICT|INTERRES
   165   84   85 1    
   166   84  205 1    
   167   85   86 1    
   168   85   87 1    
   169   85  206 1    
   170   86  207 1    
   171   86  208 1    
   172   86  209 1    
   173   87   88 2    
   174   87   89 am   BACKBONE|DICT|INTERRES
   175   89   90 1    
   176   89  210 1    
   177   90   91 1    
   178   90   92 1    
   179   90  211 1    
   180   91  212 1    
   181   91  213 1    
   182   91  214 1    
   183   92   93 2    
   184   92   94 am   BACKBONE|DICT|INTERRES
   185   94   95 1    
   186   94  215 1    
   187   95   96 1    
   188   95   97 1    
   189   95  216 1    
   190   96  217 1    
   191   96  218 1    
   192   96  219 1    
   193   97   98 2    
   194   97   99 am   BACKBONE|DICT|INTERRES
   195   99  100 1    
   196   99  220 1    
   197  100  101 1    
   198  100  102 1    
   199  100  221 1    
   200  101  222 1    
   201  101  223 1    
   202  101  224 1    
   203  102  103 2    
   204  102  104 am   BACKBONE|DICT|INTERRES
   205  104  105 1    
   206  104  225 1    
   207  105  106 1    
   208  105  107 1    
   209  105  226 1    
   210  106  227 1    
   211  106  228 1    
   212  106  229 1    
   213  107  108 2    
   214  107  109 am   BACKBONE|DICT|INTERRES
   215  109  110 1    
   216  109  230 1    
   217  110  111 1    
   218  110  112 1    
   219  110  231 1    
   220  111  232 1    
   221  111  233 1    
   222  111  234 1    
   223  112  113 2    
   224  112  114 am   BACKBONE|DICT|INTERRES
   225  114  115 1    
   226  114  235 1    
   227  115  116 1    
   228  115  117 1    
   229  115  236 1    
   230  116  237 1    
   231  116  238 1    
   232  116  239 1    
   233  117  118 2    
   234  117  119 am   BACKBONE|DICT|INTERRES
   235  119  120 1    
   236  119  240 1    
   237  120  121 1    
   238  120  124 1    
   239  120  241 1    
   240  121  122 am   BACKBONE|DICT|INTERRES
   241  121  123 2    
   242  122  242 1    
   243  122  243 1    
   244  124  125 1    
   245  124  244 1    
   246  124  245 1    
   247  125  126 1    
   248  126  246 1    
   249  126  247 1    
@<TRIPOS>SUBSTRUCTURE
     1 UNK         1 GROUP             0       ****    0 ROOT    
