@<TRIPOS>MOLECULE
3R540
247   249    1
SMALL
USER_CHARGES


@<TRIPOS>ATOM
      1 CA          3.4280  -11.6946  -47.3762 C.3       0 UNK        -0.1800 
      2 C           2.5547  -12.6966  -48.1174 C.2       0 UNK         0.5000 
      3 O           1.7540  -12.2930  -48.9589 O.2       0 UNK        -0.5000 
      4 N           2.6951  -13.9858  -47.7759 N.am      1 UNK        -0.5000 
      5 CA          2.0478  -15.2010  -48.3063 C.3       1 UNK         0.1400 
      6 C6          2.5643  -15.6585  -49.6989 C.3       23 UNK        -0.0398 
      7 S7          2.0320  -14.6976  -51.1655 S.3       23 UNK        -0.2404 
      8 C8          0.4816  -15.5091  -51.6858 C.3       23 UNK        -0.0205 
      9 C9          0.6595  -16.9853  -52.0052 C.ar      23 UNK        -0.0193 
     10 C10         1.1721  -17.3849  -53.2429 C.ar      23 UNK        -0.1150 
     11 C11         1.3566  -18.7413  -53.5278 C.ar      23 UNK        -0.0193 
     12 C12         1.0177  -19.6979  -52.5658 C.ar      23 UNK        -0.1150 
     13 C13         0.5002  -19.3098  -51.3273 C.ar      23 UNK        -0.0193 
     14 C14         0.3087  -17.9536  -51.0592 C.ar      23 UNK        -0.1150 
     15 C15         0.1790  -20.3539  -50.2714 C.3       23 UNK        -0.0205 
     16 S16         1.7016  -20.9168  -49.4422 S.3       23 UNK        -0.2404 
     17 C17         1.3665  -20.5623  -47.6830 C.3       23 UNK        -0.0398 
     18 CA          0.8240  -21.8082  -46.9392 C.3       11 UNK         0.1400 
     19 N           1.1619  -21.8162  -45.5125 N.am      11 UNK        -0.5000 
     20 C           0.9552  -22.8582  -44.6916 C.2       10 UNK         0.5000 
     21 O           0.5047  -23.9415  -45.0627 O.2       10 UNK        -0.5000 
     22 CA          1.2333  -22.6349  -43.1935 C.3       10 UNK         0.1400 
     23 CB          2.7334  -22.7400  -42.8828 C.3       10 UNK        -0.1800 
     24 N           0.7144  -21.3514  -42.7207 N.am      10 UNK        -0.5000 
     25 C          -0.5831  -21.0127  -42.7314 C.2       9 UNK         0.5000 
     26 O          -1.4881  -21.7737  -43.0715 O.2       9 UNK        -0.5000 
     27 CA         -0.9183  -19.5610  -42.3551 C.3       9 UNK         0.1400 
     28 CB         -0.9930  -19.4023  -40.8291 C.3       9 UNK        -0.1800 
     29 N           0.0458  -18.6185  -42.9312 N.am      9 UNK        -0.5000 
     30 C           0.1401  -18.3602  -44.2451 C.2       8 UNK         0.5000 
     31 O          -0.6309  -18.8228  -45.0837 O.2       8 UNK        -0.5000 
     32 CA          1.3175  -17.4851  -44.7101 C.3       8 UNK         0.1400 
     33 CB          0.9438  -15.9974  -44.7072 C.3       8 UNK        -0.1800 
     34 N           2.5145  -17.6947  -43.8975 N.am      8 UNK        -0.5000 
     35 C           3.2766  -18.7947  -43.9767 C.2       7 UNK         0.5000 
     36 O           3.0564  -19.7122  -44.7667 O.2       7 UNK        -0.5000 
     37 CA          4.4509  -18.9162  -42.9866 C.3       7 UNK         0.1400 
     38 CB          5.7281  -18.3192  -43.5947 C.3       7 UNK        -0.1800 
     39 N           4.1928  -18.2845  -41.6911 N.am      7 UNK        -0.5000 
     40 C           3.2227  -18.6447  -40.8401 C.2       6 UNK         0.5000 
     41 O           2.4415  -19.5715  -41.0621 O.2       6 UNK        -0.5000 
     42 CA          3.0593  -17.8123  -39.5478 C.3       6 UNK         0.1400 
     43 CB          4.1990  -16.7971  -39.3051 C.3       6 UNK        -0.1800 
     44 N           1.7600  -17.1294  -39.4878 N.am      6 UNK        -0.5000 
     45 C           1.2445  -16.3101  -40.4145 C.2       5 UNK         0.5000 
     46 O           1.8058  -16.0332  -41.4774 O.2       5 UNK        -0.5000 
     47 CA         -0.1304  -15.6990  -40.1139 C.3       5 UNK         0.1400 
     48 CB          0.0145  -14.3073  -39.4789 C.3       5 UNK        -0.1800 
     49 N          -0.8628  -15.5852  -41.3709 N.am      5 UNK        -0.5000 
     50 C          -2.1710  -15.8100  -41.5390 C.2       4 UNK         0.5000 
     51 O          -2.9365  -16.0822  -40.6127 O.2       4 UNK        -0.5000 
     52 CA         -2.7005  -15.7458  -42.9903 C.3       4 UNK         0.1400 
     53 CB         -4.2335  -15.5929  -43.0664 C.3       4 UNK        -0.1800 
     54 N          -2.0400  -14.7302  -43.8202 N.am      4 UNK        -0.5000 
     55 C          -1.9979  -13.4059  -43.6074 C.2       3 UNK         0.5000 
     56 O          -2.5148  -12.8466  -42.6400 O.2       3 UNK        -0.5000 
     57 CA         -1.2370  -12.5537  -44.6448 C.3       3 UNK         0.1400 
     58 CB          0.1519  -12.1748  -44.1054 C.3       3 UNK        -0.1800 
     59 N          -1.0689  -13.1791  -45.9611 N.am      3 UNK        -0.5000 
     60 C          -2.0517  -13.4647  -46.8290 C.2       2 UNK         0.5000 
     61 O          -3.2457  -13.3029  -46.5773 O.2       2 UNK        -0.5000 
     62 CA         -1.6373  -13.9991  -48.2163 C.3       2 UNK         0.1400 
     63 CB         -2.1227  -13.0529  -49.3270 C.3       2 UNK        -0.1800 
     64 N          -0.1868  -14.1474  -48.3462 N.am      2 UNK        -0.5000 
     65 C           0.5086  -15.2742  -48.1718 C.2       1 UNK         0.5000 
     66 O          -0.0148  -16.3497  -47.8839 O.2       1 UNK        -0.5000 
     67 C          -0.6892  -21.9836  -47.1729 C.2       11 UNK         0.5000 
     68 O          -1.0785  -22.7988  -48.0081 O.2       11 UNK        -0.5000 
     69 N          -1.5144  -21.2505  -46.4106 N.am      12 UNK        -0.5000 
     70 CA         -2.9737  -21.3451  -46.4478 C.3       12 UNK         0.1400 
     71 CB         -3.5968  -20.2619  -45.5552 C.3       12 UNK        -0.1800 
     72 C          -3.4988  -22.7425  -46.0808 C.2       12 UNK         0.5000 
     73 O          -4.3855  -23.2492  -46.7661 O.2       12 UNK        -0.5000 
     74 N          -2.9137  -23.3567  -45.0446 N.am      13 UNK        -0.5000 
     75 CA         -3.2085  -24.7257  -44.6248 C.3       13 UNK         0.1400 
     76 CB         -2.5320  -25.0030  -43.2736 C.3       13 UNK        -0.1800 
     77 C          -2.7918  -25.7755  -45.6727 C.2       13 UNK         0.5000 
     78 O          -3.5517  -26.7111  -45.9247 O.2       13 UNK        -0.5000 
     79 N          -1.6027  -25.6000  -46.2655 N.am      14 UNK        -0.5000 
     80 CA         -1.0371  -26.4980  -47.2718 C.3       14 UNK         0.1400 
     81 CB          0.4555  -26.1838  -47.4596 C.3       14 UNK        -0.1800 
     82 C          -1.7772  -26.4393  -48.6197 C.2       14 UNK         0.5000 
     83 O          -2.1126  -27.4871  -49.1736 O.2       14 UNK        -0.5000 
     84 N          -2.0072  -25.2221  -49.1293 N.am      15 UNK        -0.5000 
     85 CA         -2.6272  -24.9826  -50.4338 C.3       15 UNK         0.1400 
     86 CB         -2.1837  -23.6062  -50.9523 C.3       15 UNK        -0.1800 
     87 C          -4.1630  -25.0722  -50.4078 C.2       15 UNK         0.5000 
     88 O          -4.7693  -25.2084  -51.4710 O.2       15 UNK        -0.5000 
     89 N          -4.7674  -24.9487  -49.2164 N.am      16 UNK        -0.5000 
     90 CA         -6.2031  -24.9250  -48.8974 C.3       16 UNK         0.1400 
     91 CB         -6.9144  -26.2118  -49.3572 C.3       16 UNK        -0.1800 
     92 C          -6.9309  -23.6629  -49.4026 C.2       16 UNK         0.5000 
     93 O          -7.6648  -23.0359  -48.6385 O.2       16 UNK        -0.5000 
     94 N          -6.6940  -23.2955  -50.6668 N.am      17 UNK        -0.5000 
     95 CA         -7.1856  -22.0758  -51.3095 C.3       17 UNK         0.1400 
     96 CB         -7.3046  -22.3380  -52.8194 C.3       17 UNK        -0.1800 
     97 C          -6.2857  -20.8521  -51.0359 C.2       17 UNK         0.5000 
     98 O          -6.6544  -19.7396  -51.4138 O.2       17 UNK        -0.5000 
     99 N          -5.1232  -21.0720  -50.4013 N.am      18 UNK        -0.5000 
    100 CA        -4.0867  -20.0838  -50.0916 C.3       18 UNK         0.1400 
    101 CB        -4.5885  -19.0868  -49.0210 C.3       18 UNK        -0.1800 
    102 C         -3.5430  -19.4230  -51.3734 C.2       18 UNK         0.5000 
    103 O         -3.1642  -20.1406  -52.2992 O.2       18 UNK        -0.5000 
    104 N         -3.5296  -18.0846  -51.4201 N.am      19 UNK        -0.5000 
    105 CA        -3.0403  -17.2806  -52.5416 C.3       19 UNK         0.1400 
    106 CB        -3.1141  -15.7966  -52.1537 C.3       19 UNK        -0.1800 
    107 C         -3.7815  -17.5267  -53.8687 C.2       19 UNK         0.5000 
    108 O         -3.1778  -17.3733  -54.9305 O.2       19 UNK        -0.5000 
    109 N         -5.0562  -17.9394  -53.7941 N.am      20 UNK        -0.5000 
    110 CA        -5.8873  -18.2652  -54.9543 C.3       20 UNK         0.1400 
    111 CB        -7.3543  -18.3952  -54.5211 C.3       20 UNK        -0.1800 
    112 C         -5.4194  -19.5214  -55.7156 C.2       20 UNK         0.5000 
    113 O         -5.7293  -19.6453  -56.9011 O.2       20 UNK        -0.5000 
    114 N         -4.6357  -20.3975  -55.0643 N.am      21 UNK        -0.5000 
    115 CA        -3.9752  -21.5422  -55.7027 C.3       21 UNK         0.1400 
    116 CB        -3.3580  -22.4469  -54.6250 C.3       21 UNK        -0.1800 
    117 C         -2.8959  -21.1211  -56.7226 C.2       21 UNK         0.5000 
    118 O         -2.5973  -21.8879  -57.6389 O.2       21 UNK        -0.5000 
    119 N         -2.3535  -19.9096  -56.5524 N.am      22 UNK        -0.5000 
    120 CA        -1.3786  -19.2637  -57.4414 C.3       22 UNK         0.1400 
    121 C         -2.0209  -18.1696  -58.3461 C.2       22 UNK         0.5000 
    122 N         -3.3425  -18.0547  -58.4265 N.am      22 UNK        -0.7600 
    123 O         -1.3107  -17.4228  -59.0142 O.2       22 UNK        -0.5000 
    124 C124       -0.1663  -18.7273  -56.6354 C.3       23 UNK        -0.0398 
    125 S125        0.7949  -20.0891  -55.8939 S.3       23 UNK        -0.2404 
    126 C126        1.9724  -19.1783  -54.8488 C.3       23 UNK        -0.0205 
    127 H127        2.8045  -10.9791  -46.8400 H         1 UNK         0.0600 
    128 H128        4.0488  -11.1445  -48.0833 H         1 UNK         0.0600 
    129 H129        4.0844  -12.1812  -46.6545 H         1 UNK         0.0600 
    130 H130        3.3711  -14.1837  -47.0514 H         1 UNK         0.3000 
    131 H131        2.4004  -15.9684  -47.6148 H         1 UNK         0.0600 
    132 H132        2.3292  -16.7111  -49.8487 H         1 UNK         0.0800 
    133 H133        3.6544  -15.6288  -49.6885 H         1 UNK         0.0800 
    134 H134        0.0977  -14.9934  -52.5671 H         1 UNK         0.0800 
    135 H135       -0.2743  -15.3772  -50.9136 H         1 UNK         0.0800 
    136 H136        1.4455  -16.6372  -53.9742 H         1 UNK         0.1150 
    137 H137        1.1747  -20.7468  -52.7752 H         1 UNK         0.1150 
    138 H138       -0.0923  -17.6519  -50.1029 H         1 UNK         0.1150 
    139 H139       -0.5348  -19.9572  -49.5484 H         1 UNK         0.0800 
    140 H140       -0.3093  -21.2091  -50.7399 H         1 UNK         0.0800 
    141 H141        0.7155  -19.6924  -47.5724 H         1 UNK         0.0800 
    142 H142        2.3233  -20.2657  -47.2525 H         1 UNK         0.0800 
    143 H143        1.3142  -22.6900  -47.3583 H         1 UNK         0.0600 
    144 H144        1.6000  -20.9795  -45.1403 H         1 UNK         0.3000 
    145 H145        0.7184  -23.4225  -42.6394 H         1 UNK         0.0600 
    146 H146        2.9272  -22.6001  -41.8191 H         1 UNK         0.0600 
    147 H147        3.1179  -23.7228  -43.1581 H         1 UNK         0.0600 
    148 H148        3.3148  -21.9984  -43.4290 H         1 UNK         0.0600 
    149 H149        1.3891  -20.6828  -42.3635 H         1 UNK         0.3000 
    150 H150       -1.9049  -19.3308  -42.7624 H         1 UNK         0.0600 
    151 H151       -1.7050  -20.1098  -40.4022 H         1 UNK         0.0600 
    152 H152       -1.3300  -18.4077  -40.5481 H         1 UNK         0.0600 
    153 H153       -0.0328  -19.5811  -40.3475 H         1 UNK         0.0600 
    154 H154        0.7625  -18.2606  -42.3161 H         1 UNK         0.3000 
    155 H155        1.5443  -17.7663  -45.7410 H         1 UNK         0.0600 
    156 H156        0.7305  -15.6274  -43.7083 H         1 UNK         0.0600 
    157 H157        0.0550  -15.8259  -45.3113 H         1 UNK         0.0600 
    158 H158        1.7465  -15.3880  -45.1216 H         1 UNK         0.0600 
    159 H159        2.7088  -17.0055  -43.1798 H         1 UNK         0.3000 
    160 H160        4.6224  -19.9796  -42.8090 H         1 UNK         0.0600 
    161 H161        5.6282  -17.2471  -43.7690 H         1 UNK         0.0600 
    162 H162        5.9606  -18.7875  -44.5521 H         1 UNK         0.0600 
    163 H163        6.5868  -18.4754  -42.9414 H         1 UNK         0.0600 
    164 H164        4.7742  -17.4956  -41.4484 H         1 UNK         0.3000 
    165 H165        3.0742  -18.5288  -38.7254 H         1 UNK         0.0600 
    166 H166        4.0729  -16.2976  -38.3444 H         1 UNK         0.0600 
    167 H167        5.1713  -17.2909  -39.2802 H         1 UNK         0.0600 
    168 H168        4.2337  -16.0228  -40.0726 H         1 UNK         0.0600 
    169 H169        1.2143  -17.3204  -38.6591 H         1 UNK         0.3000 
    170 H170       -0.6623  -16.3565  -39.4233 H         1 UNK         0.0600 
    171 H171        0.5654  -14.3605  -38.5392 H         1 UNK         0.0600 
    172 H172        0.5479  -13.6195  -40.1366 H         1 UNK         0.0600 
    173 H173       -0.9609  -13.8716  -39.2615 H         1 UNK         0.0600 
    174 H174       -0.2836  -15.3872  -42.1743 H         1 UNK         0.3000 
    175 H175       -2.4510  -16.7087  -43.4381 H         1 UNK         0.0600 
    176 H176       -4.5729  -14.6761  -42.5836 H         1 UNK         0.0600 
    177 H177       -4.5760  -15.5731  -44.1011 H         1 UNK         0.0600 
    178 H178       -4.7363  -16.4272  -42.5758 H         1 UNK         0.0600 
    179 H179       -1.6036  -15.0703  -44.6638 H         1 UNK         0.3000 
    180 H180       -1.8098  -11.6349  -44.7866 H         1 UNK         0.0600 
    181 H181        0.7852  -13.0515  -43.9663 H         1 UNK         0.0600 
    182 H182        0.0738  -11.6720  -43.1405 H         1 UNK         0.0600 
    183 H183        0.6667  -11.4930  -44.7829 H         1 UNK         0.0600 
    184 H184       -0.1206  -13.3322  -46.2684 H         1 UNK         0.3000 
    185 H185       -2.1241  -14.9667  -48.3547 H         1 UNK         0.0600 
    186 H186       -3.2094  -12.9602  -49.3185 H         1 UNK         0.0600 
    187 H187       -1.7049  -12.0520  -49.2113 H         1 UNK         0.0600 
    188 H188       -1.8371  -13.4192  -50.3129 H         1 UNK         0.0600 
    189 H189        0.3413  -13.3170  -48.6142 H         1 UNK         0.3000 
    190 H190       -1.1234  -20.5606  -45.7754 H         1 UNK         0.3000 
    191 H191       -3.2819  -21.1530  -47.4734 H         1 UNK         0.0600 
    192 H192       -3.3071  -20.3822  -44.5119 H         1 UNK         0.0600 
    193 H193       -4.6860  -20.2997  -45.5990 H         1 UNK         0.0600 
    194 H194       -3.2932  -19.2649  -45.8749 H         1 UNK         0.0600 
    195 H195       -2.2254  -22.8472  -44.4971 H         1 UNK         0.3000 
    196 H196       -4.2885  -24.8071  -44.4850 H         1 UNK         0.0600 
    197 H197       -2.7521  -26.0129  -42.9258 H         1 UNK         0.0600 
    198 H198       -2.8836  -24.3106  -42.5084 H         1 UNK         0.0600 
    199 H199       -1.4479  -24.9054  -43.3377 H         1 UNK         0.0600 
    200 H200       -1.0148  -24.8277  -45.9659 H         1 UNK         0.3000 
    201 H201       -1.1179  -27.5195  -46.8942 H         1 UNK         0.0600 
    202 H202        1.0063  -26.3226  -46.5291 H         1 UNK         0.0600 
    203 H203        0.6131  -25.1565  -47.7900 H         1 UNK         0.0600 
    204 H204        0.9042  -26.8422  -48.2043 H         1 UNK         0.0600 
    205 H205       -1.6827  -24.3994  -48.6226 H         1 UNK         0.3000 
    206 H206       -2.2692  -25.7360  -51.1386 H         1 UNK         0.0600 
    207 H207       -1.0985  -23.5503  -51.0376 H         1 UNK         0.0600 
    208 H208       -2.5975  -23.4041  -51.9403 H         1 UNK         0.0600 
    209 H209       -2.5090  -22.8042  -50.2911 H         1 UNK         0.0600 
    210 H210       -4.1707  -24.7731  -48.4173 H         1 UNK         0.3000 
    211 H211       -6.2583  -24.9018  -47.8080 H         1 UNK         0.0600 
    212 H212       -6.9426  -26.3022  -50.4432 H         1 UNK         0.0600 
    213 H213       -7.9463  -26.2295  -49.0047 H         1 UNK         0.0600 
    214 H214       -6.4195  -27.0977  -48.9591 H         1 UNK         0.0600 
    215 H215       -6.0819  -23.8939  -51.2164 H         1 UNK         0.3000 
    216 H216       -8.1806  -21.8436  -50.9245 H         1 UNK         0.0600 
    217 H217       -7.7450  -21.4844  -53.3339 H         1 UNK         0.0600 
    218 H218       -7.9438  -23.1977  -53.0206 H         1 UNK         0.0600 
    219 H219       -6.3330  -22.5303  -53.2734 H         1 UNK         0.0600 
    220 H220       -4.9115  -22.0264  -50.1538 H         1 UNK         0.3000 
    221 H221       -3.2466  -20.6346  -49.6703 H         1 UNK         0.0600 
    222 H222       -5.3743  -18.4327  -49.4007 H         1 UNK         0.0600 
    223 H223       -5.0005  -19.6128  -48.1603 H         1 UNK         0.0600 
    224 H224       -3.7756  -18.4591  -48.6534 H         1 UNK         0.0600 
    225 H225       -3.8876  -17.5750  -50.6261 H         1 UNK         0.3000 
    226 H226       -1.9962  -17.5483  -52.7064 H         1 UNK         0.0600 
    227 H227       -2.5914  -15.6064  -51.2173 H         1 UNK         0.0600 
    228 H228       -2.6548  -15.1697  -52.9191 H         1 UNK         0.0600 
    229 H229       -4.1457  -15.4642  -52.0310 H         1 UNK         0.0600 
    230 H230       -5.4699  -18.0878  -52.8829 H         1 UNK         0.3000 
    231 H231       -5.8209  -17.4273  -55.6515 H         1 UNK         0.0600 
    232 H232       -7.7052  -17.4850  -54.0347 H         1 UNK         0.0600 
    233 H233       -7.4990  -19.2222  -53.8287 H         1 UNK         0.0600 
    234 H234       -8.0005  -18.5735  -55.3815 H         1 UNK         0.0600 
    235 H235       -4.3808  -20.2119  -54.1008 H         1 UNK         0.3000 
    236 H236       -4.7358  -22.1152  -56.2369 H         1 UNK         0.0600 
    237 H237       -2.9624  -23.3621  -55.0668 H         1 UNK         0.0600 
    238 H238       -2.5324  -21.9527  -54.1117 H         1 UNK         0.0600 
    239 H239       -4.0920  -22.7398  -53.8756 H         1 UNK         0.0600 
    240 H240       -2.6848  -19.3305  -55.7910 H         1 UNK         0.3000 
    241 H241       -0.9933  -20.0025  -58.1461 H         1 UNK         0.0600 
    242 H242       -3.7393  -17.3469  -59.0240 H         1 UNK         0.3800 
    243 H243       -3.9518  -18.6762  -57.9137 H         1 UNK         0.3800 
    244 H244       -0.4988  -18.0452  -55.8509 H         1 UNK         0.0800 
    245 H245        0.5113  -18.1602  -57.2756 H         1 UNK         0.0800 
    246 H246        2.8247  -19.8260  -54.6393 H         1 UNK         0.0800 
    247 H247        2.3688  -18.3247  -55.4009 H         1 UNK         0.0800 
@<TRIPOS>BOND
     1    1    2 1    
     2    1  127 1    
     3    1  128 1    
     4    1  129 1    
     5    2    3 2    
     6    2    4 am   BACKBONE|DICT|INTERRES
     7    4    5 1    
     8    4  130 1    
     9    5    6 1    
    10    5   65 1    
    11    5  131 1    
    12    6    7 1    
    13    6  132 1    
    14    6  133 1    
    15    7    8 1    
    16    8    9 1    
    17    8  134 1    
    18    8  135 1    
    19    9   10 ar   
    20    9   14 ar   
    21   10   11 ar   
    22   10  136 1    
    23   11   12 ar   
    24   11  126 1    
    25   12   13 ar   
    26   12  137 1    
    27   13   14 ar   
    28   13   15 1    
    29   14  138 1    
    30   15   16 1    
    31   15  139 1    
    32   15  140 1    
    33   16   17 1    
    34   17   18 1    
    35   17  141 1    
    36   17  142 1    
    37   18   19 1    
    38   18   67 1    
    39   18  143 1    
    40   19   20 am   BACKBONE|DICT|INTERRES
    41   19  144 1    
    42   20   21 2    
    43   20   22 1    
    44   22   23 1    
    45   22   24 1    
    46   22  145 1    
    47   23  146 1    
    48   23  147 1    
    49   23  148 1    
    50   24   25 am   BACKBONE|DICT|INTERRES
    51   24  149 1    
    52   25   26 2    
    53   25   27 1    
    54   27   28 1    
    55   27   29 1    
    56   27  150 1    
    57   28  151 1    
    58   28  152 1    
    59   28  153 1    
    60   29   30 am   BACKBONE|DICT|INTERRES
    61   29  154 1    
    62   30   31 2    
    63   30   32 1    
    64   32   33 1    
    65   32   34 1    
    66   32  155 1    
    67   33  156 1    
    68   33  157 1    
    69   33  158 1    
    70   34   35 am   BACKBONE|DICT|INTERRES
    71   34  159 1    
    72   35   36 2    
    73   35   37 1    
    74   37   38 1    
    75   37   39 1    
    76   37  160 1    
    77   38  161 1    
    78   38  162 1    
    79   38  163 1    
    80   39   40 am   BACKBONE|DICT|INTERRES
    81   39  164 1    
    82   40   41 2    
    83   40   42 1    
    84   42   43 1    
    85   42   44 1    
    86   42  165 1    
    87   43  166 1    
    88   43  167 1    
    89   43  168 1    
    90   44   45 am   BACKBONE|DICT|INTERRES
    91   44  169 1    
    92   45   46 2    
    93   45   47 1    
    94   47   48 1    
    95   47   49 1    
    96   47  170 1    
    97   48  171 1    
    98   48  172 1    
    99   48  173 1    
   100   49   50 am   BACKBONE|DICT|INTERRES
   101   49  174 1    
   102   50   51 2    
   103   50   52 1    
   104   52   53 1    
   105   52   54 1    
   106   52  175 1    
   107   53  176 1    
   108   53  177 1    
   109   53  178 1    
   110   54   55 am   BACKBONE|DICT|INTERRES
   111   54  179 1    
   112   55   56 2    
   113   55   57 1    
   114   57   58 1    
   115   57   59 1    
   116   57  180 1    
   117   58  181 1    
   118   58  182 1    
   119   58  183 1    
   120   59   60 am   BACKBONE|DICT|INTERRES
   121   59  184 1    
   122   60   61 2    
   123   60   62 1    
   124   62   63 1    
   125   62   64 1    
   126   62  185 1    
   127   63  186 1    
   128   63  187 1    
   129   63  188 1    
   130   64   65 am   BACKBONE|DICT|INTERRES
   131   64  189 1    
   132   65   66 2    
   133   67   68 2    
   134   67   69 am   BACKBONE|DICT|INTERRES
   135   69   70 1    
   136   69  190 1    
   137   70   71 1    
   138   70   72 1    
   139   70  191 1    
   140   71  192 1    
   141   71  193 1    
   142   71  194 1    
   143   72   73 2    
   144   72   74 am   BACKBONE|DICT|INTERRES
   145   74   75 1    
   146   74  195 1    
   147   75   76 1    
   148   75   77 1    
   149   75  196 1    
   150   76  197 1    
   151   76  198 1    
   152   76  199 1    
   153   77   78 2    
   154   77   79 am   BACKBONE|DICT|INTERRES
   155   79   80 1    
   156   79  200 1    
   157   80   81 1    
   158   80   82 1    
   159   80  201 1    
   160   81  202 1    
   161   81  203 1    
   162   81  204 1    
   163   82   83 2    
   164   82   84 am   BACKBONE|DICT|INTERRES
   165   84   85 1    
   166   84  205 1    
   167   85   86 1    
   168   85   87 1    
   169   85  206 1    
   170   86  207 1    
   171   86  208 1    
   172   86  209 1    
   173   87   88 2    
   174   87   89 am   BACKBONE|DICT|INTERRES
   175   89   90 1    
   176   89  210 1    
   177   90   91 1    
   178   90   92 1    
   179   90  211 1    
   180   91  212 1    
   181   91  213 1    
   182   91  214 1    
   183   92   93 2    
   184   92   94 am   BACKBONE|DICT|INTERRES
   185   94   95 1    
   186   94  215 1    
   187   95   96 1    
   188   95   97 1    
   189   95  216 1    
   190   96  217 1    
   191   96  218 1    
   192   96  219 1    
   193   97   98 2    
   194   97   99 am   BACKBONE|DICT|INTERRES
   195   99  100 1    
   196   99  220 1    
   197  100  101 1    
   198  100  102 1    
   199  100  221 1    
   200  101  222 1    
   201  101  223 1    
   202  101  224 1    
   203  102  103 2    
   204  102  104 am   BACKBONE|DICT|INTERRES
   205  104  105 1    
   206  104  225 1    
   207  105  106 1    
   208  105  107 1    
   209  105  226 1    
   210  106  227 1    
   211  106  228 1    
   212  106  229 1    
   213  107  108 2    
   214  107  109 am   BACKBONE|DICT|INTERRES
   215  109  110 1    
   216  109  230 1    
   217  110  111 1    
   218  110  112 1    
   219  110  231 1    
   220  111  232 1    
   221  111  233 1    
   222  111  234 1    
   223  112  113 2    
   224  112  114 am   BACKBONE|DICT|INTERRES
   225  114  115 1    
   226  114  235 1    
   227  115  116 1    
   228  115  117 1    
   229  115  236 1    
   230  116  237 1    
   231  116  238 1    
   232  116  239 1    
   233  117  118 2    
   234  117  119 am   BACKBONE|DICT|INTERRES
   235  119  120 1    
   236  119  240 1    
   237  120  121 1    
   238  120  124 1    
   239  120  241 1    
   240  121  122 am   BACKBONE|DICT|INTERRES
   241  121  123 2    
   242  122  242 1    
   243  122  243 1    
   244  124  125 1    
   245  124  244 1    
   246  124  245 1    
   247  125  126 1    
   248  126  246 1    
   249  126  247 1    
@<TRIPOS>SUBSTRUCTURE
     1 UNK         1 GROUP             0       ****    0 ROOT    
