@<TRIPOS>MOLECULE
3R540
247   249    1
SMALL
USER_CHARGES


@<TRIPOS>ATOM
      1 CA         -7.6997  -11.1889  -50.9105 C.3       0 UNK        -0.1800 
      2 C          -6.7595  -12.3281  -50.5422 C.2       0 UNK         0.5000 
      3 O          -6.0198  -12.8126  -51.3983 O.2       0 UNK        -0.5000 
      4 N          -6.7911  -12.7617  -49.2760 N.am      1 UNK        -0.5000 
      5 CA         -5.9166  -13.7970  -48.7217 C.3       1 UNK         0.1400 
      6 C6         -6.4619  -14.3058  -47.3605 C.3       23 UNK        -0.0398 
      7 S7         -5.4580  -15.6241  -46.5930 S.3       23 UNK        -0.2404 
      8 C8         -6.1527  -17.1064  -47.3810 C.3       23 UNK        -0.0205 
      9 C9         -5.1492  -18.2441  -47.3334 C.ar      23 UNK        -0.0193 
     10 C10        -4.1587  -18.3333  -48.3141 C.ar      23 UNK        -0.1150 
     11 C11        -3.2201  -19.3656  -48.2812 C.ar      23 UNK        -0.0193 
     12 C12        -3.2720  -20.3088  -47.2518 C.ar      23 UNK        -0.1150 
     13 C13        -4.2584  -20.2329  -46.2633 C.ar      23 UNK        -0.0193 
     14 C14        -5.1995  -19.1994  -46.3139 C.ar      23 UNK        -0.1150 
     15 C15        -4.3080  -21.2632  -45.1431 C.3       23 UNK        -0.0205 
     16 S16        -3.7885  -20.5285  -43.5595 S.3       23 UNK        -0.2404 
     17 C17        -2.8468  -21.8811  -42.7778 C.3       23 UNK        -0.0398 
     18 CA         -1.3383  -21.7889  -43.1312 C.3       11 UNK         0.1400 
     19 N          -0.4405  -22.0723  -42.0223 N.am      11 UNK        -0.5000 
     20 C          -0.0919  -21.2061  -41.0686 C.2       10 UNK         0.5000 
     21 O          -0.7054  -20.1663  -40.8290 O.2       10 UNK        -0.5000 
     22 CA          1.2143  -21.5118  -40.3098 C.3       10 UNK         0.1400 
     23 CB          1.0690  -22.7094  -39.3507 C.3       10 UNK        -0.1800 
     24 N           2.3581  -21.6507  -41.2249 N.am      10 UNK        -0.5000 
     25 C           2.6077  -22.6220  -42.1195 C.2       9 UNK         0.5000 
     26 O           1.9631  -23.6699  -42.1773 O.2       9 UNK        -0.5000 
     27 CA          3.7155  -22.3615  -43.1614 C.3       9 UNK         0.1400 
     28 CB          3.3031  -22.8679  -44.5557 C.3       9 UNK        -0.1800 
     29 N           4.0103  -20.9333  -43.2672 N.am      9 UNK        -0.5000 
     30 C           5.1776  -20.3491  -42.9679 C.2       8 UNK         0.5000 
     31 O           6.1822  -20.9682  -42.6161 O.2       8 UNK        -0.5000 
     32 CA          5.2326  -18.8082  -43.0499 C.3       8 UNK         0.1400 
     33 CB          5.9119  -18.3607  -44.3527 C.3       8 UNK        -0.1800 
     34 N           3.9196  -18.1648  -42.9500 N.am      8 UNK        -0.5000 
     35 C           3.1273  -18.2044  -41.8692 C.2       7 UNK         0.5000 
     36 O           3.4372  -18.7698  -40.8201 O.2       7 UNK        -0.5000 
     37 CA          1.7359  -17.5566  -41.9884 C.3       7 UNK         0.1400 
     38 CB          1.7729  -16.1213  -41.4428 C.3       7 UNK        -0.1800 
     39 N           1.1783  -17.5436  -43.3436 N.am      7 UNK        -0.5000 
     40 C           0.9690  -18.6158  -44.1227 C.2       6 UNK         0.5000 
     41 O           1.2893  -19.7656  -43.8202 O.2       6 UNK        -0.5000 
     42 CA          0.3339  -18.3466  -45.4971 C.3       6 UNK         0.1400 
     43 CB         -1.1738  -18.0880  -45.3542 C.3       6 UNK        -0.1800 
     44 N           0.9618  -17.2231  -46.1888 N.am      6 UNK        -0.5000 
     45 C           2.2450  -17.1794  -46.5755 C.2       5 UNK         0.5000 
     46 O           3.0436  -18.1010  -46.4109 O.2       5 UNK        -0.5000 
     47 CA          2.7239  -15.8703  -47.2227 C.3       5 UNK         0.1400 
     48 CB          2.4027  -15.8505  -48.7247 C.3       5 UNK        -0.1800 
     49 N           2.1167  -14.7094  -46.5727 N.am      5 UNK        -0.5000 
     50 C           2.5343  -14.1970  -45.4065 C.2       4 UNK         0.5000 
     51 O           3.5248  -14.6025  -44.7974 O.2       4 UNK        -0.5000 
     52 CA          1.6968  -13.0495  -44.8082 C.3       4 UNK         0.1400 
     53 CB          2.2043  -11.6910  -45.3146 C.3       4 UNK        -0.1800 
     54 N           0.2664  -13.1663  -45.0984 N.am      4 UNK        -0.5000 
     55 C          -0.5304  -14.1240  -44.6048 C.2       3 UNK         0.5000 
     56 O          -0.1454  -14.9989  -43.8306 O.2       3 UNK        -0.5000 
     57 CA         -1.9907  -14.1364  -45.0946 C.3       3 UNK         0.1400 
     58 CB         -2.8713  -13.2517  -44.2009 C.3       3 UNK        -0.1800 
     59 N          -2.1642  -13.7313  -46.4920 N.am      3 UNK        -0.5000 
     60 C          -1.5835  -14.3128  -47.5497 C.2       2 UNK         0.5000 
     61 O          -0.7252  -15.1900  -47.4513 O.2       2 UNK        -0.5000 
     62 CA         -2.0663  -13.8441  -48.9375 C.3       2 UNK         0.1400 
     63 CB         -1.3309  -14.5531  -50.0882 C.3       2 UNK        -0.1800 
     64 N          -3.5041  -14.0728  -49.0852 N.am      2 UNK        -0.5000 
     65 C          -4.4680  -13.2723  -48.6130 C.2       1 UNK         0.5000 
     66 O          -4.2476  -12.1909  -48.0610 O.2       1 UNK        -0.5000 
     67 C          -0.9309  -22.7426  -44.2621 C.2       11 UNK         0.5000 
     68 O          -0.8993  -23.9562  -44.0449 O.2       11 UNK        -0.5000 
     69 N          -0.6216  -22.1956  -45.4434 N.am      12 UNK        -0.5000 
     70 CA         -0.1920  -22.9347  -46.6334 C.3       12 UNK         0.1400 
     71 CB          0.5525  -21.9659  -47.5703 C.3       12 UNK        -0.1800 
     72 C          -1.3749  -23.6422  -47.3289 C.2       12 UNK         0.5000 
     73 O          -1.7019  -23.3276  -48.4732 O.2       12 UNK        -0.5000 
     74 N          -2.0210  -24.5705  -46.6120 N.am      13 UNK        -0.5000 
     75 CA         -3.2377  -25.2838  -47.0168 C.3       13 UNK         0.1400 
     76 CB         -3.6858  -26.1968  -45.8666 C.3       13 UNK        -0.1800 
     77 C          -3.1086  -26.0848  -48.3279 C.2       13 UNK         0.5000 
     78 O          -4.1063  -26.2661  -49.0266 O.2       13 UNK        -0.5000 
     79 N          -1.8789  -26.4952  -48.6708 N.am      14 UNK        -0.5000 
     80 CA         -1.5140  -27.1481  -49.9318 C.3       14 UNK         0.1400 
     81 CB         -0.0358  -27.5609  -49.8643 C.3       14 UNK        -0.1800 
     82 C          -1.7760  -26.2873  -51.1873 C.2       14 UNK         0.5000 
     83 O          -1.9197  -26.8412  -52.2775 O.2       14 UNK        -0.5000 
     84 N          -1.8638  -24.9603  -51.0155 N.am      15 UNK        -0.5000 
     85 CA         -2.2415  -24.0021  -52.0548 C.3       15 UNK         0.1400 
     86 CB         -1.8017  -22.6032  -51.5997 C.3       15 UNK        -0.1800 
     87 C          -3.7555  -23.9831  -52.3462 C.2       15 UNK         0.5000 
     88 O          -4.1694  -23.2891  -53.2735 O.2       15 UNK        -0.5000 
     89 N          -4.5644  -24.6677  -51.5189 N.am      16 UNK        -0.5000 
     90 CA         -6.0341  -24.6458  -51.5068 C.3       16 UNK         0.1400 
     91 CB         -6.6086  -25.2856  -52.7879 C.3       16 UNK        -0.1800 
     92 C          -6.5987  -23.2341  -51.2278 C.2       16 UNK         0.5000 
     93 O          -7.6611  -22.8749  -51.7369 O.2       16 UNK        -0.5000 
     94 N          -5.8432  -22.4586  -50.4350 N.am      17 UNK        -0.5000 
     95 CA         -6.0560  -21.0573  -50.0621 C.3       17 UNK         0.1400 
     96 CB         -7.3578  -20.8849  -49.2529 C.3       17 UNK        -0.1800 
     97 C          -5.9426  -20.0511  -51.2307 C.2       17 UNK         0.5000 
     98 O          -6.3253  -18.8920  -51.0614 O.2       17 UNK        -0.5000 
     99 N          -5.4078  -20.4772  -52.3858 N.am      18 UNK        -0.5000 
    100 CA        -5.1627  -19.6114  -53.5376 C.3       18 UNK         0.1400 
    101 CB        -4.9976  -20.4639  -54.8046 C.3       18 UNK        -0.1800 
    102 C         -3.9153  -18.7474  -53.2970 C.2       18 UNK         0.5000 
    103 O         -2.8371  -19.2916  -53.0509 O.2       18 UNK        -0.5000 
    104 N         -4.0775  -17.4216  -53.3926 N.am      19 UNK        -0.5000 
    105 CA        -3.0363  -16.4218  -53.1370 C.3       19 UNK         0.1400 
    106 CB        -3.6481  -15.0186  -53.2606 C.3       19 UNK        -0.1800 
    107 C         -1.7984  -16.5536  -54.0457 C.2       19 UNK         0.5000 
    108 O         -0.6824  -16.3062  -53.5906 O.2       19 UNK        -0.5000 
    109 N         -2.0154  -16.9721  -55.2998 N.am      20 UNK        -0.5000 
    110 CA        -0.9707  -17.1726  -56.3063 C.3       20 UNK         0.1400 
    111 CB        -1.6327  -17.2988  -57.6872 C.3       20 UNK        -0.1800 
    112 C         -0.0660  -18.3912  -56.0335 C.2       20 UNK         0.5000 
    113 O          1.0767  -18.4033  -56.4926 O.2       20 UNK        -0.5000 
    114 N         -0.5859  -19.3890  -55.3065 N.am      21 UNK        -0.5000 
    115 CA         0.1169  -20.6281  -54.9602 C.3       21 UNK         0.1400 
    116 CB        -0.8369  -21.8088  -55.2117 C.3       21 UNK        -0.1800 
    117 C          0.6334  -20.6283  -53.5068 C.2       21 UNK         0.5000 
    118 O          1.2778  -21.5942  -53.0961 O.2       21 UNK        -0.5000 
    119 N          0.3223  -19.5681  -52.7524 N.am      22 UNK        -0.5000 
    120 CA         0.6540  -19.3832  -51.3346 C.3       22 UNK         0.1400 
    121 C          2.1771  -19.2707  -51.0381 C.2       22 UNK         0.5000 
    122 N          2.5902  -19.5423  -49.8075 N.am      22 UNK        -0.7600 
    123 O          2.9809  -18.9058  -51.8935 O.2       22 UNK        -0.5000 
    124 C124       -0.1336  -18.1769  -50.7613 C.3       23 UNK        -0.0398 
    125 S125       -0.7272  -18.4453  -49.0626 S.3       23 UNK        -0.2404 
    126 C126       -2.1860  -19.4793  -49.3864 C.3       23 UNK        -0.0205 
    127 H127       -8.3007  -10.8672  -50.0596 H         1 UNK         0.0600 
    128 H128       -8.3762  -11.5028  -51.7054 H         1 UNK         0.0600 
    129 H129       -7.1281  -10.3317  -51.2665 H         1 UNK         0.0600 
    130 H130       -7.3997  -12.3005  -48.6149 H         1 UNK         0.3000 
    131 H131       -5.9260  -14.6381  -49.4185 H         1 UNK         0.0600 
    132 H132       -6.5222  -13.4809  -46.6484 H         1 UNK         0.0800 
    133 H133       -7.4829  -14.6712  -47.4801 H         1 UNK         0.0800 
    134 H134       -6.4124  -16.8968  -48.4199 H         1 UNK         0.0800 
    135 H135       -7.0801  -17.3868  -46.8794 H         1 UNK         0.0800 
    136 H136       -4.1215  -17.6017  -49.1086 H         1 UNK         0.1150 
    137 H137       -2.5471  -21.1051  -47.2286 H         1 UNK         0.1150 
    138 H138       -5.9606  -19.1310  -45.5494 H         1 UNK         0.1150 
    139 H139       -5.3234  -21.6493  -45.0438 H         1 UNK         0.0800 
    140 H140       -3.6789  -22.1189  -45.3904 H         1 UNK         0.0800 
    141 H141       -3.2841  -22.8490  -43.0304 H         1 UNK         0.0800 
    142 H142       -2.9878  -21.7725  -41.7017 H         1 UNK         0.0800 
    143 H143       -1.1099  -20.7724  -43.4545 H         1 UNK         0.0600 
    144 H144        0.1488  -22.8913  -42.1539 H         1 UNK         0.3000 
    145 H145        1.4364  -20.6353  -39.6988 H         1 UNK         0.0600 
    146 H146        2.0006  -22.9024  -38.8189 H         1 UNK         0.0600 
    147 H147        0.3021  -22.5098  -38.6015 H         1 UNK         0.0600 
    148 H148        0.7817  -23.6250  -39.8675 H         1 UNK         0.0600 
    149 H149        2.9491  -20.8288  -41.2683 H         1 UNK         0.3000 
    150 H150        4.5959  -22.9188  -42.8365 H         1 UNK         0.0600 
    151 H151        3.1227  -23.9435  -44.5512 H         1 UNK         0.0600 
    152 H152        4.0831  -22.6743  -45.2921 H         1 UNK         0.0600 
    153 H153        2.3900  -22.3812  -44.8999 H         1 UNK         0.0600 
    154 H154        3.2236  -20.3484  -43.5341 H         1 UNK         0.3000 
    155 H155        5.8382  -18.4578  -42.2116 H         1 UNK         0.0600 
    156 H156        6.9273  -18.7536  -44.4176 H         1 UNK         0.0600 
    157 H157        5.9790  -17.2741  -44.4127 H         1 UNK         0.0600 
    158 H158        5.3690  -18.7134  -45.2299 H         1 UNK         0.0600 
    159 H159        3.5745  -17.7074  -43.7826 H         1 UNK         0.3000 
    160 H160        1.0562  -18.1392  -41.3648 H         1 UNK         0.0600 
    161 H161        2.3656  -15.4650  -42.0816 H         1 UNK         0.0600 
    162 H162        2.2073  -16.0901  -40.4427 H         1 UNK         0.0600 
    163 H163        0.7693  -15.7023  -41.3701 H         1 UNK         0.0600 
    164 H164        0.8444  -16.6414  -43.6732 H         1 UNK         0.3000 
    165 H165        0.4743  -19.2320  -46.1194 H         1 UNK         0.0600 
    166 H166       -1.6260  -17.7994  -46.3026 H         1 UNK         0.0600 
    167 H167       -1.6898  -18.9826  -45.0101 H         1 UNK         0.0600 
    168 H168       -1.3848  -17.2973  -44.6354 H         1 UNK         0.0600 
    169 H169        0.3575  -16.4465  -46.4409 H         1 UNK         0.3000 
    170 H170        3.8088  -15.8139  -47.1098 H         1 UNK         0.0600 
    171 H171        2.9037  -16.6710  -49.2391 H         1 UNK         0.0600 
    172 H172        1.3344  -15.9546  -48.9108 H         1 UNK         0.0600 
    173 H173        2.7363  -14.9228  -49.1893 H         1 UNK         0.0600 
    174 H174        1.2468  -14.3786  -46.9691 H         1 UNK         0.3000 
    175 H175        1.8251  -13.0790  -43.7239 H         1 UNK         0.0600 
    176 H176        3.2645  -11.5630  -45.0922 H         1 UNK         0.0600 
    177 H177        2.0808  -11.5914  -46.3938 H         1 UNK         0.0600 
    178 H178        1.6719  -10.8680  -44.8375 H         1 UNK         0.0600 
    179 H179       -0.1304  -12.4915  -45.7355 H         1 UNK         0.3000 
    180 H180       -2.3538  -15.1623  -45.0133 H         1 UNK         0.0600 
    181 H181       -2.7843  -13.5445  -43.1537 H         1 UNK         0.0600 
    182 H182       -2.5910  -12.2003  -44.2739 H         1 UNK         0.0600 
    183 H183       -3.9230  -13.3394  -44.4753 H         1 UNK         0.0600 
    184 H184       -2.8671  -13.0253  -46.6766 H         1 UNK         0.3000 
    185 H185       -1.8569  -12.7752  -49.0153 H         1 UNK         0.0600 
    186 H186       -0.2536  -14.3983  -50.0206 H         1 UNK         0.0600 
    187 H187       -1.5109  -15.6279  -50.0767 H         1 UNK         0.0600 
    188 H188       -1.6492  -14.1679  -51.0559 H         1 UNK         0.0600 
    189 H189       -3.7665  -14.9610  -49.4847 H         1 UNK         0.3000 
    190 H190       -0.6746  -21.1938  -45.5417 H         1 UNK         0.3000 
    191 H191        0.5150  -23.7098  -46.3300 H         1 UNK         0.0600 
    192 H192        1.4261  -21.5352  -47.0805 H         1 UNK         0.0600 
    193 H193       -0.0886  -21.1459  -47.8910 H         1 UNK         0.0600 
    194 H194        0.9036  -22.4781  -48.4671 H         1 UNK         0.0600 
    195 H195       -1.6939  -24.7300  -45.6635 H         1 UNK         0.3000 
    196 H196       -4.0137  -24.5325  -47.1771 H         1 UNK         0.0600 
    197 H197       -4.6076  -26.7225  -46.1193 H         1 UNK         0.0600 
    198 H198       -3.8782  -25.6228  -44.9598 H         1 UNK         0.0600 
    199 H199       -2.9307  -26.9487  -45.6340 H         1 UNK         0.0600 
    200 H200       -1.1226  -26.2936  -48.0339 H         1 UNK         0.3000 
    201 H201       -2.1202  -28.0514  -50.0251 H         1 UNK         0.0600 
    202 H202        0.2678  -28.0794  -50.7748 H         1 UNK         0.0600 
    203 H203        0.6177  -26.6955  -49.7459 H         1 UNK         0.0600 
    204 H204        0.1479  -28.2386  -49.0304 H         1 UNK         0.0600 
    205 H205       -1.7336  -24.5737  -50.0859 H         1 UNK         0.3000 
    206 H206       -1.7182  -24.2518  -52.9799 H         1 UNK         0.0600 
    207 H207       -0.7458  -22.5810  -51.3302 H         1 UNK         0.0600 
    208 H208       -2.3803  -22.2783  -50.7371 H         1 UNK         0.0600 
    209 H209       -1.9588  -21.8601  -52.3801 H         1 UNK         0.0600 
    210 H210       -4.1418  -25.2107  -50.7731 H         1 UNK         0.3000 
    211 H211       -6.3401  -25.2664  -50.6635 H         1 UNK         0.0600 
    212 H212       -7.6896  -25.4077  -52.7119 H         1 UNK         0.0600 
    213 H213       -6.1826  -26.2742  -52.9591 H         1 UNK         0.0600 
    214 H214       -6.4113  -24.6773  -53.6710 H         1 UNK         0.0600 
    215 H215       -4.9892  -22.8676  -50.0840 H         1 UNK         0.3000 
    216 H216       -5.2336  -20.8187  -49.3913 H         1 UNK         0.0600 
    217 H217       -7.4257  -19.8809  -48.8322 H         1 UNK         0.0600 
    218 H218       -7.3986  -21.5849  -48.4185 H         1 UNK         0.0600 
    219 H219       -8.2433  -21.0405  -49.8692 H         1 UNK         0.0600 
    220 H220       -5.0871  -21.4339  -52.4678 H         1 UNK         0.3000 
    221 H221       -6.0314  -18.9651  -53.6804 H         1 UNK         0.0600 
    222 H222       -5.8626  -21.1081  -54.9630 H         1 UNK         0.0600 
    223 H223       -4.8936  -19.8326  -55.6877 H         1 UNK         0.0600 
    224 H224       -4.1136  -21.0993  -54.7534 H         1 UNK         0.0600 
    225 H225       -4.9984  -17.0605  -53.5961 H         1 UNK         0.3000 
    226 H226       -2.7039  -16.5528  -52.1064 H         1 UNK         0.0600 
    227 H227       -4.0805  -14.8530  -54.2480 H         1 UNK         0.0600 
    228 H228       -4.4331  -14.8647  -52.5199 H         1 UNK         0.0600 
    229 H229       -2.8974  -14.2439  -53.1006 H         1 UNK         0.0600 
    230 H230       -2.9654  -17.1568  -55.5866 H         1 UNK         0.3000 
    231 H231       -0.3323  -16.2865  -56.3145 H         1 UNK         0.0600 
    232 H232       -2.2124  -16.4082  -57.9303 H         1 UNK         0.0600 
    233 H233       -2.3009  -18.1596  -57.7360 H         1 UNK         0.0600 
    234 H234       -0.8833  -17.4203  -58.4706 H         1 UNK         0.0600 
    235 H235       -1.5178  -19.2849  -54.9255 H         1 UNK         0.3000 
    236 H236        0.9892  -20.7637  -55.6026 H         1 UNK         0.0600 
    237 H237       -1.0978  -21.8811  -56.2676 H         1 UNK         0.0600 
    238 H238       -0.3807  -22.7574  -54.9261 H         1 UNK         0.0600 
    239 H239       -1.7644  -21.7056  -54.6497 H         1 UNK         0.0600 
    240 H240       -0.1917  -18.8172  -53.1887 H         1 UNK         0.3000 
    241 H241        0.3079  -20.2940  -50.8424 H         1 UNK         0.0600 
    242 H242        1.9412  -19.7960  -49.0805 H         1 UNK         0.3800 
    243 H243        3.5715  -19.4657  -49.5924 H         1 UNK         0.3800 
    244 H244        0.4558  -17.2591  -50.7958 H         1 UNK         0.0800 
    245 H245       -1.0114  -17.9664  -51.3698 H         1 UNK         0.0800 
    246 H246       -2.6476  -19.2060  -50.3358 H         1 UNK         0.0800 
    247 H247       -1.8591  -20.5126  -49.4885 H         1 UNK         0.0800 
@<TRIPOS>BOND
     1    1    2 1    
     2    1  127 1    
     3    1  128 1    
     4    1  129 1    
     5    2    3 2    
     6    2    4 am   BACKBONE|DICT|INTERRES
     7    4    5 1    
     8    4  130 1    
     9    5    6 1    
    10    5   65 1    
    11    5  131 1    
    12    6    7 1    
    13    6  132 1    
    14    6  133 1    
    15    7    8 1    
    16    8    9 1    
    17    8  134 1    
    18    8  135 1    
    19    9   10 ar   
    20    9   14 ar   
    21   10   11 ar   
    22   10  136 1    
    23   11   12 ar   
    24   11  126 1    
    25   12   13 ar   
    26   12  137 1    
    27   13   14 ar   
    28   13   15 1    
    29   14  138 1    
    30   15   16 1    
    31   15  139 1    
    32   15  140 1    
    33   16   17 1    
    34   17   18 1    
    35   17  141 1    
    36   17  142 1    
    37   18   19 1    
    38   18   67 1    
    39   18  143 1    
    40   19   20 am   BACKBONE|DICT|INTERRES
    41   19  144 1    
    42   20   21 2    
    43   20   22 1    
    44   22   23 1    
    45   22   24 1    
    46   22  145 1    
    47   23  146 1    
    48   23  147 1    
    49   23  148 1    
    50   24   25 am   BACKBONE|DICT|INTERRES
    51   24  149 1    
    52   25   26 2    
    53   25   27 1    
    54   27   28 1    
    55   27   29 1    
    56   27  150 1    
    57   28  151 1    
    58   28  152 1    
    59   28  153 1    
    60   29   30 am   BACKBONE|DICT|INTERRES
    61   29  154 1    
    62   30   31 2    
    63   30   32 1    
    64   32   33 1    
    65   32   34 1    
    66   32  155 1    
    67   33  156 1    
    68   33  157 1    
    69   33  158 1    
    70   34   35 am   BACKBONE|DICT|INTERRES
    71   34  159 1    
    72   35   36 2    
    73   35   37 1    
    74   37   38 1    
    75   37   39 1    
    76   37  160 1    
    77   38  161 1    
    78   38  162 1    
    79   38  163 1    
    80   39   40 am   BACKBONE|DICT|INTERRES
    81   39  164 1    
    82   40   41 2    
    83   40   42 1    
    84   42   43 1    
    85   42   44 1    
    86   42  165 1    
    87   43  166 1    
    88   43  167 1    
    89   43  168 1    
    90   44   45 am   BACKBONE|DICT|INTERRES
    91   44  169 1    
    92   45   46 2    
    93   45   47 1    
    94   47   48 1    
    95   47   49 1    
    96   47  170 1    
    97   48  171 1    
    98   48  172 1    
    99   48  173 1    
   100   49   50 am   BACKBONE|DICT|INTERRES
   101   49  174 1    
   102   50   51 2    
   103   50   52 1    
   104   52   53 1    
   105   52   54 1    
   106   52  175 1    
   107   53  176 1    
   108   53  177 1    
   109   53  178 1    
   110   54   55 am   BACKBONE|DICT|INTERRES
   111   54  179 1    
   112   55   56 2    
   113   55   57 1    
   114   57   58 1    
   115   57   59 1    
   116   57  180 1    
   117   58  181 1    
   118   58  182 1    
   119   58  183 1    
   120   59   60 am   BACKBONE|DICT|INTERRES
   121   59  184 1    
   122   60   61 2    
   123   60   62 1    
   124   62   63 1    
   125   62   64 1    
   126   62  185 1    
   127   63  186 1    
   128   63  187 1    
   129   63  188 1    
   130   64   65 am   BACKBONE|DICT|INTERRES
   131   64  189 1    
   132   65   66 2    
   133   67   68 2    
   134   67   69 am   BACKBONE|DICT|INTERRES
   135   69   70 1    
   136   69  190 1    
   137   70   71 1    
   138   70   72 1    
   139   70  191 1    
   140   71  192 1    
   141   71  193 1    
   142   71  194 1    
   143   72   73 2    
   144   72   74 am   BACKBONE|DICT|INTERRES
   145   74   75 1    
   146   74  195 1    
   147   75   76 1    
   148   75   77 1    
   149   75  196 1    
   150   76  197 1    
   151   76  198 1    
   152   76  199 1    
   153   77   78 2    
   154   77   79 am   BACKBONE|DICT|INTERRES
   155   79   80 1    
   156   79  200 1    
   157   80   81 1    
   158   80   82 1    
   159   80  201 1    
   160   81  202 1    
   161   81  203 1    
   162   81  204 1    
   163   82   83 2    
   164   82   84 am   BACKBONE|DICT|INTERRES
   165   84   85 1    
   166   84  205 1    
   167   85   86 1    
   168   85   87 1    
   169   85  206 1    
   170   86  207 1    
   171   86  208 1    
   172   86  209 1    
   173   87   88 2    
   174   87   89 am   BACKBONE|DICT|INTERRES
   175   89   90 1    
   176   89  210 1    
   177   90   91 1    
   178   90   92 1    
   179   90  211 1    
   180   91  212 1    
   181   91  213 1    
   182   91  214 1    
   183   92   93 2    
   184   92   94 am   BACKBONE|DICT|INTERRES
   185   94   95 1    
   186   94  215 1    
   187   95   96 1    
   188   95   97 1    
   189   95  216 1    
   190   96  217 1    
   191   96  218 1    
   192   96  219 1    
   193   97   98 2    
   194   97   99 am   BACKBONE|DICT|INTERRES
   195   99  100 1    
   196   99  220 1    
   197  100  101 1    
   198  100  102 1    
   199  100  221 1    
   200  101  222 1    
   201  101  223 1    
   202  101  224 1    
   203  102  103 2    
   204  102  104 am   BACKBONE|DICT|INTERRES
   205  104  105 1    
   206  104  225 1    
   207  105  106 1    
   208  105  107 1    
   209  105  226 1    
   210  106  227 1    
   211  106  228 1    
   212  106  229 1    
   213  107  108 2    
   214  107  109 am   BACKBONE|DICT|INTERRES
   215  109  110 1    
   216  109  230 1    
   217  110  111 1    
   218  110  112 1    
   219  110  231 1    
   220  111  232 1    
   221  111  233 1    
   222  111  234 1    
   223  112  113 2    
   224  112  114 am   BACKBONE|DICT|INTERRES
   225  114  115 1    
   226  114  235 1    
   227  115  116 1    
   228  115  117 1    
   229  115  236 1    
   230  116  237 1    
   231  116  238 1    
   232  116  239 1    
   233  117  118 2    
   234  117  119 am   BACKBONE|DICT|INTERRES
   235  119  120 1    
   236  119  240 1    
   237  120  121 1    
   238  120  124 1    
   239  120  241 1    
   240  121  122 am   BACKBONE|DICT|INTERRES
   241  121  123 2    
   242  122  242 1    
   243  122  243 1    
   244  124  125 1    
   245  124  244 1    
   246  124  245 1    
   247  125  126 1    
   248  126  246 1    
   249  126  247 1    
@<TRIPOS>SUBSTRUCTURE
     1 UNK         1 GROUP             0       ****    0 ROOT    
