@<TRIPOS>MOLECULE
3R540
247   249    1
SMALL
USER_CHARGES


@<TRIPOS>ATOM
      1 CA          1.6878  -12.2331  -49.0037 C.3       0 UNK        -0.1800 
      2 C           2.9229  -12.7308  -48.2657 C.2       0 UNK         0.5000 
      3 O           3.5155  -11.9845  -47.4868 O.2       0 UNK        -0.5000 
      4 N           3.3150  -13.9820  -48.5290 N.am      1 UNK        -0.5000 
      5 CA          4.4462  -14.6843  -47.9134 C.3       1 UNK         0.1400 
      6 C6          4.7013  -16.0536  -48.5902 C.3       23 UNK        -0.0398 
      7 S7          5.0466  -15.8854  -50.3731 S.3       23 UNK        -0.2404 
      8 C8          5.2208  -17.6294  -50.8748 C.3       23 UNK        -0.0205 
      9 C9          3.9387  -18.4429  -50.7259 C.ar      23 UNK        -0.0193 
     10 C10         2.7268  -17.9756  -51.2479 C.ar      23 UNK        -0.1150 
     11 C11         1.5546  -18.7365  -51.1387 C.ar      23 UNK        -0.0193 
     12 C12         1.6200  -19.9841  -50.5090 C.ar      23 UNK        -0.1150 
     13 C13         2.8251  -20.4726  -49.9951 C.ar      23 UNK        -0.0193 
     14 C14         3.9789  -19.6931  -50.1018 C.ar      23 UNK        -0.1150 
     15 C15         2.8910  -21.8628  -49.3724 C.3       23 UNK        -0.0205 
     16 S16         3.1111  -21.8395  -47.5603 S.3       23 UNK        -0.2404 
     17 C17         1.5881  -21.0148  -46.9878 C.3       23 UNK        -0.0398 
     18 CA          0.4591  -21.9779  -46.5434 C.3       11 UNK         0.1400 
     19 N          -0.5765  -21.2779  -45.7793 N.am      11 UNK        -0.5000 
     20 C          -1.6256  -21.8515  -45.1739 C.2       10 UNK         0.5000 
     21 O          -1.7953  -23.0676  -45.1129 O.2       10 UNK        -0.5000 
     22 CA         -2.6987  -20.9090  -44.5942 C.3       10 UNK         0.1400 
     23 CB         -2.3169  -20.4308  -43.1859 C.3       10 UNK        -0.1800 
     24 N          -2.9585  -19.7568  -45.4603 N.am      10 UNK        -0.5000 
     25 C          -3.4652  -19.8464  -46.6994 C.2       9 UNK         0.5000 
     26 O          -3.8360  -20.9035  -47.2081 O.2       9 UNK        -0.5000 
     27 CA         -3.5027  -18.5540  -47.5328 C.3       9 UNK         0.1400 
     28 CB         -4.7260  -17.7006  -47.1691 C.3       9 UNK        -0.1800 
     29 N          -2.2746  -17.7725  -47.3784 N.am      9 UNK        -0.5000 
     30 C          -1.0699  -18.1771  -47.8044 C.2       8 UNK         0.5000 
     31 O          -0.8985  -19.2217  -48.4305 O.2       8 UNK        -0.5000 
     32 CA          0.1513  -17.3208  -47.4122 C.3       8 UNK         0.1400 
     33 CB          0.3917  -16.1865  -48.4058 C.3       8 UNK        -0.1800 
     34 N           0.0372  -16.7561  -46.0701 N.am      8 UNK        -0.5000 
     35 C           0.0503  -17.4845  -44.9486 C.2       7 UNK         0.5000 
     36 O           0.2247  -18.7010  -44.9297 O.2       7 UNK        -0.5000 
     37 CA         -0.2385  -16.7433  -43.6356 C.3       7 UNK         0.1400 
     38 CB          1.0449  -16.1469  -43.0510 C.3       7 UNK        -0.1800 
     39 N          -1.2421  -15.6943  -43.8141 N.am      7 UNK        -0.5000 
     40 C          -2.5437  -15.9431  -44.0170 C.2       6 UNK         0.5000 
     41 O          -3.0240  -17.0771  -44.0332 O.2       6 UNK        -0.5000 
     42 CA         -3.4527  -14.7298  -44.2860 C.3       6 UNK         0.1400 
     43 CB         -3.8540  -14.0506  -42.9682 C.3       6 UNK        -0.1800 
     44 N          -2.8317  -13.7425  -45.1688 N.am      6 UNK        -0.5000 
     45 C          -2.5289  -13.9554  -46.4569 C.2       5 UNK         0.5000 
     46 O          -2.7888  -14.9975  -47.0562 O.2       5 UNK        -0.5000 
     47 CA         -1.7792  -12.8335  -47.1981 C.3       5 UNK         0.1400 
     48 CB         -2.7662  -11.9466  -47.9700 C.3       5 UNK        -0.1800 
     49 N          -0.9410  -11.9927  -46.3394 N.am      5 UNK        -0.5000 
     50 C           0.0816  -12.4279  -45.5896 C.2       4 UNK         0.5000 
     51 O           0.3824  -13.6189  -45.4878 O.2       4 UNK        -0.5000 
     52 CA          0.9053  -11.3352  -44.8742 C.3       4 UNK         0.1400 
     53 CB          0.0211  -10.2329  -44.2485 C.3       4 UNK        -0.1800 
     54 N           1.8469  -11.8586  -43.8819 N.am      4 UNK        -0.5000 
     55 C           1.5749  -12.5029  -42.7400 C.2       3 UNK         0.5000 
     56 O           0.4366  -12.7830  -42.3576 O.2       3 UNK        -0.5000 
     57 CA          2.8046  -12.8870  -41.8864 C.3       3 UNK         0.1400 
     58 CB          2.4318  -13.4309  -40.4951 C.3       3 UNK        -0.1800 
     59 N           3.6721  -13.8546  -42.5633 N.am      3 UNK        -0.5000 
     60 C           4.5259  -13.5680  -43.5549 C.2       2 UNK         0.5000 
     61 O           4.6894  -12.4260  -43.9915 O.2       2 UNK        -0.5000 
     62 CA          5.3584  -14.7219  -44.1553 C.3       2 UNK         0.1400 
     63 CB          5.0155  -16.1258  -43.6050 C.3       2 UNK        -0.1800 
     64 N           5.3182  -14.6964  -45.6214 N.am      2 UNK        -0.5000 
     65 C           4.2384  -14.8762  -46.3964 C.2       1 UNK         0.5000 
     66 O           3.1323  -15.2129  -45.9729 O.2       1 UNK        -0.5000 
     67 C          -0.1486  -22.7459  -47.7352 C.2       11 UNK         0.5000 
     68 O           0.1236  -23.9347  -47.8861 O.2       11 UNK        -0.5000 
     69 N          -0.9924  -22.0759  -48.5333 N.am      12 UNK        -0.5000 
     70 CA         -1.7017  -22.6619  -49.6731 C.3       12 UNK         0.1400 
     71 CB         -2.4262  -21.5487  -50.4452 C.3       12 UNK        -0.1800 
     72 C          -2.6836  -23.7788  -49.2676 C.2       12 UNK         0.5000 
     73 O          -2.8072  -24.7749  -49.9834 O.2       12 UNK        -0.5000 
     74 N          -3.3561  -23.6075  -48.1217 N.am      13 UNK        -0.5000 
     75 CA         -4.2103  -24.6197  -47.5004 C.3       13 UNK         0.1400 
     76 CB         -5.0218  -23.9880  -46.3600 C.3       13 UNK        -0.1800 
     77 C          -3.4148  -25.8399  -46.9985 C.2       13 UNK         0.5000 
     78 O          -3.8597  -26.9698  -47.1889 O.2       13 UNK        -0.5000 
     79 N          -2.2469  -25.6060  -46.3894 N.am      14 UNK        -0.5000 
     80 CA         -1.3529  -26.6592  -45.9095 C.3       14 UNK         0.1400 
     81 CB         -0.2988  -26.0501  -44.9716 C.3       14 UNK        -0.1800 
     82 C          -0.6800  -27.4369  -47.0557 C.2       14 UNK         0.5000 
     83 O          -0.6148  -28.6656  -47.0003 O.2       14 UNK        -0.5000 
     84 N          -0.1795  -26.7078  -48.0607 N.am      15 UNK        -0.5000 
     85 CA          0.6027  -27.2542  -49.1659 C.3       15 UNK         0.1400 
     86 CB          1.4341  -26.1305  -49.8064 C.3       15 UNK        -0.1800 
     87 C          -0.2500  -27.9587  -50.2326 C.2       15 UNK         0.5000 
     88 O           0.1356  -29.0373  -50.6862 O.2       15 UNK        -0.5000 
     89 N          -1.3580  -27.3273  -50.6445 N.am      16 UNK        -0.5000 
     90 CA         -2.1155  -27.7188  -51.8372 C.3       16 UNK         0.1400 
     91 CB         -1.9149  -26.6298  -52.9070 C.3       16 UNK        -0.1800 
     92 C          -3.6142  -27.9423  -51.5776 C.2       16 UNK         0.5000 
     93 O          -4.3156  -28.3441  -52.5069 O.2       16 UNK        -0.5000 
     94 N          -4.0951  -27.6493  -50.3582 N.am      17 UNK        -0.5000 
     95 CA         -5.5145  -27.6125  -49.9665 C.3       17 UNK         0.1400 
     96 CB         -6.1548  -29.0148  -50.0445 C.3       17 UNK        -0.1800 
     97 C          -6.3226  -26.5367  -50.7260 C.2       17 UNK         0.5000 
     98 O          -7.5426  -26.6563  -50.8495 O.2       17 UNK        -0.5000 
     99 N          -5.6253  -25.5104  -51.2332 N.am      18 UNK        -0.5000 
    100 CA        -6.1907  -24.4848  -52.1043 C.3       18 UNK         0.1400 
    101 CB        -5.0767  -23.9219  -53.0008 C.3       18 UNK        -0.1800 
    102 C         -6.8793  -23.3581  -51.3207 C.2       18 UNK         0.5000 
    103 O         -7.9373  -22.8940  -51.7462 O.2       18 UNK        -0.5000 
    104 N         -6.2523  -22.9289  -50.2112 N.am      19 UNK        -0.5000 
    105 CA        -6.6394  -21.7844  -49.3692 C.3       19 UNK         0.1400 
    106 CB        -7.9043  -22.1194  -48.5535 C.3       19 UNK        -0.1800 
    107 C         -6.7677  -20.4733  -50.1808 C.2       19 UNK         0.5000 
    108 O         -7.7358  -19.7270  -50.0232 O.2       19 UNK        -0.5000 
    109 N         -5.8085  -20.2765  -51.0949 N.am      20 UNK        -0.5000 
    110 CA        -5.8166  -19.2687  -52.1511 C.3       20 UNK         0.1400 
    111 CB        -4.6105  -19.5325  -53.0679 C.3       20 UNK        -0.1800 
    112 C         -5.7876  -17.8150  -51.6474 C.2       20 UNK         0.5000 
    113 O         -5.2209  -17.5295  -50.5895 O.2       20 UNK        -0.5000 
    114 N         -6.3121  -16.9108  -52.4888 N.am      21 UNK        -0.5000 
    115 CA        -6.3261  -15.4512  -52.3106 C.3       21 UNK         0.1400 
    116 CB        -7.1822  -14.8276  -53.4244 C.3       21 UNK        -0.1800 
    117 C         -4.9274  -14.7955  -52.2667 C.2       21 UNK         0.5000 
    118 O         -4.8155  -13.6262  -51.8967 O.2       21 UNK        -0.5000 
    119 N         -3.8938  -15.5738  -52.6129 N.am      22 UNK        -0.5000 
    120 CA        -2.4753  -15.3400  -52.3061 C.3       22 UNK         0.1400 
    121 C         -2.2145  -15.0736  -50.7909 C.2       22 UNK         0.5000 
    122 N         -2.9434  -15.7118  -49.8797 N.am      22 UNK        -0.7600 
    123 O         -1.3804  -14.2407  -50.4500 O.2       22 UNK        -0.5000 
    124 C124       -1.6369  -16.5187  -52.8831 C.3       23 UNK        -0.0398 
    125 S125        0.1348  -16.6085  -52.4322 S.3       23 UNK        -0.2404 
    126 C126        0.2007  -18.2826  -51.6944 C.3       23 UNK        -0.0205 
    127 H127        1.0531  -13.0600  -49.3248 H         1 UNK         0.0600 
    128 H128        1.9820  -11.6634  -49.8849 H         1 UNK         0.0600 
    129 H129        1.0945  -11.5825  -48.3624 H         1 UNK         0.0600 
    130 H130        2.7856  -14.5302  -49.1903 H         1 UNK         0.3000 
    131 H131        5.3293  -14.0589  -48.0604 H         1 UNK         0.0600 
    132 H132        3.8395  -16.7111  -48.4578 H         1 UNK         0.0800 
    133 H133        5.5510  -16.5592  -48.1277 H         1 UNK         0.0800 
    134 H134        5.5292  -17.6614  -51.9205 H         1 UNK         0.0800 
    135 H135        6.0340  -18.0774  -50.3015 H         1 UNK         0.0800 
    136 H136        2.7134  -17.0161  -51.7426 H         1 UNK         0.1150 
    137 H137        0.7247  -20.5841  -50.4272 H         1 UNK         0.1150 
    138 H138        4.9130  -20.0728  -49.7118 H         1 UNK         0.1150 
    139 H139        2.0022  -22.4412  -49.6262 H         1 UNK         0.0800 
    140 H140        3.7293  -22.4045  -49.8127 H         1 UNK         0.0800 
    141 H141        1.2416  -20.3215  -47.7493 H         1 UNK         0.0800 
    142 H142        1.8831  -20.3928  -46.1422 H         1 UNK         0.0800 
    143 H143        0.8954  -22.7169  -45.8682 H         1 UNK         0.0600 
    144 H144       -0.4729  -20.2699  -45.7012 H         1 UNK         0.3000 
    145 H145       -3.6281  -21.4764  -44.5144 H         1 UNK         0.0600 
    146 H146       -3.0947  -19.7961  -42.7608 H         1 UNK         0.0600 
    147 H147       -2.1822  -21.2776  -42.5119 H         1 UNK         0.0600 
    148 H148       -1.3870  -19.8636  -43.1871 H         1 UNK         0.0600 
    149 H149       -2.7194  -18.8418  -45.0939 H         1 UNK         0.3000 
    150 H150       -3.5914  -18.8364  -48.5842 H         1 UNK         0.0600 
    151 H151       -5.6481  -18.2665  -47.3073 H         1 UNK         0.0600 
    152 H152       -4.7931  -16.8177  -47.8046 H         1 UNK         0.0600 
    153 H153       -4.6953  -17.3654  -46.1327 H         1 UNK         0.0600 
    154 H154       -2.3613  -16.8676  -46.9272 H         1 UNK         0.3000 
    155 H155        1.0305  -17.9671  -47.4321 H         1 UNK         0.0600 
    156 H156       -0.4217  -15.4664  -48.3829 H         1 UNK         0.0600 
    157 H157        0.4828  -16.5587  -49.4245 H         1 UNK         0.0600 
    158 H158        1.3095  -15.6572  -48.1644 H         1 UNK         0.0600 
    159 H159       -0.0469  -15.7491  -45.9925 H         1 UNK         0.3000 
    160 H160       -0.6257  -17.4702  -42.9185 H         1 UNK         0.0600 
    161 H161        1.4929  -15.4187  -43.7277 H         1 UNK         0.0600 
    162 H162        1.7847  -16.9252  -42.8620 H         1 UNK         0.0600 
    163 H163        0.8401  -15.6518  -42.1038 H         1 UNK         0.0600 
    164 H164       -0.8998  -14.7435  -43.8737 H         1 UNK         0.3000 
    165 H165       -4.3594  -15.0951  -44.7730 H         1 UNK         0.0600 
    166 H166       -4.5622  -13.2403  -43.1419 H         1 UNK         0.0600 
    167 H167       -4.3333  -14.7612  -42.2935 H         1 UNK         0.0600 
    168 H168       -2.9890  -13.6359  -42.4486 H         1 UNK         0.0600 
    169 H169       -2.5687  -12.8604  -44.7553 H         1 UNK         0.3000 
    170 H170       -1.1177  -13.3094  -47.9225 H         1 UNK         0.0600 
    171 H171       -3.3792  -12.5451  -48.6460 H         1 UNK         0.0600 
    172 H172       -3.4396  -11.4125  -47.2986 H         1 UNK         0.0600 
    173 H173       -2.2415  -11.2112  -48.5801 H         1 UNK         0.0600 
    174 H174       -1.1310  -11.0017  -46.3678 H         1 UNK         0.3000 
    175 H175        1.5223  -10.8703  -45.6443 H         1 UNK         0.0600 
    176 H176       -0.7187  -10.6467  -43.5623 H         1 UNK         0.0600 
    177 H177        0.6240   -9.5146  -43.6927 H         1 UNK         0.0600 
    178 H178       -0.5165   -9.6682  -45.0105 H         1 UNK         0.0600 
    179 H179        2.8287  -11.7753  -44.1285 H         1 UNK         0.3000 
    180 H180        3.3726  -11.9683  -41.7244 H         1 UNK         0.0600 
    181 H181        1.8940  -14.3759  -40.5528 H         1 UNK         0.0600 
    182 H182        1.7971  -12.7251  -39.9578 H         1 UNK         0.0600 
    183 H183        3.3215  -13.5913  -39.8860 H         1 UNK         0.0600 
    184 H184        3.5729  -14.8180  -42.2801 H         1 UNK         0.3000 
    185 H185        6.3927  -14.5127  -43.8790 H         1 UNK         0.0600 
    186 H186        5.1757  -16.1785  -42.5276 H         1 UNK         0.0600 
    187 H187        3.9819  -16.4082  -43.8027 H         1 UNK         0.0600 
    188 H188        5.6536  -16.8850  -44.0573 H         1 UNK         0.0600 
    189 H189        6.1777  -14.4013  -46.0629 H         1 UNK         0.3000 
    190 H190       -1.1359  -21.0818  -48.3690 H         1 UNK         0.3000 
    191 H191       -0.9554  -23.1062  -50.3348 H         1 UNK         0.0600 
    192 H192       -1.7286  -20.7781  -50.7731 H         1 UNK         0.0600 
    193 H193       -2.9120  -21.9414  -51.3376 H         1 UNK         0.0600 
    194 H194       -3.1877  -21.0644  -49.8343 H         1 UNK         0.0600 
    195 H195       -3.2537  -22.7271  -47.6245 H         1 UNK         0.3000 
    196 H196       -4.9160  -24.9705  -48.2549 H         1 UNK         0.0600 
    197 H197       -5.7200  -24.7092  -45.9337 H         1 UNK         0.0600 
    198 H198       -5.6057  -23.1377  -46.7102 H         1 UNK         0.0600 
    199 H199       -4.3796  -23.6383  -45.5524 H         1 UNK         0.0600 
    200 H200       -1.9675  -24.6468  -46.2037 H         1 UNK         0.3000 
    201 H201       -1.9454  -27.3696  -45.3290 H         1 UNK         0.0600 
    202 H202       -0.7678  -25.5709  -44.1121 H         1 UNK         0.0600 
    203 H203        0.3094  -25.3009  -45.4793 H         1 UNK         0.0600 
    204 H204        0.3752  -26.8176  -44.5892 H         1 UNK         0.0600 
    205 H205       -0.2287  -25.6917  -48.0003 H         1 UNK         0.3000 
    206 H206        1.3001  -27.9901  -48.7596 H         1 UNK         0.0600 
    207 H207        2.1027  -25.6708  -49.0781 H         1 UNK         0.0600 
    208 H208        2.0525  -26.5146  -50.6187 H         1 UNK         0.0600 
    209 H209        0.8005  -25.3443  -50.2190 H         1 UNK         0.0600 
    210 H210       -1.6140  -26.4402  -50.2243 H         1 UNK         0.3000 
    211 H211       -1.7411  -28.6598  -52.2446 H         1 UNK         0.0600 
    212 H212       -2.2908  -25.6624  -52.5719 H         1 UNK         0.0600 
    213 H213       -2.4353  -26.8816  -53.8320 H         1 UNK         0.0600 
    214 H214       -0.8597  -26.5107  -53.1535 H         1 UNK         0.0600 
    215 H215       -3.4420  -27.3431  -49.6501 H         1 UNK         0.3000 
    216 H216       -5.5554  -27.3104  -48.9234 H         1 UNK         0.0600 
    217 H217       -7.1475  -29.0155  -49.5930 H         1 UNK         0.0600 
    218 H218       -5.5564  -29.7506  -49.5075 H         1 UNK         0.0600 
    219 H219       -6.2674  -29.3579  -51.0730 H         1 UNK         0.0600 
    220 H220       -4.6276  -25.4756  -51.0641 H         1 UNK         0.3000 
    221 H221       -6.9395  -24.9432  -52.7543 H         1 UNK         0.0600 
    222 H222       -4.2542  -23.5117  -52.4160 H         1 UNK         0.0600 
    223 H223       -4.6676  -24.6976  -53.6485 H         1 UNK         0.0600 
    224 H224       -5.4543  -23.1269  -53.6454 H         1 UNK         0.0600 
    225 H225       -5.4003  -23.3994  -49.9465 H         1 UNK         0.3000 
    226 H226       -5.8244  -21.6277  -48.6643 H         1 UNK         0.0600 
    227 H227       -7.7769  -23.0430  -47.9892 H         1 UNK         0.0600 
    228 H228       -8.1265  -21.3285  -47.8362 H         1 UNK         0.0600 
    229 H229       -8.7791  -22.2374  -49.1937 H         1 UNK         0.0600 
    230 H230       -5.0552  -20.9435  -51.1329 H         1 UNK         0.3000 
    231 H231       -6.7322  -19.4121  -52.7286 H         1 UNK         0.0600 
    232 H232       -3.6678  -19.4409  -52.5268 H         1 UNK         0.0600 
    233 H233       -4.5822  -18.8287  -53.9007 H         1 UNK         0.0600 
    234 H234       -4.6526  -20.5338  -53.4974 H         1 UNK         0.0600 
    235 H235       -6.7331  -17.2440  -53.3444 H         1 UNK         0.3000 
    236 H236       -6.8042  -15.2418  -51.3516 H         1 UNK         0.0600 
    237 H237       -8.1990  -15.2203  -53.4084 H         1 UNK         0.0600 
    238 H238       -7.2533  -13.7455  -53.3057 H         1 UNK         0.0600 
    239 H239       -6.7607  -15.0222  -54.4114 H         1 UNK         0.0600 
    240 H240       -4.1228  -16.5038  -52.9251 H         1 UNK         0.3000 
    241 H241       -2.1799  -14.4321  -52.8349 H         1 UNK         0.0600 
    242 H242       -2.8145  -15.4936  -48.8981 H         1 UNK         0.3800 
    243 H243       -3.6731  -16.3621  -50.1513 H         1 UNK         0.3800 
    244 H244       -2.1036  -17.4605  -52.5916 H         1 UNK         0.0800 
    245 H245       -1.6925  -16.4956  -53.9722 H         1 UNK         0.0800 
    246 H246       -0.1159  -19.0030  -52.4499 H         1 UNK         0.0800 
    247 H247       -0.5376  -18.3301  -50.8935 H         1 UNK         0.0800 
@<TRIPOS>BOND
     1    1    2 1    
     2    1  127 1    
     3    1  128 1    
     4    1  129 1    
     5    2    3 2    
     6    2    4 am   BACKBONE|DICT|INTERRES
     7    4    5 1    
     8    4  130 1    
     9    5    6 1    
    10    5   65 1    
    11    5  131 1    
    12    6    7 1    
    13    6  132 1    
    14    6  133 1    
    15    7    8 1    
    16    8    9 1    
    17    8  134 1    
    18    8  135 1    
    19    9   10 ar   
    20    9   14 ar   
    21   10   11 ar   
    22   10  136 1    
    23   11   12 ar   
    24   11  126 1    
    25   12   13 ar   
    26   12  137 1    
    27   13   14 ar   
    28   13   15 1    
    29   14  138 1    
    30   15   16 1    
    31   15  139 1    
    32   15  140 1    
    33   16   17 1    
    34   17   18 1    
    35   17  141 1    
    36   17  142 1    
    37   18   19 1    
    38   18   67 1    
    39   18  143 1    
    40   19   20 am   BACKBONE|DICT|INTERRES
    41   19  144 1    
    42   20   21 2    
    43   20   22 1    
    44   22   23 1    
    45   22   24 1    
    46   22  145 1    
    47   23  146 1    
    48   23  147 1    
    49   23  148 1    
    50   24   25 am   BACKBONE|DICT|INTERRES
    51   24  149 1    
    52   25   26 2    
    53   25   27 1    
    54   27   28 1    
    55   27   29 1    
    56   27  150 1    
    57   28  151 1    
    58   28  152 1    
    59   28  153 1    
    60   29   30 am   BACKBONE|DICT|INTERRES
    61   29  154 1    
    62   30   31 2    
    63   30   32 1    
    64   32   33 1    
    65   32   34 1    
    66   32  155 1    
    67   33  156 1    
    68   33  157 1    
    69   33  158 1    
    70   34   35 am   BACKBONE|DICT|INTERRES
    71   34  159 1    
    72   35   36 2    
    73   35   37 1    
    74   37   38 1    
    75   37   39 1    
    76   37  160 1    
    77   38  161 1    
    78   38  162 1    
    79   38  163 1    
    80   39   40 am   BACKBONE|DICT|INTERRES
    81   39  164 1    
    82   40   41 2    
    83   40   42 1    
    84   42   43 1    
    85   42   44 1    
    86   42  165 1    
    87   43  166 1    
    88   43  167 1    
    89   43  168 1    
    90   44   45 am   BACKBONE|DICT|INTERRES
    91   44  169 1    
    92   45   46 2    
    93   45   47 1    
    94   47   48 1    
    95   47   49 1    
    96   47  170 1    
    97   48  171 1    
    98   48  172 1    
    99   48  173 1    
   100   49   50 am   BACKBONE|DICT|INTERRES
   101   49  174 1    
   102   50   51 2    
   103   50   52 1    
   104   52   53 1    
   105   52   54 1    
   106   52  175 1    
   107   53  176 1    
   108   53  177 1    
   109   53  178 1    
   110   54   55 am   BACKBONE|DICT|INTERRES
   111   54  179 1    
   112   55   56 2    
   113   55   57 1    
   114   57   58 1    
   115   57   59 1    
   116   57  180 1    
   117   58  181 1    
   118   58  182 1    
   119   58  183 1    
   120   59   60 am   BACKBONE|DICT|INTERRES
   121   59  184 1    
   122   60   61 2    
   123   60   62 1    
   124   62   63 1    
   125   62   64 1    
   126   62  185 1    
   127   63  186 1    
   128   63  187 1    
   129   63  188 1    
   130   64   65 am   BACKBONE|DICT|INTERRES
   131   64  189 1    
   132   65   66 2    
   133   67   68 2    
   134   67   69 am   BACKBONE|DICT|INTERRES
   135   69   70 1    
   136   69  190 1    
   137   70   71 1    
   138   70   72 1    
   139   70  191 1    
   140   71  192 1    
   141   71  193 1    
   142   71  194 1    
   143   72   73 2    
   144   72   74 am   BACKBONE|DICT|INTERRES
   145   74   75 1    
   146   74  195 1    
   147   75   76 1    
   148   75   77 1    
   149   75  196 1    
   150   76  197 1    
   151   76  198 1    
   152   76  199 1    
   153   77   78 2    
   154   77   79 am   BACKBONE|DICT|INTERRES
   155   79   80 1    
   156   79  200 1    
   157   80   81 1    
   158   80   82 1    
   159   80  201 1    
   160   81  202 1    
   161   81  203 1    
   162   81  204 1    
   163   82   83 2    
   164   82   84 am   BACKBONE|DICT|INTERRES
   165   84   85 1    
   166   84  205 1    
   167   85   86 1    
   168   85   87 1    
   169   85  206 1    
   170   86  207 1    
   171   86  208 1    
   172   86  209 1    
   173   87   88 2    
   174   87   89 am   BACKBONE|DICT|INTERRES
   175   89   90 1    
   176   89  210 1    
   177   90   91 1    
   178   90   92 1    
   179   90  211 1    
   180   91  212 1    
   181   91  213 1    
   182   91  214 1    
   183   92   93 2    
   184   92   94 am   BACKBONE|DICT|INTERRES
   185   94   95 1    
   186   94  215 1    
   187   95   96 1    
   188   95   97 1    
   189   95  216 1    
   190   96  217 1    
   191   96  218 1    
   192   96  219 1    
   193   97   98 2    
   194   97   99 am   BACKBONE|DICT|INTERRES
   195   99  100 1    
   196   99  220 1    
   197  100  101 1    
   198  100  102 1    
   199  100  221 1    
   200  101  222 1    
   201  101  223 1    
   202  101  224 1    
   203  102  103 2    
   204  102  104 am   BACKBONE|DICT|INTERRES
   205  104  105 1    
   206  104  225 1    
   207  105  106 1    
   208  105  107 1    
   209  105  226 1    
   210  106  227 1    
   211  106  228 1    
   212  106  229 1    
   213  107  108 2    
   214  107  109 am   BACKBONE|DICT|INTERRES
   215  109  110 1    
   216  109  230 1    
   217  110  111 1    
   218  110  112 1    
   219  110  231 1    
   220  111  232 1    
   221  111  233 1    
   222  111  234 1    
   223  112  113 2    
   224  112  114 am   BACKBONE|DICT|INTERRES
   225  114  115 1    
   226  114  235 1    
   227  115  116 1    
   228  115  117 1    
   229  115  236 1    
   230  116  237 1    
   231  116  238 1    
   232  116  239 1    
   233  117  118 2    
   234  117  119 am   BACKBONE|DICT|INTERRES
   235  119  120 1    
   236  119  240 1    
   237  120  121 1    
   238  120  124 1    
   239  120  241 1    
   240  121  122 am   BACKBONE|DICT|INTERRES
   241  121  123 2    
   242  122  242 1    
   243  122  243 1    
   244  124  125 1    
   245  124  244 1    
   246  124  245 1    
   247  125  126 1    
   248  126  246 1    
   249  126  247 1    
@<TRIPOS>SUBSTRUCTURE
     1 UNK         1 GROUP             0       ****    0 ROOT    
