@<TRIPOS>MOLECULE
3R540
247   249    1
SMALL
USER_CHARGES


@<TRIPOS>ATOM
      1 CA          3.7272  -17.1952  -47.0395 C.3       0 UNK        -0.1800 
      2 C           4.3530  -17.2381  -48.4320 C.2       0 UNK         0.5000 
      3 O           5.3431  -17.9410  -48.6177 O.2       0 UNK        -0.5000 
      4 N           3.8454  -16.5081  -49.4370 N.am      1 UNK        -0.5000 
      5 CA          2.7070  -15.5763  -49.4182 C.3       1 UNK         0.1400 
      6 C6          2.3272  -15.1741  -50.8664 C.3       23 UNK        -0.0398 
      7 S7          0.6462  -14.4775  -51.0230 S.3       23 UNK        -0.2404 
      8 C8         -0.2456  -15.8213  -51.8649 C.3       23 UNK        -0.0205 
      9 C9         -0.5450  -16.9814  -50.9292 C.ar      23 UNK        -0.0193 
     10 C10        -1.6386  -16.9078  -50.0605 C.ar      23 UNK        -0.1150 
     11 C11        -1.9613  -17.9871  -49.2348 C.ar      23 UNK        -0.0193 
     12 C12        -1.1751  -19.1382  -49.2800 C.ar      23 UNK        -0.1150 
     13 C13        -0.0696  -19.2224  -50.1291 C.ar      23 UNK        -0.0193 
     14 C14         0.2431  -18.1377  -50.9532 C.ar      23 UNK        -0.1150 
     15 C15         0.7388  -20.5117  -50.1937 C.3       23 UNK        -0.0205 
     16 S16         2.2535  -20.4626  -49.1847 S.3       23 UNK        -0.2404 
     17 C17         1.5761  -20.3266  -47.4989 C.3       23 UNK        -0.0398 
     18 CA          1.8875  -21.5275  -46.5667 C.3       11 UNK         0.1400 
     19 N           2.0597  -21.0566  -45.1909 N.am      11 UNK        -0.5000 
     20 C           3.2083  -20.9980  -44.5103 C.2       10 UNK         0.5000 
     21 O           4.2856  -21.3996  -44.9499 O.2       10 UNK        -0.5000 
     22 CA          3.1525  -20.3773  -43.1000 C.3       10 UNK         0.1400 
     23 CB          3.6499  -18.9241  -43.1360 C.3       10 UNK        -0.1800 
     24 N           1.8237  -20.4084  -42.4795 N.am      10 UNK        -0.5000 
     25 C           1.2329  -21.5177  -42.0122 C.2       9 UNK         0.5000 
     26 O           1.7078  -22.6453  -42.1459 O.2       9 UNK        -0.5000 
     27 CA         -0.1092  -21.3423  -41.2825 C.3       9 UNK         0.1400 
     28 CB          0.1114  -20.7500  -39.8814 C.3       9 UNK        -0.1800 
     29 N          -1.0044  -20.4685  -42.0371 N.am      9 UNK        -0.5000 
     30 C          -2.0562  -20.8814  -42.7595 C.2       8 UNK         0.5000 
     31 O          -2.4321  -22.0519  -42.8166 O.2       8 UNK        -0.5000 
     32 CA         -2.8182  -19.8099  -43.5713 C.3       8 UNK         0.1400 
     33 CB         -4.0458  -19.3150  -42.7926 C.3       8 UNK        -0.1800 
     34 N          -1.9968  -18.6560  -43.9429 N.am      8 UNK        -0.5000 
     35 C          -0.8963  -18.7215  -44.7041 C.2       7 UNK         0.5000 
     36 O          -0.5202  -19.7530  -45.2532 O.2       7 UNK        -0.5000 
     37 CA         -0.0193  -17.4591  -44.8004 C.3       7 UNK         0.1400 
     38 CB         -0.2302  -16.7498  -46.1452 C.3       7 UNK        -0.1800 
     39 N          -0.2125  -16.5228  -43.6832 N.am      7 UNK        -0.5000 
     40 C           0.0686  -16.8135  -42.3997 C.2       6 UNK         0.5000 
     41 O           0.5378  -17.8997  -42.0550 O.2       6 UNK        -0.5000 
     42 CA         -0.2537  -15.7698  -41.3114 C.3       6 UNK         0.1400 
     43 CB          0.9918  -15.3931  -40.4930 C.3       6 UNK        -0.1800 
     44 N          -0.8689  -14.5540  -41.8412 N.am      6 UNK        -0.5000 
     45 C          -2.1867  -14.3866  -42.0220 C.2       5 UNK         0.5000 
     46 O          -3.0271  -15.2387  -41.7324 O.2       5 UNK        -0.5000 
     47 CA         -2.6445  -13.0594  -42.6622 C.3       5 UNK         0.1400 
     48 CB         -3.0279  -12.0429  -41.5764 C.3       5 UNK        -0.1800 
     49 N          -1.6453  -12.4569  -43.5491 N.am      5 UNK        -0.5000 
     50 C          -1.1690  -13.0286  -44.6630 C.2       4 UNK         0.5000 
     51 O          -1.5497  -14.1244  -45.0718 O.2       4 UNK        -0.5000 
     52 CA         -0.0528  -12.2914  -45.4272 C.3       4 UNK         0.1400 
     53 CB          0.0787  -10.7958  -45.0629 C.3       4 UNK        -0.1800 
     54 N           1.2398  -12.9665  -45.2821 N.am      4 UNK        -0.5000 
     55 C           1.8967  -13.2373  -44.1413 C.2       3 UNK         0.5000 
     56 O           1.4433  -12.9983  -43.0211 O.2       3 UNK        -0.5000 
     57 CA          3.2967  -13.8818  -44.2553 C.3       3 UNK         0.1400 
     58 CB          3.2442  -15.3675  -43.8708 C.3       3 UNK        -0.1800 
     59 N           3.8863  -13.7786  -45.5897 N.am      3 UNK        -0.5000 
     60 C           4.3052  -12.6525  -46.1803 C.2       2 UNK         0.5000 
     61 O           4.3470  -11.5600  -45.6139 O.2       2 UNK        -0.5000 
     62 CA          4.7254  -12.7585  -47.6628 C.3       2 UNK         0.1400 
     63 CB          6.2554  -12.6946  -47.7889 C.3       2 UNK        -0.1800 
     64 N           4.2468  -13.9537  -48.3745 N.am      2 UNK        -0.5000 
     65 C           2.9671  -14.3236  -48.5457 C.2       1 UNK         0.5000 
     66 O           2.0197  -13.7417  -48.0171 O.2       1 UNK        -0.5000 
     67 C           0.7962  -22.6241  -46.6080 C.2       11 UNK         0.5000 
     68 O           0.1736  -22.8388  -47.6499 O.2       11 UNK        -0.5000 
     69 N           0.5711  -23.3013  -45.4685 N.am      12 UNK        -0.5000 
     70 CA         -0.5206  -24.2489  -45.2020 C.3       12 UNK         0.1400 
     71 CB         -0.3719  -24.7908  -43.7726 C.3       12 UNK        -0.1800 
     72 C          -0.6592  -25.4215  -46.1935 C.2       12 UNK         0.5000 
     73 O          -1.7466  -25.9868  -46.3089 O.2       12 UNK        -0.5000 
     74 N           0.4296  -25.7603  -46.8957 N.am      13 UNK        -0.5000 
     75 CA          0.4665  -26.7758  -47.9475 C.3       13 UNK         0.1400 
     76 CB          1.9321  -27.0479  -48.3200 C.3       13 UNK        -0.1800 
     77 C          -0.3458  -26.4014  -49.2051 C.2       13 UNK         0.5000 
     78 O          -0.7710  -27.3058  -49.9255 O.2       13 UNK        -0.5000 
     79 N          -0.5380  -25.0979  -49.4545 N.am      14 UNK        -0.5000 
     80 CA         -1.2483  -24.5751  -50.6241 C.3       14 UNK         0.1400 
     81 CB         -0.2229  -23.9724  -51.5985 C.3       14 UNK        -0.1800 
     82 C          -2.3530  -23.5640  -50.2682 C.2       14 UNK         0.5000 
     83 O          -3.1864  -23.2743  -51.1305 O.2       14 UNK        -0.5000 
     84 N          -2.3605  -23.0421  -49.0321 N.am      15 UNK        -0.5000 
     85 CA         -3.3615  -22.1029  -48.5228 C.3       15 UNK         0.1400 
     86 CB         -3.0441  -21.7411  -47.0640 C.3       15 UNK        -0.1800 
     87 C          -4.7981  -22.6432  -48.6301 C.2       15 UNK         0.5000 
     88 O          -5.0473  -23.7969  -48.2746 O.2       15 UNK        -0.5000 
     89 N          -5.7008  -21.7897  -49.1330 N.am      16 UNK        -0.5000 
     90 CA         -7.1167  -22.0576  -49.4128 C.3       16 UNK         0.1400 
     91 CB         -7.8907  -22.3348  -48.1072 C.3       16 UNK        -0.1800 
     92 C          -7.3554  -23.1469  -50.4859 C.2       16 UNK         0.5000 
     93 O          -8.4675  -23.6685  -50.5805 O.2       16 UNK        -0.5000 
     94 N          -6.3284  -23.4587  -51.2876 N.am      17 UNK        -0.5000 
     95 CA         -6.3485  -24.4925  -52.3148 C.3       17 UNK         0.1400 
     96 CB         -5.9635  -25.8486  -51.6845 C.3       17 UNK        -0.1800 
     97 C          -5.4483  -24.0520  -53.4806 C.2       17 UNK         0.5000 
     98 O          -5.7951  -23.0935  -54.1752 O.2       17 UNK        -0.5000 
     99 N          -4.3129  -24.7429  -53.6642 N.am      18 UNK        -0.5000 
    100 CA        -3.3394  -24.5931  -54.7526 C.3       18 UNK         0.1400 
    101 CB        -2.2326  -25.6436  -54.5724 C.3       18 UNK        -0.1800 
    102 C         -2.7278  -23.1870  -54.9212 C.2       18 UNK         0.5000 
    103 O         -2.2378  -22.8739  -56.0060 O.2       18 UNK        -0.5000 
    104 N         -2.8123  -22.3446  -53.8837 N.am      19 UNK        -0.5000 
    105 CA        -2.4631  -20.9206  -53.8956 C.3       19 UNK         0.1400 
    106 CB        -2.2930  -20.4579  -52.4389 C.3       19 UNK        -0.1800 
    107 C         -3.4864  -20.0268  -54.6379 C.2       19 UNK         0.5000 
    108 O         -3.4837  -18.8140  -54.4277 O.2       19 UNK        -0.5000 
    109 N         -4.3766  -20.6312  -55.4405 N.am      20 UNK        -0.5000 
    110 CA        -5.5339  -20.0344  -56.1153 C.3       20 UNK         0.1400 
    111 CB        -5.0950  -19.0026  -57.1752 C.3       20 UNK        -0.1800 
    112 C         -6.5350  -19.4734  -55.0888 C.2       20 UNK         0.5000 
    113 O         -6.9739  -18.3271  -55.2009 O.2       20 UNK        -0.5000 
    114 N         -6.8114  -20.2857  -54.0564 N.am      21 UNK        -0.5000 
    115 CA        -7.6182  -19.9657  -52.8730 C.3       21 UNK         0.1400 
    116 CB        -9.1075  -19.8357  -53.2515 C.3       21 UNK        -0.1800 
    117 C         -7.0895  -18.7485  -52.0774 C.2       21 UNK         0.5000 
    118 O         -7.8777  -18.0278  -51.4646 O.2       21 UNK        -0.5000 
    119 N         -5.7652  -18.5415  -52.1235 N.am      22 UNK        -0.5000 
    120 CA        -5.0306  -17.3705  -51.6098 C.3       22 UNK         0.1400 
    121 C         -5.2537  -16.0609  -52.4300 C.2       22 UNK         0.5000 
    122 N         -5.8718  -16.0937  -53.6053 N.am      22 UNK        -0.7600 
    123 O         -4.8322  -14.9871  -52.0087 O.2       22 UNK        -0.5000 
    124 C124       -5.1981  -17.1390  -50.0795 C.3       23 UNK        -0.0398 
    125 S125       -4.6691  -18.5632  -49.0670 S.3       23 UNK        -0.2404 
    126 C126       -3.1510  -17.9222  -48.2896 C.3       23 UNK        -0.0205 
    127 H127        3.8788  -18.1487  -46.5332 H         1 UNK         0.0600 
    128 H128        2.6568  -16.9993  -47.0607 H         1 UNK         0.0600 
    129 H129        4.2178  -16.4304  -46.4416 H         1 UNK         0.0600 
    130 H130        4.3033  -16.5882  -50.3337 H         1 UNK         0.3000 
    131 H131        1.8566  -16.1101  -48.9890 H         1 UNK         0.0600 
    132 H132        3.0404  -14.4533  -51.2710 H         1 UNK         0.0800 
    133 H133        2.3952  -16.0432  -51.5217 H         1 UNK         0.0800 
    134 H134       -1.1848  -15.4254  -52.2547 H         1 UNK         0.0800 
    135 H135        0.3207  -16.1584  -52.7345 H         1 UNK         0.0800 
    136 H136       -2.2431  -16.0122  -50.0383 H         1 UNK         0.1150 
    137 H137       -1.4259  -19.9767  -48.6513 H         1 UNK         0.1150 
    138 H138        1.0857  -18.2048  -51.6266 H         1 UNK         0.1150 
    139 H139        0.1232  -21.3500  -49.8676 H         1 UNK         0.0800 
    140 H140        1.0117  -20.7178  -51.2294 H         1 UNK         0.0800 
    141 H141        0.5079  -20.1351  -47.5295 H         1 UNK         0.0800 
    142 H142        2.0012  -19.4141  -47.0858 H         1 UNK         0.0800 
    143 H143        2.8085  -22.0062  -46.9044 H         1 UNK         0.0600 
    144 H144        1.2134  -20.6931  -44.7652 H         1 UNK         0.3000 
    145 H145        3.8332  -20.9502  -42.4666 H         1 UNK         0.0600 
    146 H146        3.6613  -18.4837  -42.1388 H         1 UNK         0.0600 
    147 H147        3.0202  -18.3011  -43.7686 H         1 UNK         0.0600 
    148 H148        4.6658  -18.8665  -43.5289 H         1 UNK         0.0600 
    149 H149        1.3818  -19.5071  -42.3135 H         1 UNK         0.3000 
    150 H150       -0.5549  -22.3314  -41.1590 H         1 UNK         0.0600 
    151 H151        0.7815  -21.3782  -39.2930 H         1 UNK         0.0600 
    152 H152       -0.8289  -20.6771  -39.3348 H         1 UNK         0.0600 
    153 H153        0.5496  -19.7520  -39.9249 H         1 UNK         0.0600 
    154 H154       -0.7456  -19.4896  -42.0694 H         1 UNK         0.3000 
    155 H155       -3.1639  -20.2835  -44.4909 H         1 UNK         0.0600 
    156 H156       -4.6952  -20.1467  -42.5162 H         1 UNK         0.0600 
    157 H157       -4.6407  -18.6248  -43.3912 H         1 UNK         0.0600 
    158 H158       -3.7588  -18.8018  -41.8738 H         1 UNK         0.0600 
    159 H159       -2.2400  -17.7699  -43.5245 H         1 UNK         0.3000 
    160 H160        1.0169  -17.7962  -44.7702 H         1 UNK         0.0600 
    161 H161       -1.2674  -16.4425  -46.2791 H         1 UNK         0.0600 
    162 H162        0.0221  -17.4084  -46.9773 H         1 UNK         0.0600 
    163 H163        0.3984  -15.8633  -46.2322 H         1 UNK         0.0600 
    164 H164       -0.6333  -15.6293  -43.9129 H         1 UNK         0.3000 
    165 H165       -0.9505  -16.2557  -40.6252 H         1 UNK         0.0600 
    166 H166        0.7156  -14.8047  -39.6180 H         1 UNK         0.0600 
    167 H167        1.5152  -16.2794  -40.1317 H         1 UNK         0.0600 
    168 H168        1.7002  -14.8033  -41.0714 H         1 UNK         0.0600 
    169 H169       -0.2321  -13.8228  -42.1431 H         1 UNK         0.3000 
    170 H170       -3.5329  -13.2744  -43.2596 H         1 UNK         0.0600 
    171 H171       -2.1696  -11.7686  -40.9616 H         1 UNK         0.0600 
    172 H172       -3.4336  -11.1308  -42.0145 H         1 UNK         0.0600 
    173 H173       -3.7912  -12.4500  -40.9119 H         1 UNK         0.0600 
    174 H174       -1.2556  -11.5718  -43.2592 H         1 UNK         0.3000 
    175 H175       -0.3152  -12.3522  -46.4845 H         1 UNK         0.0600 
    176 H176        0.3971  -10.6445  -44.0310 H         1 UNK         0.0600 
    177 H177        0.8116  -10.3065  -45.7047 H         1 UNK         0.0600 
    178 H178       -0.8680  -10.2722  -45.2014 H         1 UNK         0.0600 
    179 H179        1.6675  -13.2471  -46.1600 H         1 UNK         0.3000 
    180 H180        3.9532  -13.3657  -43.5519 H         1 UNK         0.0600 
    181 H181        4.2316  -15.8262  -43.9250 H         1 UNK         0.0600 
    182 H182        2.5766  -15.9249  -44.5269 H         1 UNK         0.0600 
    183 H183        2.8893  -15.5022  -42.8510 H         1 UNK         0.0600 
    184 H184        3.8941  -14.6197  -46.1434 H         1 UNK         0.3000 
    185 H185        4.3045  -11.8893  -48.1721 H         1 UNK         0.0600 
    186 H186        6.5651  -12.6561  -48.8334 H         1 UNK         0.0600 
    187 H187        6.6533  -11.8029  -47.3023 H         1 UNK         0.0600 
    188 H188        6.7322  -13.5605  -47.3277 H         1 UNK         0.0600 
    189 H189        4.9578  -14.5066  -48.8319 H         1 UNK         0.3000 
    190 H190        1.1512  -23.0717  -44.6733 H         1 UNK         0.3000 
    191 H191       -1.4514  -23.6826  -45.2487 H         1 UNK         0.0600 
    192 H192       -0.4605  -23.9914  -43.0388 H         1 UNK         0.0600 
    193 H193        0.5917  -25.2797  -43.6250 H         1 UNK         0.0600 
    194 H194       -1.1508  -25.5190  -43.5422 H         1 UNK         0.0600 
    195 H195        1.2794  -25.2407  -46.7344 H         1 UNK         0.3000 
    196 H196        0.0397  -27.6961  -47.5432 H         1 UNK         0.0600 
    197 H197        2.5027  -27.3899  -47.4563 H         1 UNK         0.0600 
    198 H198        2.4191  -26.1547  -48.7138 H         1 UNK         0.0600 
    199 H199        2.0040  -27.8241  -49.0831 H         1 UNK         0.0600 
    200 H200       -0.1525  -24.4135  -48.8112 H         1 UNK         0.3000 
    201 H201       -1.7652  -25.3835  -51.1443 H         1 UNK         0.0600 
    202 H202        0.4078  -24.7519  -52.0259 H         1 UNK         0.0600 
    203 H203        0.4323  -23.2573  -51.1042 H         1 UNK         0.0600 
    204 H204       -0.7072  -23.4595  -52.4288 H         1 UNK         0.0600 
    205 H205       -1.6060  -23.2729  -48.3981 H         1 UNK         0.3000 
    206 H206       -3.2836  -21.2030  -49.1335 H         1 UNK         0.0600 
    207 H207       -3.1645  -22.6007  -46.4047 H         1 UNK         0.0600 
    208 H208       -2.0278  -21.3684  -46.9457 H         1 UNK         0.0600 
    209 H209       -3.7185  -20.9611  -46.7098 H         1 UNK         0.0600 
    210 H210       -5.3892  -20.8540  -49.3622 H         1 UNK         0.3000 
    211 H211       -7.5161  -21.1325  -49.8293 H         1 UNK         0.0600 
    212 H212       -7.6092  -23.2898  -47.6629 H         1 UNK         0.0600 
    213 H213       -8.9658  -22.3647  -48.2875 H         1 UNK         0.0600 
    214 H214       -7.7098  -21.5541  -47.3683 H         1 UNK         0.0600 
    215 H215       -5.4341  -23.0049  -51.1461 H         1 UNK         0.3000 
    216 H216       -7.3550  -24.5801  -52.7292 H         1 UNK         0.0600 
    217 H217       -5.9346  -26.6420  -52.4325 H         1 UNK         0.0600 
    218 H218       -6.6948  -26.1475  -50.9333 H         1 UNK         0.0600 
    219 H219       -4.9908  -25.8073  -51.1920 H         1 UNK         0.0600 
    220 H220       -4.1168  -25.4831  -53.0071 H         1 UNK         0.3000 
    221 H221       -3.8674  -24.8159  -55.6818 H         1 UNK         0.0600 
    222 H222       -2.6416  -26.6541  -54.5828 H         1 UNK         0.0600 
    223 H223       -1.4995  -25.5848  -55.3781 H         1 UNK         0.0600 
    224 H224       -1.6978  -25.5080  -53.6329 H         1 UNK         0.0600 
    225 H225       -3.1929  -22.7009  -53.0121 H         1 UNK         0.3000 
    226 H226       -1.5048  -20.8030  -54.4050 H         1 UNK         0.0600 
    227 H227       -1.5423  -21.0555  -51.9245 H         1 UNK         0.0600 
    228 H228       -1.9668  -19.4189  -52.3877 H         1 UNK         0.0600 
    229 H229       -3.2243  -20.5361  -51.8766 H         1 UNK         0.0600 
    230 H230       -4.3159  -21.6377  -55.5070 H         1 UNK         0.3000 
    231 H231       -6.0448  -20.8467  -56.6341 H         1 UNK         0.0600 
    232 H232       -5.9511  -18.6519  -57.7526 H         1 UNK         0.0600 
    233 H233       -4.3854  -19.4384  -57.8784 H         1 UNK         0.0600 
    234 H234       -4.6265  -18.1270  -56.7251 H         1 UNK         0.0600 
    235 H235       -6.4018  -21.2166  -54.0706 H         1 UNK         0.3000 
    236 H236       -7.5244  -20.8240  -52.2111 H         1 UNK         0.0600 
    237 H237       -9.2917  -18.9597  -53.8741 H         1 UNK         0.0600 
    238 H238       -9.4531  -20.7140  -53.7968 H         1 UNK         0.0600 
    239 H239       -9.7318  -19.7424  -52.3621 H         1 UNK         0.0600 
    240 H240       -5.2152  -19.1581  -52.7027 H         1 UNK         0.3000 
    241 H241       -3.9798  -17.6086  -51.7785 H         1 UNK         0.0600 
    242 H242       -5.9912  -15.2353  -54.1183 H         1 UNK         0.3800 
    243 H243       -6.2145  -16.9614  -54.0050 H         1 UNK         0.3800 
    244 H244       -6.2356  -16.9120  -49.8344 H         1 UNK         0.0800 
    245 H245       -4.6337  -16.2618  -49.7624 H         1 UNK         0.0800 
    246 H246       -3.3065  -16.9016  -47.9370 H         1 UNK         0.0800 
    247 H247       -2.9396  -18.5149  -47.3981 H         1 UNK         0.0800 
@<TRIPOS>BOND
     1    1    2 1    
     2    1  127 1    
     3    1  128 1    
     4    1  129 1    
     5    2    3 2    
     6    2    4 am   BACKBONE|DICT|INTERRES
     7    4    5 1    
     8    4  130 1    
     9    5    6 1    
    10    5   65 1    
    11    5  131 1    
    12    6    7 1    
    13    6  132 1    
    14    6  133 1    
    15    7    8 1    
    16    8    9 1    
    17    8  134 1    
    18    8  135 1    
    19    9   10 ar   
    20    9   14 ar   
    21   10   11 ar   
    22   10  136 1    
    23   11   12 ar   
    24   11  126 1    
    25   12   13 ar   
    26   12  137 1    
    27   13   14 ar   
    28   13   15 1    
    29   14  138 1    
    30   15   16 1    
    31   15  139 1    
    32   15  140 1    
    33   16   17 1    
    34   17   18 1    
    35   17  141 1    
    36   17  142 1    
    37   18   19 1    
    38   18   67 1    
    39   18  143 1    
    40   19   20 am   BACKBONE|DICT|INTERRES
    41   19  144 1    
    42   20   21 2    
    43   20   22 1    
    44   22   23 1    
    45   22   24 1    
    46   22  145 1    
    47   23  146 1    
    48   23  147 1    
    49   23  148 1    
    50   24   25 am   BACKBONE|DICT|INTERRES
    51   24  149 1    
    52   25   26 2    
    53   25   27 1    
    54   27   28 1    
    55   27   29 1    
    56   27  150 1    
    57   28  151 1    
    58   28  152 1    
    59   28  153 1    
    60   29   30 am   BACKBONE|DICT|INTERRES
    61   29  154 1    
    62   30   31 2    
    63   30   32 1    
    64   32   33 1    
    65   32   34 1    
    66   32  155 1    
    67   33  156 1    
    68   33  157 1    
    69   33  158 1    
    70   34   35 am   BACKBONE|DICT|INTERRES
    71   34  159 1    
    72   35   36 2    
    73   35   37 1    
    74   37   38 1    
    75   37   39 1    
    76   37  160 1    
    77   38  161 1    
    78   38  162 1    
    79   38  163 1    
    80   39   40 am   BACKBONE|DICT|INTERRES
    81   39  164 1    
    82   40   41 2    
    83   40   42 1    
    84   42   43 1    
    85   42   44 1    
    86   42  165 1    
    87   43  166 1    
    88   43  167 1    
    89   43  168 1    
    90   44   45 am   BACKBONE|DICT|INTERRES
    91   44  169 1    
    92   45   46 2    
    93   45   47 1    
    94   47   48 1    
    95   47   49 1    
    96   47  170 1    
    97   48  171 1    
    98   48  172 1    
    99   48  173 1    
   100   49   50 am   BACKBONE|DICT|INTERRES
   101   49  174 1    
   102   50   51 2    
   103   50   52 1    
   104   52   53 1    
   105   52   54 1    
   106   52  175 1    
   107   53  176 1    
   108   53  177 1    
   109   53  178 1    
   110   54   55 am   BACKBONE|DICT|INTERRES
   111   54  179 1    
   112   55   56 2    
   113   55   57 1    
   114   57   58 1    
   115   57   59 1    
   116   57  180 1    
   117   58  181 1    
   118   58  182 1    
   119   58  183 1    
   120   59   60 am   BACKBONE|DICT|INTERRES
   121   59  184 1    
   122   60   61 2    
   123   60   62 1    
   124   62   63 1    
   125   62   64 1    
   126   62  185 1    
   127   63  186 1    
   128   63  187 1    
   129   63  188 1    
   130   64   65 am   BACKBONE|DICT|INTERRES
   131   64  189 1    
   132   65   66 2    
   133   67   68 2    
   134   67   69 am   BACKBONE|DICT|INTERRES
   135   69   70 1    
   136   69  190 1    
   137   70   71 1    
   138   70   72 1    
   139   70  191 1    
   140   71  192 1    
   141   71  193 1    
   142   71  194 1    
   143   72   73 2    
   144   72   74 am   BACKBONE|DICT|INTERRES
   145   74   75 1    
   146   74  195 1    
   147   75   76 1    
   148   75   77 1    
   149   75  196 1    
   150   76  197 1    
   151   76  198 1    
   152   76  199 1    
   153   77   78 2    
   154   77   79 am   BACKBONE|DICT|INTERRES
   155   79   80 1    
   156   79  200 1    
   157   80   81 1    
   158   80   82 1    
   159   80  201 1    
   160   81  202 1    
   161   81  203 1    
   162   81  204 1    
   163   82   83 2    
   164   82   84 am   BACKBONE|DICT|INTERRES
   165   84   85 1    
   166   84  205 1    
   167   85   86 1    
   168   85   87 1    
   169   85  206 1    
   170   86  207 1    
   171   86  208 1    
   172   86  209 1    
   173   87   88 2    
   174   87   89 am   BACKBONE|DICT|INTERRES
   175   89   90 1    
   176   89  210 1    
   177   90   91 1    
   178   90   92 1    
   179   90  211 1    
   180   91  212 1    
   181   91  213 1    
   182   91  214 1    
   183   92   93 2    
   184   92   94 am   BACKBONE|DICT|INTERRES
   185   94   95 1    
   186   94  215 1    
   187   95   96 1    
   188   95   97 1    
   189   95  216 1    
   190   96  217 1    
   191   96  218 1    
   192   96  219 1    
   193   97   98 2    
   194   97   99 am   BACKBONE|DICT|INTERRES
   195   99  100 1    
   196   99  220 1    
   197  100  101 1    
   198  100  102 1    
   199  100  221 1    
   200  101  222 1    
   201  101  223 1    
   202  101  224 1    
   203  102  103 2    
   204  102  104 am   BACKBONE|DICT|INTERRES
   205  104  105 1    
   206  104  225 1    
   207  105  106 1    
   208  105  107 1    
   209  105  226 1    
   210  106  227 1    
   211  106  228 1    
   212  106  229 1    
   213  107  108 2    
   214  107  109 am   BACKBONE|DICT|INTERRES
   215  109  110 1    
   216  109  230 1    
   217  110  111 1    
   218  110  112 1    
   219  110  231 1    
   220  111  232 1    
   221  111  233 1    
   222  111  234 1    
   223  112  113 2    
   224  112  114 am   BACKBONE|DICT|INTERRES
   225  114  115 1    
   226  114  235 1    
   227  115  116 1    
   228  115  117 1    
   229  115  236 1    
   230  116  237 1    
   231  116  238 1    
   232  116  239 1    
   233  117  118 2    
   234  117  119 am   BACKBONE|DICT|INTERRES
   235  119  120 1    
   236  119  240 1    
   237  120  121 1    
   238  120  124 1    
   239  120  241 1    
   240  121  122 am   BACKBONE|DICT|INTERRES
   241  121  123 2    
   242  122  242 1    
   243  122  243 1    
   244  124  125 1    
   245  124  244 1    
   246  124  245 1    
   247  125  126 1    
   248  126  246 1    
   249  126  247 1    
@<TRIPOS>SUBSTRUCTURE
     1 UNK         1 GROUP             0       ****    0 ROOT    
