@<TRIPOS>MOLECULE
3R540
247   249    1
SMALL
USER_CHARGES


@<TRIPOS>ATOM
      1 CA          0.2067  -11.2694  -45.5552 C.3       0 UNK        -0.1800 
      2 C           1.0634  -11.5854  -46.7724 C.2       0 UNK         0.5000 
      3 O           2.1246  -10.9870  -46.9472 O.2       0 UNK        -0.5000 
      4 N           0.6115  -12.5344  -47.6042 N.am      1 UNK        -0.5000 
      5 CA          1.2726  -12.9926  -48.8361 C.3       1 UNK         0.1400 
      6 C6          0.3885  -14.0294  -49.5702 C.3       23 UNK        -0.0398 
      7 S7          0.9553  -14.4448  -51.2562 S.3       23 UNK        -0.2404 
      8 C8         -0.5523  -15.1763  -51.9654 C.3       23 UNK        -0.0205 
      9 C9         -1.0551  -16.3558  -51.1454 C.ar      23 UNK        -0.0193 
     10 C10        -2.1431  -16.1965  -50.2824 C.ar      23 UNK        -0.1150 
     11 C11        -2.6025  -17.2660  -49.5107 C.ar      23 UNK        -0.0193 
     12 C12        -1.9666  -18.5063  -49.6140 C.ar      23 UNK        -0.1150 
     13 C13        -0.8698  -18.6785  -50.4659 C.ar      23 UNK        -0.0193 
     14 C14        -0.4223  -17.5991  -51.2322 C.ar      23 UNK        -0.1150 
     15 C15        -0.1873  -20.0360  -50.5827 C.3       23 UNK        -0.0205 
     16 S16         1.3536  -20.1632  -49.6096 S.3       23 UNK        -0.2404 
     17 C17         0.7767  -20.0152  -47.8828 C.3       23 UNK        -0.0398 
     18 CA          0.4648  -21.3672  -47.1897 C.3       11 UNK         0.1400 
     19 N           0.3912  -21.2364  -45.7315 N.am      11 UNK        -0.5000 
     20 C           0.2152  -22.2460  -44.8659 C.2       10 UNK         0.5000 
     21 O           0.1901  -23.4308  -45.1958 O.2       10 UNK        -0.5000 
     22 CA         -0.0400  -21.8694  -43.3934 C.3       10 UNK         0.1400 
     23 CB          1.2808  -21.6756  -42.6349 C.3       10 UNK        -0.1800 
     24 N          -0.8804  -20.6772  -43.2539 N.am      10 UNK        -0.5000 
     25 C          -2.1577  -20.6034  -43.6578 C.2       9 UNK         0.5000 
     26 O          -2.7775  -21.5578  -44.1265 O.2       9 UNK        -0.5000 
     27 CA         -2.8395  -19.2239  -43.5826 C.3       9 UNK         0.1400 
     28 CB         -3.3537  -18.9361  -42.1646 C.3       9 UNK        -0.1800 
     29 N          -1.9567  -18.1424  -44.0239 N.am      9 UNK        -0.5000 
     30 C          -1.4939  -18.0133  -45.2751 C.2       8 UNK         0.5000 
     31 O          -1.8408  -18.7487  -46.1992 O.2       8 UNK        -0.5000 
     32 CA         -0.4187  -16.9336  -45.5207 C.3       8 UNK         0.1400 
     33 CB         -1.0460  -15.5566  -45.7791 C.3       8 UNK        -0.1800 
     34 N           0.5319  -16.8323  -44.4115 N.am      8 UNK        -0.5000 
     35 C           1.3980  -17.7968  -44.0705 C.2       7 UNK         0.5000 
     36 O           1.5332  -18.8384  -44.7087 O.2       7 UNK        -0.5000 
     37 CA          2.2137  -17.5893  -42.7820 C.3       7 UNK         0.1400 
     38 CB          3.4823  -16.7654  -43.0406 C.3       7 UNK        -0.1800 
     39 N           1.4197  -16.9527  -41.7338 N.am      7 UNK        -0.5000 
     40 C           0.4286  -17.5628  -41.0698 C.2       6 UNK         0.5000 
     41 O           0.1150  -18.7399  -41.2440 O.2       6 UNK        -0.5000 
     42 CA         -0.3718  -16.6967  -40.0803 C.3       6 UNK         0.1400 
     43 CB          0.3233  -16.6565  -38.7114 C.3       6 UNK        -0.1800 
     44 N          -0.5648  -15.3294  -40.5675 N.am      6 UNK        -0.5000 
     45 C          -1.3098  -15.0049  -41.6340 C.2       5 UNK         0.5000 
     46 O          -1.9508  -15.8225  -42.2921 O.2       5 UNK        -0.5000 
     47 CA         -1.2858  -13.5290  -42.0702 C.3       5 UNK         0.1400 
     48 CB         -2.3382  -12.7175  -41.3011 C.3       5 UNK        -0.1800 
     49 N           0.0321  -12.9123  -41.8955 N.am      5 UNK        -0.5000 
     50 C           1.1210  -13.2570  -42.5928 C.2       4 UNK         0.5000 
     51 O           1.1292  -14.1257  -43.4697 O.2       4 UNK        -0.5000 
     52 CA          2.4231  -12.5378  -42.2289 C.3       4 UNK         0.1400 
     53 CB          3.1541  -13.2747  -41.0922 C.3       4 UNK        -0.1800 
     54 N           3.2608  -12.4786  -43.4198 N.am      4 UNK        -0.5000 
     55 C           4.2659  -11.6214  -43.6258 C.2       3 UNK         0.5000 
     56 O           4.6352  -10.8027  -42.7821 O.2       3 UNK        -0.5000 
     57 CA          4.9496  -11.6339  -45.0095 C.3       3 UNK         0.1400 
     58 CB          6.4889  -11.6168  -44.9030 C.3       3 UNK        -0.1800 
     59 N           4.4825  -12.6868  -45.9215 N.am      3 UNK        -0.5000 
     60 C           4.7206  -14.0067  -45.8728 C.2       2 UNK         0.5000 
     61 O           5.3718  -14.5509  -44.9816 O.2       2 UNK        -0.5000 
     62 CA          4.1122  -14.8544  -47.0113 C.3       2 UNK         0.1400 
     63 CB          3.8691  -16.3190  -46.6144 C.3       2 UNK        -0.1800 
     64 N           2.8468  -14.2884  -47.4779 N.am      2 UNK        -0.5000 
     65 C           2.6944  -13.5408  -48.5776 C.2       1 UNK         0.5000 
     66 O           3.6175  -13.2413  -49.3359 O.2       1 UNK        -0.5000 
     67 C          -0.8135  -22.0191  -47.7532 C.2       11 UNK         0.5000 
     68 O          -0.7112  -22.9909  -48.4990 O.2       11 UNK        -0.5000 
     69 N          -1.9894  -21.5078  -47.3594 N.am      12 UNK        -0.5000 
     70 CA         -3.2925  -22.0445  -47.7622 C.3       12 UNK         0.1400 
     71 CB         -4.4084  -21.0852  -47.3251 C.3       12 UNK        -0.1800 
     72 C          -3.5617  -23.4688  -47.2414 C.2       12 UNK         0.5000 
     73 O          -4.1893  -24.2589  -47.9455 O.2       12 UNK        -0.5000 
     74 N          -3.0754  -23.7782  -46.0319 N.am      13 UNK        -0.5000 
     75 CA         -3.1393  -25.1133  -45.4376 C.3       13 UNK         0.1400 
     76 CB         -2.7781  -25.0328  -43.9467 C.3       13 UNK        -0.1800 
     77 C          -2.2398  -26.1285  -46.1684 C.2       13 UNK         0.5000 
     78 O          -2.6485  -27.2756  -46.3497 O.2       13 UNK        -0.5000 
     79 N          -1.0412  -25.6917  -46.5799 N.am      14 UNK        -0.5000 
     80 CA         -0.0910  -26.4832  -47.3598 C.3       14 UNK         0.1400 
     81 CB          1.2905  -25.8103  -47.3265 C.3       14 UNK        -0.1800 
     82 C          -0.5719  -26.6946  -48.8059 C.2       14 UNK         0.5000 
     83 O          -0.6595  -27.8348  -49.2638 O.2       14 UNK        -0.5000 
     84 N          -0.9134  -25.5965  -49.4905 N.am      15 UNK        -0.5000 
     85 CA         -1.4378  -25.5701  -50.8550 C.3       15 UNK         0.1400 
     86 CB         -1.0215  -24.2455  -51.5201 C.3       15 UNK        -0.1800 
     87 C          -2.9641  -25.7849  -50.8569 C.2       15 UNK         0.5000 
     88 O          -3.7110  -24.9497  -51.3671 O.2       15 UNK        -0.5000 
     89 N          -3.4015  -26.9060  -50.2688 N.am      16 UNK        -0.5000 
     90 CA         -4.8079  -27.2521  -50.0507 C.3       16 UNK         0.1400 
     91 CB         -4.8807  -28.4888  -49.1424 C.3       16 UNK        -0.1800 
     92 C          -5.6115  -27.4885  -51.3443 C.2       16 UNK         0.5000 
     93 O          -6.8278  -27.2938  -51.3398 O.2       16 UNK        -0.5000 
     94 N          -4.9293  -27.9067  -52.4206 N.am      17 UNK        -0.5000 
     95 CA         -5.5197  -28.1211  -53.7434 C.3       17 UNK         0.1400 
     96 CB         -4.5238  -28.8861  -54.6293 C.3       17 UNK        -0.1800 
     97 C          -5.9509  -26.8031  -54.4140 C.2       17 UNK         0.5000 
     98 O          -7.0541  -26.7299  -54.9567 O.2       17 UNK        -0.5000 
     99 N          -5.0806  -25.7901  -54.3347 N.am      18 UNK        -0.5000 
    100 CA        -5.2703  -24.4281  -54.8223 C.3       18 UNK         0.1400 
    101 CB        -5.4433  -24.3861  -56.3549 C.3       18 UNK        -0.1800 
    102 C         -4.0406  -23.6114  -54.4068 C.2       18 UNK         0.5000 
    103 O         -2.9173  -24.0115  -54.7229 O.2       18 UNK        -0.5000 
    104 N         -4.2714  -22.4887  -53.7211 N.am      19 UNK        -0.5000 
    105 CA        -3.2445  -21.5215  -53.3416 C.3       19 UNK         0.1400 
    106 CB        -3.5731  -20.9807  -51.9434 C.3       19 UNK        -0.1800 
    107 C         -3.1725  -20.3858  -54.3772 C.2       19 UNK         0.5000 
    108 O         -4.1360  -20.1632  -55.1149 O.2       19 UNK        -0.5000 
    109 N         -2.0345  -19.6777  -54.4000 N.am      20 UNK        -0.5000 
    110 CA        -1.6831  -18.6576  -55.3969 C.3       20 UNK         0.1400 
    111 CB        -0.2366  -18.2007  -55.1535 C.3       20 UNK        -0.1800 
    112 C         -2.6263  -17.4387  -55.4602 C.2       20 UNK         0.5000 
    113 O         -2.7202  -16.8099  -56.5154 O.2       20 UNK        -0.5000 
    114 N         -3.3093  -17.1380  -54.3501 N.am      21 UNK        -0.5000 
    115 CA        -4.3624  -16.1244  -54.2740 C.3       21 UNK         0.1400 
    116 CB        -3.8240  -14.8502  -53.6056 C.3       21 UNK        -0.1800 
    117 C         -5.5826  -16.6652  -53.5164 C.2       21 UNK         0.5000 
    118 O         -6.7133  -16.4134  -53.9336 O.2       21 UNK        -0.5000 
    119 N         -5.3360  -17.4054  -52.4271 N.am      22 UNK        -0.5000 
    120 CA        -6.3726  -17.9701  -51.5461 C.3       22 UNK         0.1400 
    121 C         -7.1182  -19.2203  -52.1048 C.2       22 UNK         0.5000 
    122 N         -6.7905  -19.7350  -53.2843 N.am      22 UNK        -0.7600 
    123 O         -8.0324  -19.7262  -51.4602 O.2       22 UNK        -0.5000 
    124 C124       -5.8253  -18.2068  -50.1137 C.3       23 UNK        -0.0398 
    125 S125       -5.3235  -16.6358  -49.3297 S.3       23 UNK        -0.2404 
    126 C126       -3.7468  -17.0617  -48.5265 C.3       23 UNK        -0.0205 
    127 H127        0.8389  -11.0491  -44.6955 H         1 UNK         0.0600 
    128 H128       -0.4417  -12.1057  -45.2924 H         1 UNK         0.0600 
    129 H129       -0.4159  -10.3968  -45.7513 H         1 UNK         0.0600 
    130 H130       -0.2794  -12.9644  -47.4033 H         1 UNK         0.3000 
    131 H131        1.3751  -12.1174  -49.4812 H         1 UNK         0.0600 
    132 H132        0.3119  -14.9511  -48.9898 H         1 UNK         0.0800 
    133 H133       -0.6266  -13.6384  -49.6532 H         1 UNK         0.0800 
    134 H134       -0.3486  -15.4997  -52.9869 H         1 UNK         0.0800 
    135 H135       -1.3157  -14.4010  -52.0371 H         1 UNK         0.0800 
    136 H136       -2.6277  -15.2340  -50.1970 H         1 UNK         0.1150 
    137 H137       -2.3148  -19.3349  -49.0159 H         1 UNK         0.1150 
    138 H138        0.4305  -17.7223  -51.8845 H         1 UNK         0.1150 
    139 H139       -0.8736  -20.8337  -50.3001 H         1 UNK         0.0800 
    140 H140        0.0580  -20.2211  -51.6291 H         1 UNK         0.0800 
    141 H141       -0.0682  -19.3337  -47.8386 H         1 UNK         0.0800 
    142 H142        1.5783  -19.5128  -47.3402 H         1 UNK         0.0800 
    143 H143        1.2945  -22.0472  -47.3945 H         1 UNK         0.0600 
    144 H144        0.4900  -20.2976  -45.3561 H         1 UNK         0.3000 
    145 H145       -0.5720  -22.7012  -42.9277 H         1 UNK         0.0600 
    146 H146        1.1028  -21.4437  -41.5847 H         1 UNK         0.0600 
    147 H147        1.8846  -22.5832  -42.6703 H         1 UNK         0.0600 
    148 H148        1.8788  -20.8703  -43.0591 H         1 UNK         0.0600 
    149 H149       -0.4564  -19.8658  -42.8167 H         1 UNK         0.3000 
    150 H150       -3.7007  -19.2443  -44.2539 H         1 UNK         0.0600 
    151 H151       -4.0478  -19.7113  -41.8379 H         1 UNK         0.0600 
    152 H152       -3.8848  -17.9850  -42.1241 H         1 UNK         0.0600 
    153 H153       -2.5422  -18.8963  -41.4388 H         1 UNK         0.0600 
    154 H154       -1.6937  -17.4503  -43.3290 H         1 UNK         0.3000 
    155 H155        0.1419  -17.2184  -46.4135 H         1 UNK         0.0600 
    156 H156       -1.7097  -15.2551  -44.9687 H         1 UNK         0.0600 
    157 H157       -0.2799  -14.7893  -45.8853 H         1 UNK         0.0600 
    158 H158       -1.6279  -15.5624  -46.6996 H         1 UNK         0.0600 
    159 H159        0.5248  -15.9694  -43.8775 H         1 UNK         0.3000 
    160 H160        2.5245  -18.5727  -42.4234 H         1 UNK         0.0600 
    161 H161        3.2530  -15.7726  -43.4273 H         1 UNK         0.0600 
    162 H162        4.1260  -17.2616  -43.7673 H         1 UNK         0.0600 
    163 H163        4.0661  -16.6430  -42.1284 H         1 UNK         0.0600 
    164 H164        1.5911  -15.9746  -41.5606 H         1 UNK         0.3000 
    165 H165       -1.3542  -17.1562  -39.9528 H         1 UNK         0.0600 
    166 H166       -0.2717  -16.1047  -37.9835 H         1 UNK         0.0600 
    167 H167        0.4652  -17.6636  -38.3169 H         1 UNK         0.0600 
    168 H168        1.3052  -16.1851  -38.7698 H         1 UNK         0.0600 
    169 H169       -0.0757  -14.5950  -40.0778 H         1 UNK         0.3000 
    170 H170       -1.5382  -13.4934  -43.1321 H         1 UNK         0.0600 
    171 H171       -3.3326  -13.1468  -41.4307 H         1 UNK         0.0600 
    172 H172       -2.1279  -12.6929  -40.2312 H         1 UNK         0.0600 
    173 H173       -2.3810  -11.6886  -41.6591 H         1 UNK         0.0600 
    174 H174        0.1024  -12.1899  -41.1930 H         1 UNK         0.3000 
    175 H175        2.1805  -11.5214  -41.9117 H         1 UNK         0.0600 
    176 H176        3.4491  -14.2811  -41.3889 H         1 UNK         0.0600 
    177 H177        4.0557  -12.7414  -40.7908 H         1 UNK         0.0600 
    178 H178        2.5220  -13.3624  -40.2078 H         1 UNK         0.0600 
    179 H179        2.9916  -13.1177  -44.1556 H         1 UNK         0.3000 
    180 H180        4.6529  -10.6973  -45.4838 H         1 UNK         0.0600 
    181 H181        6.8694  -12.4789  -44.3550 H         1 UNK         0.0600 
    182 H182        6.8338  -10.7245  -44.3792 H         1 UNK         0.0600 
    183 H183        6.9536  -11.6114  -45.8889 H         1 UNK         0.0600 
    184 H184        3.8912  -12.3491  -46.6717 H         1 UNK         0.3000 
    185 H185        4.8470  -14.8549  -47.8188 H         1 UNK         0.0600 
    186 H186        4.7788  -16.7921  -46.2430 H         1 UNK         0.0600 
    187 H187        3.1103  -16.3925  -45.8393 H         1 UNK         0.0600 
    188 H188        3.5261  -16.9046  -47.4676 H         1 UNK         0.0600 
    189 H189        2.0437  -14.4400  -46.8855 H         1 UNK         0.3000 
    190 H190       -1.9933  -20.6939  -46.7521 H         1 UNK         0.3000 
    191 H191       -3.3041  -22.0974  -48.8521 H         1 UNK         0.0600 
    192 H192       -4.3855  -20.8996  -46.2511 H         1 UNK         0.0600 
    193 H193       -5.3916  -21.4898  -47.5690 H         1 UNK         0.0600 
    194 H194       -4.3224  -20.1287  -47.8352 H         1 UNK         0.0600 
    195 H195       -2.6453  -23.0450  -45.4775 H         1 UNK         0.3000 
    196 H196       -4.1698  -25.4664  -45.5148 H         1 UNK         0.0600 
    197 H197       -2.8793  -26.0080  -43.4691 H         1 UNK         0.0600 
    198 H198       -3.4342  -24.3409  -43.4181 H         1 UNK         0.0600 
    199 H199       -1.7512  -24.7007  -43.7971 H         1 UNK         0.0600 
    200 H200       -0.7548  -24.7489  -46.3344 H         1 UNK         0.3000 
    201 H201        0.0027  -27.4651  -46.8911 H         1 UNK         0.0600 
    202 H202        1.6660  -25.7368  -46.3057 H         1 UNK         0.0600 
    203 H203        1.2618  -24.8025  -47.7420 H         1 UNK         0.0600 
    204 H204        2.0188  -26.3834  -47.9015 H         1 UNK         0.0600 
    205 H205       -0.8448  -24.6893  -49.0301 H         1 UNK         0.3000 
    206 H206       -0.9901  -26.3835  -51.4295 H         1 UNK         0.0600 
    207 H207        0.0577  -24.0998  -51.4719 H         1 UNK         0.0600 
    208 H208       -1.3034  -24.2350  -52.5726 H         1 UNK         0.0600 
    209 H209       -1.4956  -23.3871  -51.0433 H         1 UNK         0.0600 
    210 H210       -2.7099  -27.5258  -49.8641 H         1 UNK         0.3000 
    211 H211       -5.2749  -26.4159  -49.5261 H         1 UNK         0.0600 
    212 H212       -4.3928  -29.3516  -49.5976 H         1 UNK         0.0600 
    213 H213       -5.9161  -28.7652  -48.9387 H         1 UNK         0.0600 
    214 H214       -4.4023  -28.3005  -48.1815 H         1 UNK         0.0600 
    215 H215       -3.9352  -28.0541  -52.3294 H         1 UNK         0.3000 
    216 H216       -6.4103  -28.7417  -53.6224 H         1 UNK         0.0600 
    217 H217       -4.9446  -29.0699  -55.6188 H         1 UNK         0.0600 
    218 H218       -4.2766  -29.8560  -54.1974 H         1 UNK         0.0600 
    219 H219       -3.5941  -28.3323  -54.7659 H         1 UNK         0.0600 
    220 H220       -4.2105  -25.9339  -53.8395 H         1 UNK         0.3000 
    221 H221       -6.1609  -24.0121  -54.3471 H         1 UNK         0.0600 
    222 H222       -4.6204  -24.8883  -56.8650 H         1 UNK         0.0600 
    223 H223       -6.3724  -24.8585  -56.6721 H         1 UNK         0.0600 
    224 H224       -5.4724  -23.3565  -56.7141 H         1 UNK         0.0600 
    225 H225       -5.2241  -22.2104  -53.5395 H         1 UNK         0.3000 
    226 H226       -2.2659  -22.0040  -53.2997 H         1 UNK         0.0600 
    227 H227       -3.4586  -21.7615  -51.1921 H         1 UNK         0.0600 
    228 H228       -2.9132  -20.1607  -51.6702 H         1 UNK         0.0600 
    229 H229       -4.5940  -20.6121  -51.8806 H         1 UNK         0.0600 
    230 H230       -1.3028  -19.9198  -53.7489 H         1 UNK         0.3000 
    231 H231       -1.7233  -19.1395  -56.3759 H         1 UNK         0.0600 
    232 H232        0.0794  -17.4827  -55.9116 H         1 UNK         0.0600 
    233 H233        0.4578  -19.0399  -55.1948 H         1 UNK         0.0600 
    234 H234       -0.1265  -17.7186  -54.1830 H         1 UNK         0.0600 
    235 H235       -3.1762  -17.7291  -53.5451 H         1 UNK         0.3000 
    236 H236       -4.7039  -15.8649  -55.2785 H         1 UNK         0.0600 
    237 H237       -2.9446  -14.4712  -54.1264 H         1 UNK         0.0600 
    238 H238       -4.5755  -14.0600  -53.6156 H         1 UNK         0.0600 
    239 H239       -3.5532  -15.0276  -52.5655 H         1 UNK         0.0600 
    240 H240       -4.3885  -17.5089  -52.1021 H         1 UNK         0.3000 
    241 H241       -7.1562  -17.2149  -51.4569 H         1 UNK         0.0600 
    242 H242       -6.0608  -19.3295  -53.8504 H         1 UNK         0.3800 
    243 H243       -7.3231  -20.5125  -53.6387 H         1 UNK         0.3800 
    244 H244       -6.5844  -18.6596  -49.4737 H         1 UNK         0.0800 
    245 H245       -4.9861  -18.9029  -50.1324 H         1 UNK         0.0800 
    246 H246       -3.4847  -16.2451  -47.8550 H         1 UNK         0.0800 
    247 H247       -3.8841  -17.9341  -47.8894 H         1 UNK         0.0800 
@<TRIPOS>BOND
     1    1    2 1    
     2    1  127 1    
     3    1  128 1    
     4    1  129 1    
     5    2    3 2    
     6    2    4 am   BACKBONE|DICT|INTERRES
     7    4    5 1    
     8    4  130 1    
     9    5    6 1    
    10    5   65 1    
    11    5  131 1    
    12    6    7 1    
    13    6  132 1    
    14    6  133 1    
    15    7    8 1    
    16    8    9 1    
    17    8  134 1    
    18    8  135 1    
    19    9   10 ar   
    20    9   14 ar   
    21   10   11 ar   
    22   10  136 1    
    23   11   12 ar   
    24   11  126 1    
    25   12   13 ar   
    26   12  137 1    
    27   13   14 ar   
    28   13   15 1    
    29   14  138 1    
    30   15   16 1    
    31   15  139 1    
    32   15  140 1    
    33   16   17 1    
    34   17   18 1    
    35   17  141 1    
    36   17  142 1    
    37   18   19 1    
    38   18   67 1    
    39   18  143 1    
    40   19   20 am   BACKBONE|DICT|INTERRES
    41   19  144 1    
    42   20   21 2    
    43   20   22 1    
    44   22   23 1    
    45   22   24 1    
    46   22  145 1    
    47   23  146 1    
    48   23  147 1    
    49   23  148 1    
    50   24   25 am   BACKBONE|DICT|INTERRES
    51   24  149 1    
    52   25   26 2    
    53   25   27 1    
    54   27   28 1    
    55   27   29 1    
    56   27  150 1    
    57   28  151 1    
    58   28  152 1    
    59   28  153 1    
    60   29   30 am   BACKBONE|DICT|INTERRES
    61   29  154 1    
    62   30   31 2    
    63   30   32 1    
    64   32   33 1    
    65   32   34 1    
    66   32  155 1    
    67   33  156 1    
    68   33  157 1    
    69   33  158 1    
    70   34   35 am   BACKBONE|DICT|INTERRES
    71   34  159 1    
    72   35   36 2    
    73   35   37 1    
    74   37   38 1    
    75   37   39 1    
    76   37  160 1    
    77   38  161 1    
    78   38  162 1    
    79   38  163 1    
    80   39   40 am   BACKBONE|DICT|INTERRES
    81   39  164 1    
    82   40   41 2    
    83   40   42 1    
    84   42   43 1    
    85   42   44 1    
    86   42  165 1    
    87   43  166 1    
    88   43  167 1    
    89   43  168 1    
    90   44   45 am   BACKBONE|DICT|INTERRES
    91   44  169 1    
    92   45   46 2    
    93   45   47 1    
    94   47   48 1    
    95   47   49 1    
    96   47  170 1    
    97   48  171 1    
    98   48  172 1    
    99   48  173 1    
   100   49   50 am   BACKBONE|DICT|INTERRES
   101   49  174 1    
   102   50   51 2    
   103   50   52 1    
   104   52   53 1    
   105   52   54 1    
   106   52  175 1    
   107   53  176 1    
   108   53  177 1    
   109   53  178 1    
   110   54   55 am   BACKBONE|DICT|INTERRES
   111   54  179 1    
   112   55   56 2    
   113   55   57 1    
   114   57   58 1    
   115   57   59 1    
   116   57  180 1    
   117   58  181 1    
   118   58  182 1    
   119   58  183 1    
   120   59   60 am   BACKBONE|DICT|INTERRES
   121   59  184 1    
   122   60   61 2    
   123   60   62 1    
   124   62   63 1    
   125   62   64 1    
   126   62  185 1    
   127   63  186 1    
   128   63  187 1    
   129   63  188 1    
   130   64   65 am   BACKBONE|DICT|INTERRES
   131   64  189 1    
   132   65   66 2    
   133   67   68 2    
   134   67   69 am   BACKBONE|DICT|INTERRES
   135   69   70 1    
   136   69  190 1    
   137   70   71 1    
   138   70   72 1    
   139   70  191 1    
   140   71  192 1    
   141   71  193 1    
   142   71  194 1    
   143   72   73 2    
   144   72   74 am   BACKBONE|DICT|INTERRES
   145   74   75 1    
   146   74  195 1    
   147   75   76 1    
   148   75   77 1    
   149   75  196 1    
   150   76  197 1    
   151   76  198 1    
   152   76  199 1    
   153   77   78 2    
   154   77   79 am   BACKBONE|DICT|INTERRES
   155   79   80 1    
   156   79  200 1    
   157   80   81 1    
   158   80   82 1    
   159   80  201 1    
   160   81  202 1    
   161   81  203 1    
   162   81  204 1    
   163   82   83 2    
   164   82   84 am   BACKBONE|DICT|INTERRES
   165   84   85 1    
   166   84  205 1    
   167   85   86 1    
   168   85   87 1    
   169   85  206 1    
   170   86  207 1    
   171   86  208 1    
   172   86  209 1    
   173   87   88 2    
   174   87   89 am   BACKBONE|DICT|INTERRES
   175   89   90 1    
   176   89  210 1    
   177   90   91 1    
   178   90   92 1    
   179   90  211 1    
   180   91  212 1    
   181   91  213 1    
   182   91  214 1    
   183   92   93 2    
   184   92   94 am   BACKBONE|DICT|INTERRES
   185   94   95 1    
   186   94  215 1    
   187   95   96 1    
   188   95   97 1    
   189   95  216 1    
   190   96  217 1    
   191   96  218 1    
   192   96  219 1    
   193   97   98 2    
   194   97   99 am   BACKBONE|DICT|INTERRES
   195   99  100 1    
   196   99  220 1    
   197  100  101 1    
   198  100  102 1    
   199  100  221 1    
   200  101  222 1    
   201  101  223 1    
   202  101  224 1    
   203  102  103 2    
   204  102  104 am   BACKBONE|DICT|INTERRES
   205  104  105 1    
   206  104  225 1    
   207  105  106 1    
   208  105  107 1    
   209  105  226 1    
   210  106  227 1    
   211  106  228 1    
   212  106  229 1    
   213  107  108 2    
   214  107  109 am   BACKBONE|DICT|INTERRES
   215  109  110 1    
   216  109  230 1    
   217  110  111 1    
   218  110  112 1    
   219  110  231 1    
   220  111  232 1    
   221  111  233 1    
   222  111  234 1    
   223  112  113 2    
   224  112  114 am   BACKBONE|DICT|INTERRES
   225  114  115 1    
   226  114  235 1    
   227  115  116 1    
   228  115  117 1    
   229  115  236 1    
   230  116  237 1    
   231  116  238 1    
   232  116  239 1    
   233  117  118 2    
   234  117  119 am   BACKBONE|DICT|INTERRES
   235  119  120 1    
   236  119  240 1    
   237  120  121 1    
   238  120  124 1    
   239  120  241 1    
   240  121  122 am   BACKBONE|DICT|INTERRES
   241  121  123 2    
   242  122  242 1    
   243  122  243 1    
   244  124  125 1    
   245  124  244 1    
   246  124  245 1    
   247  125  126 1    
   248  126  246 1    
   249  126  247 1    
@<TRIPOS>SUBSTRUCTURE
     1 UNK         1 GROUP             0       ****    0 ROOT    
