@<TRIPOS>MOLECULE
3R540
247   249    1
SMALL
USER_CHARGES


@<TRIPOS>ATOM
      1 CA          0.2559  -11.9274  -53.4563 C.3       0 UNK        -0.1800 
      2 C           0.4363  -11.8674  -51.9457 C.2       0 UNK         0.5000 
      3 O           0.5778  -10.7790  -51.3869 O.2       0 UNK        -0.5000 
      4 N           0.4410  -13.0319  -51.2874 N.am      1 UNK        -0.5000 
      5 CA          0.5502  -13.1736  -49.8322 C.3       1 UNK         0.1400 
      6 C6          0.8451  -14.6343  -49.4090 C.3       23 UNK        -0.0398 
      7 S7          2.3333  -15.3651  -50.1663 S.3       23 UNK        -0.2404 
      8 C8          1.5950  -16.7421  -51.0993 C.3       23 UNK        -0.0205 
      9 C9          2.6424  -17.7747  -51.4746 C.ar      23 UNK        -0.0193 
     10 C10         3.3676  -17.6416  -52.6595 C.ar      23 UNK        -0.1150 
     11 C11         4.3190  -18.5996  -53.0173 C.ar      23 UNK        -0.0193 
     12 C12         4.5534  -19.6857  -52.1688 C.ar      23 UNK        -0.1150 
     13 C13         3.8387  -19.8349  -50.9752 C.ar      23 UNK        -0.0193 
     14 C14         2.8774  -18.8709  -50.6400 C.ar      23 UNK        -0.1150 
     15 C15         4.1413  -21.0541  -50.0994 C.3       23 UNK        -0.0205 
     16 S16         3.5201  -20.9793  -48.3828 S.3       23 UNK        -0.2404 
     17 C17         1.8088  -21.6014  -48.5576 C.3       23 UNK        -0.0398 
     18 CA          1.6103  -22.9884  -47.8912 C.3       11 UNK         0.1400 
     19 N           2.0106  -22.9698  -46.4826 N.am      11 UNK        -0.5000 
     20 C           2.3637  -24.0444  -45.7677 C.2       10 UNK         0.5000 
     21 O           2.5239  -25.1644  -46.2580 O.2       10 UNK        -0.5000 
     22 CA          2.5350  -23.8320  -44.2497 C.3       10 UNK         0.1400 
     23 CB          3.3960  -24.9188  -43.5720 C.3       10 UNK        -0.1800 
     24 N           3.0007  -22.4866  -43.9006 N.am      10 UNK        -0.5000 
     25 C           4.1917  -21.9301  -44.1722 C.2       9 UNK         0.5000 
     26 O           5.1010  -22.5162  -44.7611 O.2       9 UNK        -0.5000 
     27 CA          4.4209  -20.4736  -43.7084 C.3       9 UNK         0.1400 
     28 CB          4.6572  -19.5471  -44.9121 C.3       9 UNK        -0.1800 
     29 N           3.3233  -19.9311  -42.9040 N.am      9 UNK        -0.5000 
     30 C           3.0737  -20.2397  -41.6243 C.2       8 UNK         0.5000 
     31 O           3.8016  -20.9606  -40.9413 O.2       8 UNK        -0.5000 
     32 CA          1.7657  -19.6902  -41.0212 C.3       8 UNK         0.1400 
     33 CB          2.0010  -18.3172  -40.3742 C.3       8 UNK        -0.1800 
     34 N           0.6748  -19.5953  -41.9973 N.am      8 UNK        -0.5000 
     35 C           0.1094  -20.6450  -42.6130 C.2       7 UNK         0.5000 
     36 O           0.4259  -21.8138  -42.3937 O.2       7 UNK        -0.5000 
     37 CA         -0.9426  -20.3421  -43.6955 C.3       7 UNK         0.1400 
     38 CB         -2.3056  -20.0280  -43.0629 C.3       7 UNK        -0.1800 
     39 N          -0.5363  -19.2515  -44.5822 N.am      7 UNK        -0.5000 
     40 C           0.5245  -19.3052  -45.4003 C.2       6 UNK         0.5000 
     41 O           1.2185  -20.3121  -45.5410 O.2       6 UNK        -0.5000 
     42 CA          0.9081  -18.0121  -46.1457 C.3       6 UNK         0.1400 
     43 CB          0.1175  -17.8424  -47.4475 C.3       6 UNK        -0.1800 
     44 N           0.7352  -16.8167  -45.3234 N.am      6 UNK        -0.5000 
     45 C           1.4678  -16.5426  -44.2364 C.2       5 UNK         0.5000 
     46 O           2.3901  -17.2514  -43.8351 O.2       5 UNK        -0.5000 
     47 CA          1.0673  -15.2914  -43.4397 C.3       5 UNK         0.1400 
     48 CB          1.5919  -14.0169  -44.1184 C.3       5 UNK        -0.1800 
     49 N          -0.3824  -15.2004  -43.2634 N.am      5 UNK        -0.5000 
     50 C          -1.1005  -16.0315  -42.4947 C.2       4 UNK         0.5000 
     51 O          -0.6121  -16.9559  -41.8460 O.2       4 UNK        -0.5000 
     52 CA         -2.6237  -15.8131  -42.4685 C.3       4 UNK         0.1400 
     53 CB         -2.9977  -14.7400  -41.4353 C.3       4 UNK        -0.1800 
     54 N          -3.1705  -15.4404  -43.7732 N.am      4 UNK        -0.5000 
     55 C          -3.1854  -16.2429  -44.8466 C.2       3 UNK         0.5000 
     56 O          -2.7272  -17.3838  -44.8585 O.2       3 UNK        -0.5000 
     57 CA         -3.7612  -15.6403  -46.1395 C.3       3 UNK         0.1400 
     58 CB         -5.2972  -15.6669  -46.1080 C.3       3 UNK        -0.1800 
     59 N          -3.3008  -14.2712  -46.3969 N.am      3 UNK        -0.5000 
     60 C          -2.0171  -13.9143  -46.5318 C.2       2 UNK         0.5000 
     61 O          -1.0682  -14.6897  -46.3772 O.2       2 UNK        -0.5000 
     62 CA         -1.7340  -12.4427  -46.8869 C.3       2 UNK         0.1400 
     63 CB         -1.3709  -11.6428  -45.6269 C.3       2 UNK        -0.1800 
     64 N          -0.6204  -12.3914  -47.8326 N.am      2 UNK        -0.5000 
     65 C          -0.7450  -12.7278  -49.1224 C.2       1 UNK         0.5000 
     66 O          -1.8298  -12.7990  -49.7074 O.2       1 UNK        -0.5000 
     67 C           0.1434  -23.4685  -48.0043 C.2       11 UNK         0.5000 
     68 O          -0.5467  -23.5950  -46.9880 O.2       11 UNK        -0.5000 
     69 N          -0.3334  -23.6966  -49.2389 N.am      12 UNK        -0.5000 
     70 CA         -1.6869  -24.1846  -49.5577 C.3       12 UNK         0.1400 
     71 CB         -1.8373  -24.2918  -51.0814 C.3       12 UNK        -0.1800 
     72 C          -2.8417  -23.3509  -48.9613 C.2       12 UNK         0.5000 
     73 O          -3.9111  -23.8979  -48.6866 O.2       12 UNK        -0.5000 
     74 N          -2.5748  -22.0652  -48.6939 N.am      13 UNK        -0.5000 
     75 CA         -3.4115  -21.1248  -47.9447 C.3       13 UNK         0.1400 
     76 CB         -2.6358  -19.8126  -47.7995 C.3       13 UNK        -0.1800 
     77 C          -3.8472  -21.6154  -46.5474 C.2       13 UNK         0.5000 
     78 O          -4.8770  -21.1629  -46.0507 O.2       13 UNK        -0.5000 
     79 N          -3.1026  -22.5599  -45.9509 N.am      14 UNK        -0.5000 
     80 CA         -3.4711  -23.2489  -44.7109 C.3       14 UNK         0.1400 
     81 CB         -2.3228  -24.1782  -44.2886 C.3       14 UNK        -0.1800 
     82 C          -4.7975  -24.0340  -44.8066 C.2       14 UNK         0.5000 
     83 O          -5.4602  -24.2140  -43.7842 O.2       14 UNK        -0.5000 
     84 N          -5.1678  -24.4625  -46.0215 N.am      15 UNK        -0.5000 
     85 CA         -6.4495  -25.0935  -46.3319 C.3       15 UNK         0.1400 
     86 CB         -6.1881  -26.4440  -47.0173 C.3       15 UNK        -0.1800 
     87 C          -7.3122  -24.1937  -47.2345 C.2       15 UNK         0.5000 
     88 O          -8.5240  -24.1155  -47.0311 O.2       15 UNK        -0.5000 
     89 N          -6.6837  -23.5441  -48.2234 N.am      16 UNK        -0.5000 
     90 CA         -7.3517  -22.7893  -49.2858 C.3       16 UNK         0.1400 
     91 CB         -6.4499  -22.8257  -50.5265 C.3       16 UNK        -0.1800 
     92 C          -7.7137  -21.3358  -48.9162 C.2       16 UNK         0.5000 
     93 O          -8.3953  -20.6759  -49.7028 O.2       16 UNK        -0.5000 
     94 N          -7.2619  -20.8524  -47.7499 N.am      17 UNK        -0.5000 
     95 CA         -7.4402  -19.4924  -47.2338 C.3       17 UNK         0.1400 
     96 CB         -8.9232  -19.2209  -46.8914 C.3       17 UNK        -0.1800 
     97 C          -6.7989  -18.4479  -48.1704 C.2       17 UNK         0.5000 
     98 O          -5.5762  -18.4312  -48.3001 O.2       17 UNK        -0.5000 
     99 N          -7.6158  -17.5921  -48.7966 N.am      18 UNK        -0.5000 
    100 CA        -7.1686  -16.5595  -49.7328 C.3       18 UNK         0.1400 
    101 CB        -8.2775  -15.5045  -49.8686 C.3       18 UNK        -0.1800 
    102 C         -6.7698  -17.1082  -51.1180 C.2       18 UNK         0.5000 
    103 O         -6.0638  -16.4161  -51.8533 O.2       18 UNK        -0.5000 
    104 N         -7.2363  -18.3150  -51.4648 N.am      19 UNK        -0.5000 
    105 CA        -6.9214  -18.9898  -52.7224 C.3       19 UNK         0.1400 
    106 CB        -8.1003  -19.9046  -53.0973 C.3       19 UNK        -0.1800 
    107 C         -5.6028  -19.7826  -52.6301 C.2       19 UNK         0.5000 
    108 O         -5.0486  -19.9521  -51.5425 O.2       19 UNK        -0.5000 
    109 N         -5.1438  -20.2726  -53.7909 N.am      20 UNK        -0.5000 
    110 CA        -3.9750  -21.1405  -53.9887 C.3       20 UNK         0.1400 
    111 CB        -4.1855  -22.5119  -53.3143 C.3       20 UNK        -0.1800 
    112 C         -2.6293  -20.4917  -53.6007 C.2       20 UNK         0.5000 
    113 O         -1.7015  -21.1969  -53.1971 O.2       20 UNK        -0.5000 
    114 N         -2.5258  -19.1648  -53.7635 N.am      21 UNK        -0.5000 
    115 CA        -1.2983  -18.3893  -53.5784 C.3       21 UNK         0.1400 
    116 CB        -1.6142  -16.8931  -53.7390 C.3       21 UNK        -0.1800 
    117 C         -0.2080  -18.8492  -54.5663 C.2       21 UNK         0.5000 
    118 O         -0.3367  -18.6162  -55.7699 O.2       21 UNK        -0.5000 
    119 N          0.8082  -19.5387  -54.0362 N.am      22 UNK        -0.5000 
    120 CA         1.8601  -20.2415  -54.7885 C.3       22 UNK         0.1400 
    121 C          1.3745  -21.5267  -55.5298 C.2       22 UNK         0.5000 
    122 N          0.2381  -22.1096  -55.1647 N.am      22 UNK        -0.7600 
    123 O          2.0427  -22.0254  -56.4314 O.2       22 UNK        -0.5000 
    124 C124        2.7176  -19.2875  -55.6760 C.3       23 UNK        -0.0398 
    125 S125        4.5013  -19.6716  -55.5782 S.3       23 UNK        -0.2404 
    126 C126        5.0766  -18.4710  -54.3315 C.3       23 UNK        -0.0205 
    127 H127        0.1527  -12.9529  -53.8124 H         1 UNK         0.0600 
    128 H128        1.1154  -11.4794  -53.9552 H         1 UNK         0.0600 
    129 H129       -0.6365  -11.3746  -53.7496 H         1 UNK         0.0600 
    130 H130        0.3072  -13.8902  -51.7998 H         1 UNK         0.3000 
    131 H131        1.3701  -12.5384  -49.4896 H         1 UNK         0.0600 
    132 H132        0.9900  -14.6871  -48.3281 H         1 UNK         0.0800 
    133 H133       -0.0190  -15.2667  -49.6221 H         1 UNK         0.0800 
    134 H134        1.1117  -16.3522  -51.9955 H         1 UNK         0.0800 
    135 H135        0.8128  -17.2218  -50.5094 H         1 UNK         0.0800 
    136 H136        3.1811  -16.7971  -53.3080 H         1 UNK         0.1150 
    137 H137        5.2895  -20.4265  -52.4492 H         1 UNK         0.1150 
    138 H138        2.3074  -18.9567  -49.7272 H         1 UNK         0.1150 
    139 H139        3.7615  -21.9524  -50.5878 H         1 UNK         0.0800 
    140 H140        5.2240  -21.1756  -50.0423 H         1 UNK         0.0800 
    141 H141        1.5499  -21.6373  -49.6167 H         1 UNK         0.0800 
    142 H142        1.1390  -20.8672  -48.1119 H         1 UNK         0.0800 
    143 H143        2.2340  -23.7114  -48.4209 H         1 UNK         0.0600 
    144 H144        1.8695  -22.0852  -46.0028 H         1 UNK         0.3000 
    145 H145        1.5307  -23.9121  -43.8315 H         1 UNK         0.0600 
    146 H146        3.4905  -24.7358  -42.5016 H         1 UNK         0.0600 
    147 H147        2.9454  -25.9044  -43.6927 H         1 UNK         0.0600 
    148 H148        4.3994  -24.9665  -43.9955 H         1 UNK         0.0600 
    149 H149        2.3141  -21.9148  -43.4239 H         1 UNK         0.3000 
    150 H150        5.3266  -20.4699  -43.0987 H         1 UNK         0.0600 
    151 H151        5.5077  -19.8830  -45.5065 H         1 UNK         0.0600 
    152 H152        4.8678  -18.5269  -44.5912 H         1 UNK         0.0600 
    153 H153        3.7909  -19.5186  -45.5722 H         1 UNK         0.0600 
    154 H154        2.7086  -19.2719  -43.3689 H         1 UNK         0.3000 
    155 H155        1.4502  -20.3828  -40.2383 H         1 UNK         0.0600 
    156 H156        2.8002  -18.3651  -39.6336 H         1 UNK         0.0600 
    157 H157        1.1053  -17.9645  -39.8627 H         1 UNK         0.0600 
    158 H158        2.2818  -17.5664  -41.1130 H         1 UNK         0.0600 
    159 H159        0.3261  -18.6618  -42.1944 H         1 UNK         0.3000 
    160 H160       -1.0532  -21.2383  -44.3084 H         1 UNK         0.0600 
    161 H161       -2.2788  -19.1036  -42.4865 H         1 UNK         0.0600 
    162 H162       -2.6175  -20.8258  -42.3880 H         1 UNK         0.0600 
    163 H163       -3.0781  -19.9254  -43.8254 H         1 UNK         0.0600 
    164 H164       -1.1123  -18.4145  -44.5674 H         1 UNK         0.3000 
    165 H165        1.9649  -18.0915  -46.4088 H         1 UNK         0.0600 
    166 H166        0.5229  -17.0211  -48.0323 H         1 UNK         0.0600 
    167 H167        0.1747  -18.7336  -48.0711 H         1 UNK         0.0600 
    168 H168       -0.9333  -17.6246  -47.2549 H         1 UNK         0.0600 
    169 H169        0.0028  -16.1685  -45.5982 H         1 UNK         0.3000 
    170 H170        1.5263  -15.3623  -42.4512 H         1 UNK         0.0600 
    171 H171        2.6786  -14.0452  -44.2072 H         1 UNK         0.0600 
    172 H172        1.1868  -13.8950  -45.1231 H         1 UNK         0.0600 
    173 H173        1.3366  -13.1282  -43.5412 H         1 UNK         0.0600 
    174 H174       -0.8670  -14.5065  -43.8123 H         1 UNK         0.3000 
    175 H175       -3.0884  -16.7535  -42.1652 H         1 UNK         0.0600 
    176 H176       -2.6175  -15.0013  -40.4468 H         1 UNK         0.0600 
    177 H177       -2.5859  -13.7648  -41.6983 H         1 UNK         0.0600 
    178 H178       -4.0794  -14.6359  -41.3487 H         1 UNK         0.0600 
    179 H179       -3.5565  -14.5120  -43.8598 H         1 UNK         0.3000 
    180 H180       -3.4266  -16.2656  -46.9703 H         1 UNK         0.0600 
    181 H181       -5.6647  -16.6756  -45.9158 H         1 UNK         0.0600 
    182 H182       -5.6980  -15.0184  -45.3282 H         1 UNK         0.0600 
    183 H183       -5.7175  -15.3449  -47.0603 H         1 UNK         0.0600 
    184 H184       -4.0192  -13.5747  -46.5325 H         1 UNK         0.3000 
    185 H185       -2.6219  -11.9981  -47.3416 H         1 UNK         0.0600 
    186 H186       -2.1889  -11.6576  -44.9055 H         1 UNK         0.0600 
    187 H187       -0.4878  -12.0446  -45.1299 H         1 UNK         0.0600 
    188 H188       -1.1713  -10.5988  -45.8689 H         1 UNK         0.0600 
    189 H189        0.3010  -12.3853  -47.4200 H         1 UNK         0.3000 
    190 H190        0.2837  -23.5798  -50.0296 H         1 UNK         0.3000 
    191 H191       -1.7743  -25.1881  -49.1366 H         1 UNK         0.0600 
    192 H192       -1.6999  -23.3246  -51.5647 H         1 UNK         0.0600 
    193 H193       -2.8284  -24.6579  -51.3535 H         1 UNK         0.0600 
    194 H194       -1.1097  -24.9848  -51.5039 H         1 UNK         0.0600 
    195 H195       -1.6680  -21.7213  -48.9684 H         1 UNK         0.3000 
    196 H196       -4.3133  -20.9389  -48.5311 H         1 UNK         0.0600 
    197 H197       -3.2037  -19.0755  -47.2300 H         1 UNK         0.0600 
    198 H198       -2.4121  -19.3715  -48.7711 H         1 UNK         0.0600 
    199 H199       -1.6992  -19.9795  -47.2699 H         1 UNK         0.0600 
    200 H200       -2.2552  -22.8846  -46.4096 H         1 UNK         0.3000 
    201 H201       -3.6013  -22.4914  -43.9369 H         1 UNK         0.0600 
    202 H202       -1.3941  -23.6258  -44.1452 H         1 UNK         0.0600 
    203 H203       -2.1382  -24.9507  -45.0362 H         1 UNK         0.0600 
    204 H204       -2.5503  -24.6790  -43.3468 H         1 UNK         0.0600 
    205 H205       -4.5605  -24.2650  -46.8093 H         1 UNK         0.3000 
    206 H206       -7.0188  -25.2835  -45.4197 H         1 UNK         0.0600 
    207 H207       -5.6318  -27.1147  -46.3623 H         1 UNK         0.0600 
    208 H208       -7.1247  -26.9412  -47.2727 H         1 UNK         0.0600 
    209 H209       -5.6154  -26.3257  -47.9383 H         1 UNK         0.0600 
    210 H210       -5.6835  -23.6817  -48.3466 H         1 UNK         0.3000 
    211 H211       -8.2858  -23.2948  -49.5395 H         1 UNK         0.0600 
    212 H212       -6.9298  -22.3509  -51.3814 H         1 UNK         0.0600 
    213 H213       -6.2127  -23.8492  -50.8172 H         1 UNK         0.0600 
    214 H214       -5.5110  -22.3039  -50.3432 H         1 UNK         0.0600 
    215 H215       -6.6545  -21.4385  -47.1903 H         1 UNK         0.3000 
    216 H216       -6.8811  -19.4391  -46.2990 H         1 UNK         0.0600 
    217 H217       -9.0478  -18.2335  -46.4450 H         1 UNK         0.0600 
    218 H218       -9.2902  -19.9470  -46.1660 H         1 UNK         0.0600 
    219 H219       -9.5728  -19.2757  -47.7652 H         1 UNK         0.0600 
    220 H220       -8.6115  -17.6797  -48.6549 H         1 UNK         0.3000 
    221 H221       -6.2862  -16.0704  -49.3153 H         1 UNK         0.0600 
    222 H222       -9.1943  -15.9346  -50.2739 H         1 UNK         0.0600 
    223 H223       -8.5139  -15.0543  -48.9043 H         1 UNK         0.0600 
    224 H224       -7.9706  -14.6978  -50.5355 H         1 UNK         0.0600 
    225 H225       -7.7388  -18.8632  -50.7767 H         1 UNK         0.3000 
    226 H226       -6.8093  -18.2443  -53.5126 H         1 UNK         0.0600 
    227 H227       -9.0260  -19.3351  -53.1816 H         1 UNK         0.0600 
    228 H228       -7.9365  -20.3936  -54.0580 H         1 UNK         0.0600 
    229 H229       -8.2600  -20.6867  -52.3563 H         1 UNK         0.0600 
    230 H230       -5.6662  -20.0656  -54.6309 H         1 UNK         0.3000 
    231 H231       -3.9163  -21.3170  -55.0635 H         1 UNK         0.0600 
    232 H232       -5.1608  -22.9324  -53.5588 H         1 UNK         0.0600 
    233 H233       -4.1098  -22.4396  -52.2298 H         1 UNK         0.0600 
    234 H234       -3.4318  -23.2278  -53.6438 H         1 UNK         0.0600 
    235 H235       -3.3279  -18.6635  -54.1144 H         1 UNK         0.3000 
    236 H236       -0.9456  -18.5513  -52.5575 H         1 UNK         0.0600 
    237 H237       -2.3235  -16.5570  -52.9822 H         1 UNK         0.0600 
    238 H238       -0.7133  -16.2884  -53.6329 H         1 UNK         0.0600 
    239 H239       -2.0405  -16.6734  -54.7187 H         1 UNK         0.0600 
    240 H240        0.8072  -19.7114  -53.0416 H         1 UNK         0.3000 
    241 H241        2.5045  -20.6342  -54.0022 H         1 UNK         0.0600 
    242 H242       -0.0589  -22.9459  -55.6411 H         1 UNK         0.3800 
    243 H243       -0.3305  -21.7332  -54.4113 H         1 UNK         0.3800 
    244 H244        2.3998  -19.3253  -56.7192 H         1 UNK         0.0800 
    245 H245        2.5792  -18.2480  -55.3777 H         1 UNK         0.0800 
    246 H246        6.1410  -18.6282  -54.1519 H         1 UNK         0.0800 
    247 H247        4.9814  -17.4618  -54.7355 H         1 UNK         0.0800 
@<TRIPOS>BOND
     1    1    2 1    
     2    1  127 1    
     3    1  128 1    
     4    1  129 1    
     5    2    3 2    
     6    2    4 am   BACKBONE|DICT|INTERRES
     7    4    5 1    
     8    4  130 1    
     9    5    6 1    
    10    5   65 1    
    11    5  131 1    
    12    6    7 1    
    13    6  132 1    
    14    6  133 1    
    15    7    8 1    
    16    8    9 1    
    17    8  134 1    
    18    8  135 1    
    19    9   10 ar   
    20    9   14 ar   
    21   10   11 ar   
    22   10  136 1    
    23   11   12 ar   
    24   11  126 1    
    25   12   13 ar   
    26   12  137 1    
    27   13   14 ar   
    28   13   15 1    
    29   14  138 1    
    30   15   16 1    
    31   15  139 1    
    32   15  140 1    
    33   16   17 1    
    34   17   18 1    
    35   17  141 1    
    36   17  142 1    
    37   18   19 1    
    38   18   67 1    
    39   18  143 1    
    40   19   20 am   BACKBONE|DICT|INTERRES
    41   19  144 1    
    42   20   21 2    
    43   20   22 1    
    44   22   23 1    
    45   22   24 1    
    46   22  145 1    
    47   23  146 1    
    48   23  147 1    
    49   23  148 1    
    50   24   25 am   BACKBONE|DICT|INTERRES
    51   24  149 1    
    52   25   26 2    
    53   25   27 1    
    54   27   28 1    
    55   27   29 1    
    56   27  150 1    
    57   28  151 1    
    58   28  152 1    
    59   28  153 1    
    60   29   30 am   BACKBONE|DICT|INTERRES
    61   29  154 1    
    62   30   31 2    
    63   30   32 1    
    64   32   33 1    
    65   32   34 1    
    66   32  155 1    
    67   33  156 1    
    68   33  157 1    
    69   33  158 1    
    70   34   35 am   BACKBONE|DICT|INTERRES
    71   34  159 1    
    72   35   36 2    
    73   35   37 1    
    74   37   38 1    
    75   37   39 1    
    76   37  160 1    
    77   38  161 1    
    78   38  162 1    
    79   38  163 1    
    80   39   40 am   BACKBONE|DICT|INTERRES
    81   39  164 1    
    82   40   41 2    
    83   40   42 1    
    84   42   43 1    
    85   42   44 1    
    86   42  165 1    
    87   43  166 1    
    88   43  167 1    
    89   43  168 1    
    90   44   45 am   BACKBONE|DICT|INTERRES
    91   44  169 1    
    92   45   46 2    
    93   45   47 1    
    94   47   48 1    
    95   47   49 1    
    96   47  170 1    
    97   48  171 1    
    98   48  172 1    
    99   48  173 1    
   100   49   50 am   BACKBONE|DICT|INTERRES
   101   49  174 1    
   102   50   51 2    
   103   50   52 1    
   104   52   53 1    
   105   52   54 1    
   106   52  175 1    
   107   53  176 1    
   108   53  177 1    
   109   53  178 1    
   110   54   55 am   BACKBONE|DICT|INTERRES
   111   54  179 1    
   112   55   56 2    
   113   55   57 1    
   114   57   58 1    
   115   57   59 1    
   116   57  180 1    
   117   58  181 1    
   118   58  182 1    
   119   58  183 1    
   120   59   60 am   BACKBONE|DICT|INTERRES
   121   59  184 1    
   122   60   61 2    
   123   60   62 1    
   124   62   63 1    
   125   62   64 1    
   126   62  185 1    
   127   63  186 1    
   128   63  187 1    
   129   63  188 1    
   130   64   65 am   BACKBONE|DICT|INTERRES
   131   64  189 1    
   132   65   66 2    
   133   67   68 2    
   134   67   69 am   BACKBONE|DICT|INTERRES
   135   69   70 1    
   136   69  190 1    
   137   70   71 1    
   138   70   72 1    
   139   70  191 1    
   140   71  192 1    
   141   71  193 1    
   142   71  194 1    
   143   72   73 2    
   144   72   74 am   BACKBONE|DICT|INTERRES
   145   74   75 1    
   146   74  195 1    
   147   75   76 1    
   148   75   77 1    
   149   75  196 1    
   150   76  197 1    
   151   76  198 1    
   152   76  199 1    
   153   77   78 2    
   154   77   79 am   BACKBONE|DICT|INTERRES
   155   79   80 1    
   156   79  200 1    
   157   80   81 1    
   158   80   82 1    
   159   80  201 1    
   160   81  202 1    
   161   81  203 1    
   162   81  204 1    
   163   82   83 2    
   164   82   84 am   BACKBONE|DICT|INTERRES
   165   84   85 1    
   166   84  205 1    
   167   85   86 1    
   168   85   87 1    
   169   85  206 1    
   170   86  207 1    
   171   86  208 1    
   172   86  209 1    
   173   87   88 2    
   174   87   89 am   BACKBONE|DICT|INTERRES
   175   89   90 1    
   176   89  210 1    
   177   90   91 1    
   178   90   92 1    
   179   90  211 1    
   180   91  212 1    
   181   91  213 1    
   182   91  214 1    
   183   92   93 2    
   184   92   94 am   BACKBONE|DICT|INTERRES
   185   94   95 1    
   186   94  215 1    
   187   95   96 1    
   188   95   97 1    
   189   95  216 1    
   190   96  217 1    
   191   96  218 1    
   192   96  219 1    
   193   97   98 2    
   194   97   99 am   BACKBONE|DICT|INTERRES
   195   99  100 1    
   196   99  220 1    
   197  100  101 1    
   198  100  102 1    
   199  100  221 1    
   200  101  222 1    
   201  101  223 1    
   202  101  224 1    
   203  102  103 2    
   204  102  104 am   BACKBONE|DICT|INTERRES
   205  104  105 1    
   206  104  225 1    
   207  105  106 1    
   208  105  107 1    
   209  105  226 1    
   210  106  227 1    
   211  106  228 1    
   212  106  229 1    
   213  107  108 2    
   214  107  109 am   BACKBONE|DICT|INTERRES
   215  109  110 1    
   216  109  230 1    
   217  110  111 1    
   218  110  112 1    
   219  110  231 1    
   220  111  232 1    
   221  111  233 1    
   222  111  234 1    
   223  112  113 2    
   224  112  114 am   BACKBONE|DICT|INTERRES
   225  114  115 1    
   226  114  235 1    
   227  115  116 1    
   228  115  117 1    
   229  115  236 1    
   230  116  237 1    
   231  116  238 1    
   232  116  239 1    
   233  117  118 2    
   234  117  119 am   BACKBONE|DICT|INTERRES
   235  119  120 1    
   236  119  240 1    
   237  120  121 1    
   238  120  124 1    
   239  120  241 1    
   240  121  122 am   BACKBONE|DICT|INTERRES
   241  121  123 2    
   242  122  242 1    
   243  122  243 1    
   244  124  125 1    
   245  124  244 1    
   246  124  245 1    
   247  125  126 1    
   248  126  246 1    
   249  126  247 1    
@<TRIPOS>SUBSTRUCTURE
     1 UNK         1 GROUP             0       ****    0 ROOT    
