@<TRIPOS>MOLECULE
3R540
247   249    1
SMALL
USER_CHARGES


@<TRIPOS>ATOM
      1 CA         -0.2033  -17.4160  -51.2304 C.3       0 UNK        -0.1800 
      2 C          -0.3715  -16.7678  -49.8637 C.2       0 UNK         0.5000 
      3 O           0.0223  -17.3490  -48.8559 O.2       0 UNK        -0.5000 
      4 N          -0.9258  -15.5492  -49.8204 N.am      1 UNK        -0.5000 
      5 CA         -1.2044  -14.7975  -48.5854 C.3       1 UNK         0.1400 
      6 C6         -2.0978  -13.5629  -48.8779 C.3       23 UNK        -0.0398 
      7 S7         -2.9552  -12.9177  -47.3960 S.3       23 UNK        -0.2404 
      8 C8         -4.7186  -13.0529  -47.8368 C.3       23 UNK        -0.0205 
      9 C9         -5.2079  -14.4941  -47.8628 C.ar      23 UNK        -0.0193 
     10 C10        -5.5528  -15.0994  -49.0724 C.ar      23 UNK        -0.1150 
     11 C11        -5.9967  -16.4260  -49.1097 C.ar      23 UNK        -0.0193 
     12 C12        -6.1193  -17.1399  -47.9128 C.ar      23 UNK        -0.1150 
     13 C13        -5.8196  -16.5307  -46.6897 C.ar      23 UNK        -0.0193 
     14 C14        -5.3573  -15.2109  -46.6737 C.ar      23 UNK        -0.1150 
     15 C15        -6.0499  -17.2665  -45.3781 C.3       23 UNK        -0.0205 
     16 S16        -4.5008  -17.5280  -44.4577 S.3       23 UNK        -0.2404 
     17 C17        -4.2455  -19.3306  -44.5680 C.3       23 UNK        -0.0398 
     18 CA         -3.1150  -19.7289  -45.5458 C.3       11 UNK         0.1400 
     19 N          -1.8013  -19.2102  -45.1461 N.am      11 UNK        -0.5000 
     20 C          -0.6759  -19.3441  -45.8641 C.2       10 UNK         0.5000 
     21 O          -0.6277  -19.8993  -46.9600 O.2       10 UNK        -0.5000 
     22 CA          0.6295  -18.8566  -45.2111 C.3       10 UNK         0.1400 
     23 CB          0.7475  -17.3266  -45.2569 C.3       10 UNK        -0.1800 
     24 N           0.7588  -19.3278  -43.8335 N.am      10 UNK        -0.5000 
     25 C           0.8796  -20.6163  -43.4836 C.2       9 UNK         0.5000 
     26 O           0.9326  -21.5422  -44.2912 O.2       9 UNK        -0.5000 
     27 CA          0.9045  -20.9315  -41.9788 C.3       9 UNK         0.1400 
     28 CB          2.3262  -20.8044  -41.4128 C.3       9 UNK        -0.1800 
     29 N          -0.0084  -20.0758  -41.2231 N.am      9 UNK        -0.5000 
     30 C          -1.3449  -20.1426  -41.3050 C.2       8 UNK         0.5000 
     31 O          -1.9512  -20.9626  -41.9956 O.2       8 UNK        -0.5000 
     32 CA         -2.1315  -19.0762  -40.5205 C.3       8 UNK         0.1400 
     33 CB         -2.2809  -19.4842  -39.0474 C.3       8 UNK        -0.1800 
     34 N          -1.5200  -17.7470  -40.5993 N.am      8 UNK        -0.5000 
     35 C          -1.3695  -17.0565  -41.7386 C.2       7 UNK         0.5000 
     36 O          -1.7206  -17.4754  -42.8383 O.2       7 UNK        -0.5000 
     37 CA         -0.6535  -15.6988  -41.6426 C.3       7 UNK         0.1400 
     38 CB         -1.6274  -14.6014  -41.1882 C.3       7 UNK        -0.1800 
     39 N           0.5132  -15.7193  -40.7568 N.am      7 UNK        -0.5000 
     40 C           1.5925  -16.4889  -40.9454 C.2       6 UNK         0.5000 
     41 O           1.6936  -17.3232  -41.8481 O.2       6 UNK        -0.5000 
     42 CA          2.7445  -16.3208  -39.9458 C.3       6 UNK         0.1400 
     43 CB          2.8265  -17.5310  -39.0025 C.3       6 UNK        -0.1800 
     44 N           3.9965  -16.1979  -40.6855 N.am      6 UNK        -0.5000 
     45 C           4.5193  -15.0380  -41.1037 C.2       5 UNK         0.5000 
     46 O           4.0686  -13.9327  -40.7994 O.2       5 UNK        -0.5000 
     47 CA          5.7472  -15.1274  -42.0304 C.3       5 UNK         0.1400 
     48 CB          7.0444  -15.1513  -41.2072 C.3       5 UNK        -0.1800 
     49 N           5.7143  -16.2968  -42.9133 N.am      5 UNK        -0.5000 
     50 C           4.8688  -16.4413  -43.9418 C.2       4 UNK         0.5000 
     51 O           4.0389  -15.5906  -44.2763 O.2       4 UNK        -0.5000 
     52 CA          4.9687  -17.7610  -44.7205 C.3       4 UNK         0.1400 
     53 CB          4.3807  -18.9294  -43.9131 C.3       4 UNK        -0.1800 
     54 N           4.2388  -17.6138  -45.9733 N.am      4 UNK        -0.5000 
     55 C           4.5463  -18.2031  -47.1325 C.2       3 UNK         0.5000 
     56 O           5.4478  -19.0338  -47.2531 O.2       3 UNK        -0.5000 
     57 CA          3.7242  -17.7986  -48.3755 C.3       3 UNK         0.1400 
     58 CB          2.7822  -18.9409  -48.7874 C.3       3 UNK        -0.1800 
     59 N           2.9554  -16.5531  -48.2271 N.am      3 UNK        -0.5000 
     60 C           3.5041  -15.3316  -48.1116 C.2       2 UNK         0.5000 
     61 O           4.7215  -15.1437  -48.1300 O.2       2 UNK        -0.5000 
     62 CA          2.5571  -14.1229  -47.9513 C.3       2 UNK         0.1400 
     63 CB          3.1153  -12.8564  -48.6257 C.3       2 UNK        -0.1800 
     64 N           1.2288  -14.3943  -48.5004 N.am      2 UNK        -0.5000 
     65 C           0.0832  -14.4197  -47.8050 C.2       1 UNK         0.5000 
     66 O           0.0208  -14.1916  -46.5969 O.2       1 UNK        -0.5000 
     67 C          -3.0972  -21.2607  -45.7275 C.2       11 UNK         0.5000 
     68 O          -3.6395  -21.7554  -46.7155 O.2       11 UNK        -0.5000 
     69 N          -2.4547  -21.9813  -44.7949 N.am      12 UNK        -0.5000 
     70 CA         -2.2744  -23.4325  -44.8589 C.3       12 UNK         0.1400 
     71 CB         -1.6722  -23.9451  -43.5426 C.3       12 UNK        -0.1800 
     72 C          -1.4232  -23.8714  -46.0638 C.2       12 UNK         0.5000 
     73 O          -1.8045  -24.8127  -46.7587 O.2       12 UNK        -0.5000 
     74 N          -0.3159  -23.1599  -46.3178 N.am      13 UNK        -0.5000 
     75 CA          0.5536  -23.3633  -47.4765 C.3       13 UNK         0.1400 
     76 CB          1.8136  -22.4940  -47.3450 C.3       13 UNK        -0.1800 
     77 C          -0.1674  -23.0933  -48.8084 C.2       13 UNK         0.5000 
     78 O          -0.0510  -23.9005  -49.7292 O.2       13 UNK        -0.5000 
     79 N          -0.9346  -21.9964  -48.8733 N.am      14 UNK        -0.5000 
     80 CA         -1.7593  -21.6229  -50.0229 C.3       14 UNK         0.1400 
     81 CB         -2.3634  -20.2324  -49.7897 C.3       14 UNK        -0.1800 
     82 C          -2.8665  -22.6482  -50.3241 C.2       14 UNK         0.5000 
     83 O          -3.1029  -22.9576  -51.4928 O.2       14 UNK        -0.5000 
     84 N          -3.5017  -23.1778  -49.2695 N.am      15 UNK        -0.5000 
     85 CA         -4.5008  -24.2416  -49.3516 C.3       15 UNK         0.1400 
     86 CB         -5.2079  -24.3965  -47.9969 C.3       15 UNK        -0.1800 
     87 C          -3.8965  -25.5793  -49.8137 C.2       15 UNK         0.5000 
     88 O          -4.4823  -26.2374  -50.6731 O.2       15 UNK        -0.5000 
     89 N          -2.7259  -25.9403  -49.2676 N.am      16 UNK        -0.5000 
     90 CA         -1.9717  -27.1439  -49.6282 C.3       16 UNK         0.1400 
     91 CB         -0.8140  -27.3431  -48.6383 C.3       16 UNK        -0.1800 
     92 C          -1.4507  -27.1134  -51.0769 C.2       16 UNK         0.5000 
     93 O          -1.5122  -28.1313  -51.7674 O.2       16 UNK        -0.5000 
     94 N          -0.9784  -25.9404  -51.5200 N.am      17 UNK        -0.5000 
     95 CA         -0.5538  -25.6751  -52.8960 C.3       17 UNK         0.1400 
     96 CB          0.2675  -24.3762  -52.9200 C.3       17 UNK        -0.1800 
     97 C          -1.7286  -25.5729  -53.8889 C.2       17 UNK         0.5000 
     98 O          -1.5031  -25.6906  -55.0939 O.2       17 UNK        -0.5000 
     99 N          -2.9426  -25.3381  -53.3675 N.am      18 UNK        -0.5000 
    100 CA        -4.1928  -25.0683  -54.0812 C.3       18 UNK         0.1400 
    101 CB        -4.6631  -26.3115  -54.8642 C.3       18 UNK        -0.1800 
    102 C         -4.0785  -23.7987  -54.9479 C.2       18 UNK         0.5000 
    103 O         -4.3402  -23.8388  -56.1516 O.2       18 UNK        -0.5000 
    104 N         -3.6438  -22.7015  -54.3090 N.am      19 UNK        -0.5000 
    105 CA        -3.3470  -21.4115  -54.9372 C.3       19 UNK         0.1400 
    106 CB        -2.7766  -20.4524  -53.8793 C.3       19 UNK        -0.1800 
    107 C         -4.5533  -20.7757  -55.6539 C.2       19 UNK         0.5000 
    108 O         -4.3844  -20.2239  -56.7413 O.2       19 UNK        -0.5000 
    109 N         -5.7391  -20.8797  -55.0310 N.am      20 UNK        -0.5000 
    110 CA        -7.0602  -20.4909  -55.5507 C.3       20 UNK         0.1400 
    111 CB        -7.4805  -21.4514  -56.6826 C.3       20 UNK        -0.1800 
    112 C         -7.1881  -19.0047  -55.9629 C.2       20 UNK         0.5000 
    113 O         -8.0226  -18.6688  -56.8054 O.2       20 UNK        -0.5000 
    114 N         -6.3674  -18.1426  -55.3539 N.am      21 UNK        -0.5000 
    115 CA        -6.2696  -16.7051  -55.6078 C.3       21 UNK         0.1400 
    116 CB        -5.7209  -16.4175  -57.0198 C.3       21 UNK        -0.1800 
    117 C         -5.3705  -16.0636  -54.5440 C.2       21 UNK         0.5000 
    118 O         -5.7039  -14.9951  -54.0321 O.2       21 UNK        -0.5000 
    119 N         -4.2704  -16.7563  -54.2092 N.am      22 UNK        -0.5000 
    120 CA        -3.3244  -16.4242  -53.1275 C.3       22 UNK         0.1400 
    121 C         -2.4326  -15.1710  -53.3889 C.2       22 UNK         0.5000 
    122 N         -2.3174  -14.6857  -54.6181 N.am      22 UNK        -0.7600 
    123 O         -1.8133  -14.6451  -52.4661 O.2       22 UNK        -0.5000 
    124 C124       -3.9955  -16.3602  -51.7296 C.3       23 UNK        -0.0398 
    125 S125       -4.9603  -17.8403  -51.2757 S.3       23 UNK        -0.2404 
    126 C126       -6.3833  -17.0727  -50.4356 C.3       23 UNK        -0.0205 
    127 H127        0.6828  -18.0488  -51.2482 H         1 UNK         0.0600 
    128 H128       -0.0919  -16.6692  -52.0155 H         1 UNK         0.0600 
    129 H129       -1.0667  -18.0390  -51.4598 H         1 UNK         0.0600 
    130 H130       -1.2032  -15.1027  -50.6916 H         1 UNK         0.3000 
    131 H131       -1.7729  -15.4723  -47.9409 H         1 UNK         0.0600 
    132 H132       -1.5132  -12.7582  -49.3271 H         1 UNK         0.0800 
    133 H133       -2.8537  -13.8242  -49.6197 H         1 UNK         0.0800 
    134 H134       -4.8903  -12.5616  -48.7959 H         1 UNK         0.0800 
    135 H135       -5.3040  -12.4963  -47.1038 H         1 UNK         0.0800 
    136 H136       -5.4848  -14.5242  -49.9828 H         1 UNK         0.1150 
    137 H137       -6.4777  -18.1596  -47.9331 H         1 UNK         0.1150 
    138 H138       -5.1201  -14.7375  -45.7310 H         1 UNK         0.1150 
    139 H139       -6.7181  -16.6665  -44.7588 H         1 UNK         0.0800 
    140 H140       -6.5709  -18.2091  -45.5477 H         1 UNK         0.0800 
    141 H141       -5.1841  -19.8117  -44.8471 H         1 UNK         0.0800 
    142 H142       -4.0157  -19.6914  -43.5638 H         1 UNK         0.0800 
    143 H143       -3.3460  -19.2940  -46.5208 H         1 UNK         0.0600 
    144 H144       -1.7639  -18.6996  -44.2663 H         1 UNK         0.3000 
    145 H145        1.4663  -19.2739  -45.7739 H         1 UNK         0.0600 
    146 H146        1.6434  -16.9791  -44.7437 H         1 UNK         0.0600 
    147 H147        0.8031  -16.9785  -46.2871 H         1 UNK         0.0600 
    148 H148       -0.1090  -16.8347  -44.7975 H         1 UNK         0.0600 
    149 H149        0.7663  -18.6202  -43.1064 H         1 UNK         0.3000 
    150 H150        0.5827  -21.9670  -41.8501 H         1 UNK         0.0600 
    151 H151        3.0163  -21.4603  -41.9449 H         1 UNK         0.0600 
    152 H152        2.3587  -21.0830  -40.3595 H         1 UNK         0.0600 
    153 H153        2.7080  -19.7883  -41.5034 H         1 UNK         0.0600 
    154 H154        0.4072  -19.3356  -40.6779 H         1 UNK         0.3000 
    155 H155       -3.1290  -19.0120  -40.9607 H         1 UNK         0.0600 
    156 H156       -1.3158  -19.5331  -38.5416 H         1 UNK         0.0600 
    157 H157       -2.7477  -20.4663  -38.9604 H         1 UNK         0.0600 
    158 H158       -2.9095  -18.7780  -38.5047 H         1 UNK         0.0600 
    159 H159       -1.1915  -17.3385  -39.7369 H         1 UNK         0.3000 
    160 H160       -0.3009  -15.4438  -42.6444 H         1 UNK         0.0600 
    161 H161       -1.1550  -13.6193  -41.2142 H         1 UNK         0.0600 
    162 H162       -1.9878  -14.7751  -40.1736 H         1 UNK         0.0600 
    163 H163       -2.4986  -14.5587  -41.8436 H         1 UNK         0.0600 
    164 H164        0.5054  -15.0646  -39.9880 H         1 UNK         0.3000 
    165 H165        2.5758  -15.4272  -39.3410 H         1 UNK         0.0600 
    166 H166        3.6239  -17.4027  -38.2703 H         1 UNK         0.0600 
    167 H167        1.8954  -17.6599  -38.4494 H         1 UNK         0.0600 
    168 H168        3.0188  -18.4573  -39.5437 H         1 UNK         0.0600 
    169 H169        4.3939  -17.0564  -41.0360 H         1 UNK         0.3000 
    170 H170        5.7571  -14.2300  -42.6529 H         1 UNK         0.0600 
    171 H171        7.1087  -14.2790  -40.5554 H         1 UNK         0.0600 
    172 H172        7.1052  -16.0383  -40.5753 H         1 UNK         0.0600 
    173 H173        7.9222  -15.1376  -41.8535 H         1 UNK         0.0600 
    174 H174        6.3732  -17.0344  -42.7090 H         1 UNK         0.3000 
    175 H175        6.0230  -17.9528  -44.9311 H         1 UNK         0.0600 
    176 H176        4.9702  -19.1276  -43.0177 H         1 UNK         0.0600 
    177 H177        4.3559  -19.8494  -44.4973 H         1 UNK         0.0600 
    178 H178        3.3645  -18.7082  -43.5921 H         1 UNK         0.0600 
    179 H179        3.5383  -16.8841  -45.9600 H         1 UNK         0.3000 
    180 H180        4.4395  -17.6512  -49.1873 H         1 UNK         0.0600 
    181 H181        1.9728  -19.0763  -48.0709 H         1 UNK         0.0600 
    182 H182        3.3156  -19.8893  -48.8629 H         1 UNK         0.0600 
    183 H183        2.3367  -18.7482  -49.7617 H         1 UNK         0.0600 
    184 H184        1.9455  -16.6465  -48.2299 H         1 UNK         0.3000 
    185 H185        2.4945  -13.9303  -46.8785 H         1 UNK         0.0600 
    186 H186        4.0763  -12.5701  -48.1966 H         1 UNK         0.0600 
    187 H187        3.2618  -13.0030  -49.6964 H         1 UNK         0.0600 
    188 H188        2.4404  -12.0107  -48.4926 H         1 UNK         0.0600 
    189 H189        1.1902  -14.6226  -49.4838 H         1 UNK         0.3000 
    190 H190       -2.0636  -21.5095  -43.9864 H         1 UNK         0.3000 
    191 H191       -3.2627  -23.8827  -44.9729 H         1 UNK         0.0600 
    192 H192       -0.6880  -23.5170  -43.3542 H         1 UNK         0.0600 
    193 H193       -1.5598  -25.0297  -43.5620 H         1 UNK         0.0600 
    194 H194       -2.3118  -23.6995  -42.6946 H         1 UNK         0.0600 
    195 H195       -0.0435  -22.4241  -45.6712 H         1 UNK         0.3000 
    196 H196        0.8653  -24.4096  -47.4763 H         1 UNK         0.0600 
    197 H197        2.4754  -22.6308  -48.2010 H         1 UNK         0.0600 
    198 H198        2.3794  -22.7543  -46.4504 H         1 UNK         0.0600 
    199 H199        1.5680  -21.4341  -47.2854 H         1 UNK         0.0600 
    200 H200       -0.9354  -21.3518  -48.0849 H         1 UNK         0.3000 
    201 H201       -1.1050  -21.5694  -50.8953 H         1 UNK         0.0600 
    202 H202       -1.5897  -19.5031  -49.5561 H         1 UNK         0.0600 
    203 H203       -3.0762  -20.2313  -48.9647 H         1 UNK         0.0600 
    204 H204       -2.8865  -19.8836  -50.6793 H         1 UNK         0.0600 
    205 H205       -3.2923  -22.8195  -48.3423 H         1 UNK         0.3000 
    206 H206       -5.2483  -23.9423  -50.0893 H         1 UNK         0.0600 
    207 H207       -5.7065  -23.4717  -47.7061 H         1 UNK         0.0600 
    208 H208       -5.9685  -25.1770  -48.0398 H         1 UNK         0.0600 
    209 H209       -4.5087  -24.6614  -47.2035 H         1 UNK         0.0600 
    210 H210       -2.3327  -25.3655  -48.5269 H         1 UNK         0.3000 
    211 H211       -2.6454  -27.9983  -49.5370 H         1 UNK         0.0600 
    212 H212       -0.1216  -26.5009  -48.6540 H         1 UNK         0.0600 
    213 H213       -0.2448  -28.2422  -48.8772 H         1 UNK         0.0600 
    214 H214       -1.1828  -27.4531  -47.6184 H         1 UNK         0.0600 
    215 H215       -0.8855  -25.1695  -50.8624 H         1 UNK         0.3000 
    216 H216        0.0885  -26.4947  -53.2245 H         1 UNK         0.0600 
    217 H217        0.6305  -24.1589  -53.9253 H         1 UNK         0.0600 
    218 H218        1.1386  -24.4478  -52.2685 H         1 UNK         0.0600 
    219 H219       -0.3264  -23.5215  -52.5928 H         1 UNK         0.0600 
    220 H220       -2.9957  -25.2345  -52.3631 H         1 UNK         0.3000 
    221 H221       -4.9429  -24.8565  -53.3178 H         1 UNK         0.0600 
    222 H222       -5.6445  -26.1420  -55.3086 H         1 UNK         0.0600 
    223 H223       -4.7485  -27.1780  -54.2085 H         1 UNK         0.0600 
    224 H224       -3.9790  -26.5692  -55.6731 H         1 UNK         0.0600 
    225 H225       -3.4397  -22.7785  -53.3143 H         1 UNK         0.3000 
    226 H226       -2.5740  -21.5879  -55.6880 H         1 UNK         0.0600 
    227 H227       -2.4904  -19.5010  -54.3284 H         1 UNK         0.0600 
    228 H228       -3.5017  -20.2429  -53.0919 H         1 UNK         0.0600 
    229 H229       -1.8853  -20.8688  -53.4094 H         1 UNK         0.0600 
    230 H230       -5.7468  -21.3420  -54.1326 H         1 UNK         0.3000 
    231 H231       -7.7612  -20.6300  -54.7266 H         1 UNK         0.0600 
    232 H232       -7.4056  -22.4915  -56.3648 H         1 UNK         0.0600 
    233 H233       -6.8556  -21.3271  -57.5676 H         1 UNK         0.0600 
    234 H234       -8.5146  -21.2798  -56.9836 H         1 UNK         0.0600 
    235 H235       -5.7758  -18.4973  -54.6163 H         1 UNK         0.3000 
    236 H236       -7.2656  -16.2676  -55.5150 H         1 UNK         0.0600 
    237 H237       -6.4116  -16.7504  -57.7940 H         1 UNK         0.0600 
    238 H238       -5.5666  -15.3480  -57.1690 H         1 UNK         0.0600 
    239 H239       -4.7660  -16.9162  -57.1895 H         1 UNK         0.0600 
    240 H240       -4.0411  -17.5779  -54.7474 H         1 UNK         0.3000 
    241 H241       -2.6215  -17.2560  -53.1036 H         1 UNK         0.0600 
    242 H242       -1.7328  -13.8803  -54.7772 H         1 UNK         0.3800 
    243 H243       -2.8148  -15.1039  -55.3874 H         1 UNK         0.3800 
    244 H244       -4.6392  -15.4841  -51.7006 H         1 UNK         0.0800 
    245 H245       -3.2563  -16.2182  -50.9434 H         1 UNK         0.0800 
    246 H246       -7.1414  -17.8386  -50.2661 H         1 UNK         0.0800 
    247 H247       -6.8439  -16.3357  -51.0956 H         1 UNK         0.0800 
@<TRIPOS>BOND
     1    1    2 1    
     2    1  127 1    
     3    1  128 1    
     4    1  129 1    
     5    2    3 2    
     6    2    4 am   BACKBONE|DICT|INTERRES
     7    4    5 1    
     8    4  130 1    
     9    5    6 1    
    10    5   65 1    
    11    5  131 1    
    12    6    7 1    
    13    6  132 1    
    14    6  133 1    
    15    7    8 1    
    16    8    9 1    
    17    8  134 1    
    18    8  135 1    
    19    9   10 ar   
    20    9   14 ar   
    21   10   11 ar   
    22   10  136 1    
    23   11   12 ar   
    24   11  126 1    
    25   12   13 ar   
    26   12  137 1    
    27   13   14 ar   
    28   13   15 1    
    29   14  138 1    
    30   15   16 1    
    31   15  139 1    
    32   15  140 1    
    33   16   17 1    
    34   17   18 1    
    35   17  141 1    
    36   17  142 1    
    37   18   19 1    
    38   18   67 1    
    39   18  143 1    
    40   19   20 am   BACKBONE|DICT|INTERRES
    41   19  144 1    
    42   20   21 2    
    43   20   22 1    
    44   22   23 1    
    45   22   24 1    
    46   22  145 1    
    47   23  146 1    
    48   23  147 1    
    49   23  148 1    
    50   24   25 am   BACKBONE|DICT|INTERRES
    51   24  149 1    
    52   25   26 2    
    53   25   27 1    
    54   27   28 1    
    55   27   29 1    
    56   27  150 1    
    57   28  151 1    
    58   28  152 1    
    59   28  153 1    
    60   29   30 am   BACKBONE|DICT|INTERRES
    61   29  154 1    
    62   30   31 2    
    63   30   32 1    
    64   32   33 1    
    65   32   34 1    
    66   32  155 1    
    67   33  156 1    
    68   33  157 1    
    69   33  158 1    
    70   34   35 am   BACKBONE|DICT|INTERRES
    71   34  159 1    
    72   35   36 2    
    73   35   37 1    
    74   37   38 1    
    75   37   39 1    
    76   37  160 1    
    77   38  161 1    
    78   38  162 1    
    79   38  163 1    
    80   39   40 am   BACKBONE|DICT|INTERRES
    81   39  164 1    
    82   40   41 2    
    83   40   42 1    
    84   42   43 1    
    85   42   44 1    
    86   42  165 1    
    87   43  166 1    
    88   43  167 1    
    89   43  168 1    
    90   44   45 am   BACKBONE|DICT|INTERRES
    91   44  169 1    
    92   45   46 2    
    93   45   47 1    
    94   47   48 1    
    95   47   49 1    
    96   47  170 1    
    97   48  171 1    
    98   48  172 1    
    99   48  173 1    
   100   49   50 am   BACKBONE|DICT|INTERRES
   101   49  174 1    
   102   50   51 2    
   103   50   52 1    
   104   52   53 1    
   105   52   54 1    
   106   52  175 1    
   107   53  176 1    
   108   53  177 1    
   109   53  178 1    
   110   54   55 am   BACKBONE|DICT|INTERRES
   111   54  179 1    
   112   55   56 2    
   113   55   57 1    
   114   57   58 1    
   115   57   59 1    
   116   57  180 1    
   117   58  181 1    
   118   58  182 1    
   119   58  183 1    
   120   59   60 am   BACKBONE|DICT|INTERRES
   121   59  184 1    
   122   60   61 2    
   123   60   62 1    
   124   62   63 1    
   125   62   64 1    
   126   62  185 1    
   127   63  186 1    
   128   63  187 1    
   129   63  188 1    
   130   64   65 am   BACKBONE|DICT|INTERRES
   131   64  189 1    
   132   65   66 2    
   133   67   68 2    
   134   67   69 am   BACKBONE|DICT|INTERRES
   135   69   70 1    
   136   69  190 1    
   137   70   71 1    
   138   70   72 1    
   139   70  191 1    
   140   71  192 1    
   141   71  193 1    
   142   71  194 1    
   143   72   73 2    
   144   72   74 am   BACKBONE|DICT|INTERRES
   145   74   75 1    
   146   74  195 1    
   147   75   76 1    
   148   75   77 1    
   149   75  196 1    
   150   76  197 1    
   151   76  198 1    
   152   76  199 1    
   153   77   78 2    
   154   77   79 am   BACKBONE|DICT|INTERRES
   155   79   80 1    
   156   79  200 1    
   157   80   81 1    
   158   80   82 1    
   159   80  201 1    
   160   81  202 1    
   161   81  203 1    
   162   81  204 1    
   163   82   83 2    
   164   82   84 am   BACKBONE|DICT|INTERRES
   165   84   85 1    
   166   84  205 1    
   167   85   86 1    
   168   85   87 1    
   169   85  206 1    
   170   86  207 1    
   171   86  208 1    
   172   86  209 1    
   173   87   88 2    
   174   87   89 am   BACKBONE|DICT|INTERRES
   175   89   90 1    
   176   89  210 1    
   177   90   91 1    
   178   90   92 1    
   179   90  211 1    
   180   91  212 1    
   181   91  213 1    
   182   91  214 1    
   183   92   93 2    
   184   92   94 am   BACKBONE|DICT|INTERRES
   185   94   95 1    
   186   94  215 1    
   187   95   96 1    
   188   95   97 1    
   189   95  216 1    
   190   96  217 1    
   191   96  218 1    
   192   96  219 1    
   193   97   98 2    
   194   97   99 am   BACKBONE|DICT|INTERRES
   195   99  100 1    
   196   99  220 1    
   197  100  101 1    
   198  100  102 1    
   199  100  221 1    
   200  101  222 1    
   201  101  223 1    
   202  101  224 1    
   203  102  103 2    
   204  102  104 am   BACKBONE|DICT|INTERRES
   205  104  105 1    
   206  104  225 1    
   207  105  106 1    
   208  105  107 1    
   209  105  226 1    
   210  106  227 1    
   211  106  228 1    
   212  106  229 1    
   213  107  108 2    
   214  107  109 am   BACKBONE|DICT|INTERRES
   215  109  110 1    
   216  109  230 1    
   217  110  111 1    
   218  110  112 1    
   219  110  231 1    
   220  111  232 1    
   221  111  233 1    
   222  111  234 1    
   223  112  113 2    
   224  112  114 am   BACKBONE|DICT|INTERRES
   225  114  115 1    
   226  114  235 1    
   227  115  116 1    
   228  115  117 1    
   229  115  236 1    
   230  116  237 1    
   231  116  238 1    
   232  116  239 1    
   233  117  118 2    
   234  117  119 am   BACKBONE|DICT|INTERRES
   235  119  120 1    
   236  119  240 1    
   237  120  121 1    
   238  120  124 1    
   239  120  241 1    
   240  121  122 am   BACKBONE|DICT|INTERRES
   241  121  123 2    
   242  122  242 1    
   243  122  243 1    
   244  124  125 1    
   245  124  244 1    
   246  124  245 1    
   247  125  126 1    
   248  126  246 1    
   249  126  247 1    
@<TRIPOS>SUBSTRUCTURE
     1 UNK         1 GROUP             0       ****    0 ROOT    
