@<TRIPOS>MOLECULE
3R540
247   249    1
SMALL
USER_CHARGES


@<TRIPOS>ATOM
      1 CA         -3.1345  -14.8414  -49.5647 C.3       0 UNK        -0.1800 
      2 C          -1.8891  -14.8356  -48.6911 C.2       0 UNK         0.5000 
      3 O          -1.7859  -14.0159  -47.7786 O.2       0 UNK        -0.5000 
      4 N          -0.9512  -15.7577  -48.9477 N.am      1 UNK        -0.5000 
      5 CA          0.3290  -15.9056  -48.2375 C.3       1 UNK         0.1400 
      6 C6          1.2130  -17.0194  -48.8576 C.3       23 UNK        -0.0398 
      7 S7          2.9881  -16.6000  -48.8018 S.3       23 UNK        -0.2404 
      8 C8          3.7528  -18.2045  -48.3782 C.3       23 UNK        -0.0205 
      9 C9          3.5903  -19.3052  -49.4285 C.ar      23 UNK        -0.0193 
     10 C10         3.4743  -19.0225  -50.7955 C.ar      23 UNK        -0.1150 
     11 C11         3.3069  -20.0516  -51.7275 C.ar      23 UNK        -0.0193 
     12 C12         3.2965  -21.3783  -51.2926 C.ar      23 UNK        -0.1150 
     13 C13         3.4298  -21.6794  -49.9361 C.ar      23 UNK        -0.0193 
     14 C14         3.5791  -20.6402  -49.0119 C.ar      23 UNK        -0.1150 
     15 C15         3.3939  -23.1283  -49.4734 C.3       23 UNK        -0.0205 
     16 S16         1.6894  -23.7653  -49.4042 S.3       23 UNK        -0.2404 
     17 C17         0.9708  -22.6892  -48.1182 C.3       23 UNK        -0.0398 
     18 CA         -0.0495  -23.4143  -47.2138 C.3       11 UNK         0.1400 
     19 N          -0.3165  -22.6182  -46.0205 N.am      11 UNK        -0.5000 
     20 C          -0.9742  -23.0194  -44.9296 C.2       10 UNK         0.5000 
     21 O          -1.3612  -24.1764  -44.7556 O.2       10 UNK        -0.5000 
     22 CA         -1.2146  -21.9366  -43.8547 C.3       10 UNK         0.1400 
     23 CB         -1.9248  -22.4839  -42.6039 C.3       10 UNK        -0.1800 
     24 N           0.0197  -21.2658  -43.4365 N.am      10 UNK        -0.5000 
     25 C           0.6929  -20.3399  -44.1335 C.2       9 UNK         0.5000 
     26 O           0.3796  -19.9903  -45.2738 O.2       9 UNK        -0.5000 
     27 CA          1.9218  -19.7153  -43.4355 C.3       9 UNK         0.1400 
     28 CB          2.4251  -18.4367  -44.1331 C.3       9 UNK        -0.1800 
     29 N           1.7590  -19.4540  -41.9981 N.am      9 UNK        -0.5000 
     30 C           0.7402  -18.8335  -41.3774 C.2       8 UNK         0.5000 
     31 O          -0.3243  -18.5244  -41.9101 O.2       8 UNK        -0.5000 
     32 CA          0.9771  -18.4635  -39.8999 C.3       8 UNK         0.1400 
     33 CB          0.7253  -19.6742  -38.9875 C.3       8 UNK        -0.1800 
     34 N           2.3230  -17.9324  -39.6527 N.am      8 UNK        -0.5000 
     35 C           2.8100  -16.8178  -40.2174 C.2       7 UNK         0.5000 
     36 O           2.1596  -16.1037  -40.9829 O.2       7 UNK        -0.5000 
     37 CA          4.2778  -16.4709  -39.8995 C.3       7 UNK         0.1400 
     38 CB          5.2276  -17.4636  -40.5914 C.3       7 UNK        -0.1800 
     39 N           4.6110  -15.1234  -40.3587 N.am      7 UNK        -0.5000 
     40 C           4.2745  -13.9852  -39.7369 C.2       6 UNK         0.5000 
     41 O           3.7799  -13.9389  -38.6096 O.2       6 UNK        -0.5000 
     42 CA          4.5244  -12.6787  -40.5182 C.3       6 UNK         0.1400 
     43 CB          5.9073  -12.1017  -40.1784 C.3       6 UNK        -0.1800 
     44 N           4.4275  -12.8758  -41.9683 N.am      6 UNK        -0.5000 
     45 C           3.2719  -13.0152  -42.6327 C.2       5 UNK         0.5000 
     46 O           2.1622  -12.8680  -42.1153 O.2       5 UNK        -0.5000 
     47 CA          3.3953  -13.4337  -44.1106 C.3       5 UNK         0.1400 
     48 CB          3.6062  -14.9522  -44.2128 C.3       5 UNK        -0.1800 
     49 N           2.2206  -13.0631  -44.9009 N.am      5 UNK        -0.5000 
     50 C           1.9295  -11.8090  -45.2717 C.2       4 UNK         0.5000 
     51 O           2.6393  -10.8378  -45.0039 O.2       4 UNK        -0.5000 
     52 CA          0.6493  -11.5939  -46.1004 C.3       4 UNK         0.1400 
     53 CB          0.9394  -11.7897  -47.5960 C.3       4 UNK        -0.1800 
     54 N          -0.4625  -12.4598  -45.7076 N.am      4 UNK        -0.5000 
     55 C          -1.1724  -12.3188  -44.5790 C.2       3 UNK         0.5000 
     56 O          -0.9359  -11.4633  -43.7254 O.2       3 UNK        -0.5000 
     57 CA         -2.3639  -13.2713  -44.3783 C.3       3 UNK         0.1400 
     58 CB         -3.6202  -12.7130  -45.0658 C.3       3 UNK        -0.1800 
     59 N          -2.0801  -14.6036  -44.9096 N.am      3 UNK        -0.5000 
     60 C          -1.6807  -15.6456  -44.1677 C.2       2 UNK         0.5000 
     61 O          -1.5909  -15.6072  -42.9409 O.2       2 UNK        -0.5000 
     62 CA         -1.3272  -16.9526  -44.9105 C.3       2 UNK         0.1400 
     63 CB         -2.5104  -17.9333  -44.8781 C.3       2 UNK        -0.1800 
     64 N          -0.9213  -16.7574  -46.3034 N.am      2 UNK        -0.5000 
     65 C           0.1660  -16.0871  -46.7114 C.2       1 UNK         0.5000 
     66 O           0.9724  -15.5608  -45.9462 O.2       1 UNK        -0.5000 
     67 C          -1.3648  -23.6780  -47.9671 C.2       11 UNK         0.5000 
     68 O          -2.1617  -22.7521  -48.1318 O.2       11 UNK        -0.5000 
     69 N          -1.5558  -24.9075  -48.4607 N.am      12 UNK        -0.5000 
     70 CA         -2.7623  -25.3268  -49.1801 C.3       12 UNK         0.1400 
     71 CB         -2.6979  -26.8375  -49.4465 C.3       12 UNK        -0.1800 
     72 C          -3.0223  -24.5587  -50.4908 C.2       12 UNK         0.5000 
     73 O          -4.1754  -24.4818  -50.9159 O.2       12 UNK        -0.5000 
     74 N          -1.9563  -24.0008  -51.0820 N.am      13 UNK        -0.5000 
     75 CA         -1.9840  -23.1515  -52.2734 C.3       13 UNK         0.1400 
     76 CB         -0.6333  -23.2804  -52.9949 C.3       13 UNK        -0.1800 
     77 C          -2.2881  -21.6689  -51.9714 C.2       13 UNK         0.5000 
     78 O          -2.4538  -20.8931  -52.9158 O.2       13 UNK        -0.5000 
     79 N          -2.3456  -21.2958  -50.6860 N.am      14 UNK        -0.5000 
     80 CA         -2.6987  -19.9585  -50.2117 C.3       14 UNK         0.1400 
     81 CB         -1.5951  -19.4576  -49.2629 C.3       14 UNK        -0.1800 
     82 C          -4.0493  -19.9693  -49.4761 C.2       14 UNK         0.5000 
     83 O          -4.8416  -19.0427  -49.6414 O.2       14 UNK        -0.5000 
     84 N          -4.2758  -21.0066  -48.6594 N.am      15 UNK        -0.5000 
     85 CA         -5.3787  -21.1231  -47.7050 C.3       15 UNK         0.1400 
     86 CB         -4.9519  -22.1114  -46.6046 C.3       15 UNK        -0.1800 
     87 C          -6.7377  -21.5319  -48.3104 C.2       15 UNK         0.5000 
     88 O          -7.6906  -21.6960  -47.5478 O.2       15 UNK        -0.5000 
     89 N          -6.8155  -21.7135  -49.6379 N.am      16 UNK        -0.5000 
     90 CA         -7.9976  -22.1398  -50.4030 C.3       16 UNK         0.1400 
     91 CB         -9.2031  -21.2010  -50.1790 C.3       16 UNK        -0.1800 
     92 C          -8.3531  -23.6294  -50.2142 C.2       16 UNK         0.5000 
     93 O          -9.4538  -24.0395  -50.5863 O.2       16 UNK        -0.5000 
     94 N          -7.4226  -24.4209  -49.6608 N.am      17 UNK        -0.5000 
     95 CA         -7.5834  -25.8612  -49.4585 C.3       17 UNK         0.1400 
     96 CB         -6.6233  -26.3426  -48.3611 C.3       17 UNK        -0.1800 
     97 C          -7.3666  -26.6396  -50.7671 C.2       17 UNK         0.5000 
     98 O          -8.1739  -27.5097  -51.0961 O.2       17 UNK        -0.5000 
     99 N          -6.2992  -26.2896  -51.4957 N.am      18 UNK        -0.5000 
    100 CA        -5.9972  -26.7907  -52.8353 C.3       18 UNK         0.1400 
    101 CB        -4.5683  -27.3573  -52.8666 C.3       18 UNK        -0.1800 
    102 C         -6.1572  -25.6685  -53.8723 C.2       18 UNK         0.5000 
    103 O         -6.6738  -25.9238  -54.9608 O.2       18 UNK        -0.5000 
    104 N         -5.7401  -24.4468  -53.5166 N.am      19 UNK        -0.5000 
    105 CA        -5.8520  -23.2419  -54.3316 C.3       19 UNK         0.1400 
    106 CB        -4.7824  -23.2476  -55.4439 C.3       19 UNK        -0.1800 
    107 C         -5.7006  -22.0117  -53.4270 C.2       19 UNK         0.5000 
    108 O         -5.3623  -22.1470  -52.2502 O.2       19 UNK        -0.5000 
    109 N         -5.9344  -20.8288  -53.9971 N.am      20 UNK        -0.5000 
    110 CA        -5.6529  -19.5327  -53.3771 C.3       20 UNK         0.1400 
    111 CB        -6.9751  -18.8617  -52.9655 C.3       20 UNK        -0.1800 
    112 C         -4.8114  -18.6781  -54.3440 C.2       20 UNK         0.5000 
    113 O         -4.9772  -17.4593  -54.4068 O.2       20 UNK        -0.5000 
    114 N         -3.9436  -19.3504  -55.1131 N.am      21 UNK        -0.5000 
    115 CA        -3.0530  -18.7546  -56.1064 C.3       21 UNK         0.1400 
    116 CB        -2.5411  -19.8605  -57.0422 C.3       21 UNK        -0.1800 
    117 C         -1.8755  -18.0043  -55.4624 C.2       21 UNK         0.5000 
    118 O         -1.4361  -16.9876  -56.0026 O.2       21 UNK        -0.5000 
    119 N         -1.3945  -18.5101  -54.3210 N.am      22 UNK        -0.5000 
    120 CA        -0.3479  -17.8829  -53.5107 C.3       22 UNK         0.1400 
    121 C         -0.9614  -16.7814  -52.6083 C.2       22 UNK         0.5000 
    122 N         -1.1382  -15.5731  -53.1230 N.am      22 UNK        -0.7600 
    123 O         -1.2718  -17.0136  -51.4437 O.2       22 UNK        -0.5000 
    124 C124        0.4424  -18.9298  -52.6921 C.3       23 UNK        -0.0398 
    125 S125        1.4005  -20.0747  -53.7425 S.3       23 UNK        -0.2404 
    126 C126        3.1078  -19.7319  -53.2023 C.3       23 UNK        -0.0205 
    127 H127       -3.2378  -15.7764  -50.1156 H         1 UNK         0.0600 
    128 H128       -3.0940  -14.0208  -50.2805 H         1 UNK         0.0600 
    129 H129       -4.0251  -14.7156  -48.9492 H         1 UNK         0.0600 
    130 H130       -1.0817  -16.3560  -49.7629 H         1 UNK         0.3000 
    131 H131        0.8371  -14.9520  -48.3840 H         1 UNK         0.0600 
    132 H132        1.0326  -17.9880  -48.3869 H         1 UNK         0.0800 
    133 H133        0.9686  -17.1550  -49.9109 H         1 UNK         0.0800 
    134 H134        3.3413  -18.5363  -47.4247 H         1 UNK         0.0800 
    135 H135        4.8190  -18.0444  -48.2142 H         1 UNK         0.0800 
    136 H136        3.4940  -17.9985  -51.1393 H         1 UNK         0.1150 
    137 H137        3.1608  -22.1764  -52.0092 H         1 UNK         0.1150 
    138 H138        3.6819  -20.8713  -47.9610 H         1 UNK         0.1150 
    139 H139        3.9745  -23.7447  -50.1613 H         1 UNK         0.0800 
    140 H140        3.8666  -23.2354  -48.4958 H         1 UNK         0.0800 
    141 H141        0.5347  -21.8071  -48.5919 H         1 UNK         0.0800 
    142 H142        1.7856  -22.3198  -47.4949 H         1 UNK         0.0800 
    143 H143        0.3755  -24.3661  -46.8879 H         1 UNK         0.0600 
    144 H144       -0.0523  -21.6372  -46.0578 H         1 UNK         0.3000 
    145 H145       -1.8730  -21.1899  -44.3034 H         1 UNK         0.0600 
    146 H146       -2.1353  -21.6863  -41.8909 H         1 UNK         0.0600 
    147 H147       -2.8792  -22.9433  -42.8644 H         1 UNK         0.0600 
    148 H148       -1.3225  -23.2383  -42.0964 H         1 UNK         0.0600 
    149 H149        0.3623  -21.5020  -42.5170 H         1 UNK         0.3000 
    150 H150        2.7124  -20.4618  -43.5222 H         1 UNK         0.0600 
    151 H151        2.5874  -18.5970  -45.1984 H         1 UNK         0.0600 
    152 H152        3.3735  -18.1068  -43.7094 H         1 UNK         0.0600 
    153 H153        1.7165  -17.6168  -44.0280 H         1 UNK         0.0600 
    154 H154        2.5642  -19.6782  -41.4316 H         1 UNK         0.3000 
    155 H155        0.2591  -17.6839  -39.6363 H         1 UNK         0.0600 
    156 H156        1.4388  -20.4777  -39.1740 H         1 UNK         0.0600 
    157 H157       -0.2749  -20.0799  -39.1458 H         1 UNK         0.0600 
    158 H158        0.7989  -19.3970  -37.9357 H         1 UNK         0.0600 
    159 H159        2.9128  -18.4672  -39.0315 H         1 UNK         0.3000 
    160 H160        4.4250  -16.5293  -38.8190 H         1 UNK         0.0600 
    161 H161        5.0904  -17.4642  -41.6737 H         1 UNK         0.0600 
    162 H162        5.0617  -18.4823  -40.2394 H         1 UNK         0.0600 
    163 H163        6.2701  -17.2195  -40.3861 H         1 UNK         0.0600 
    164 H164        4.9746  -15.0540  -41.2960 H         1 UNK         0.3000 
    165 H165        3.7679  -11.9542  -40.2089 H         1 UNK         0.0600 
    166 H166        6.0715  -11.1489  -40.6820 H         1 UNK         0.0600 
    167 H167        6.0018  -11.9222  -39.1066 H         1 UNK         0.0600 
    168 H168        6.7108  -12.7794  -40.4696 H         1 UNK         0.0600 
    169 H169        5.2988  -12.9852  -42.4671 H         1 UNK         0.3000 
    170 H170        4.2666  -12.9356  -44.5411 H         1 UNK         0.0600 
    171 H171        4.5151  -15.2640  -43.6978 H         1 UNK         0.0600 
    172 H172        2.7734  -15.4942  -43.7638 H         1 UNK         0.0600 
    173 H173        3.6948  -15.2734  -45.2511 H         1 UNK         0.0600 
    174 H174        1.5950  -13.8193  -45.1610 H         1 UNK         0.3000 
    175 H175        0.3329  -10.5587  -45.9555 H         1 UNK         0.0600 
    176 H176        1.3086  -12.7932  -47.8039 H         1 UNK         0.0600 
    177 H177        0.0459  -11.6272  -48.1992 H         1 UNK         0.0600 
    178 H178        1.6980  -11.0857  -47.9402 H         1 UNK         0.0600 
    179 H179       -0.7694  -13.1444  -46.3912 H         1 UNK         0.3000 
    180 H180       -2.5691  -13.3252  -43.3071 H         1 UNK         0.0600 
    181 H181       -3.4845  -12.6163  -46.1435 H         1 UNK         0.0600 
    182 H182       -3.8705  -11.7251  -44.6770 H         1 UNK         0.0600 
    183 H183       -4.4818  -13.3580  -44.8936 H         1 UNK         0.0600 
    184 H184       -2.0952  -14.6937  -45.9193 H         1 UNK         0.3000 
    185 H185       -0.4930  -17.4117  -44.3817 H         1 UNK         0.0600 
    186 H186       -2.7987  -18.1580  -43.8503 H         1 UNK         0.0600 
    187 H187       -3.3854  -17.5272  -45.3868 H         1 UNK         0.0600 
    188 H188       -2.2519  -18.8793  -45.3544 H         1 UNK         0.0600 
    189 H189       -1.5423  -17.1265  -47.0069 H         1 UNK         0.3000 
    190 H190       -0.8507  -25.6152  -48.3105 H         1 UNK         0.3000 
    191 H191       -3.6083  -25.1268  -48.5212 H         1 UNK         0.0600 
    192 H192       -3.6035  -27.1870  -49.9437 H         1 UNK         0.0600 
    193 H193       -2.6048  -27.3990  -48.5168 H         1 UNK         0.0600 
    194 H194       -1.8522  -27.0978  -50.0842 H         1 UNK         0.0600 
    195 H195       -1.0524  -24.1367  -50.6527 H         1 UNK         0.3000 
    196 H196       -2.7666  -23.5140  -52.9411 H         1 UNK         0.0600 
    197 H197        0.1894  -22.9200  -52.3753 H         1 UNK         0.0600 
    198 H198       -0.4250  -24.3164  -53.2621 H         1 UNK         0.0600 
    199 H199       -0.6247  -22.7000  -53.9187 H         1 UNK         0.0600 
    200 H200       -2.2145  -22.0009  -49.9708 H         1 UNK         0.3000 
    201 H201       -2.7794  -19.2601  -51.0470 H         1 UNK         0.0600 
    202 H202       -1.4873  -20.0963  -48.3854 H         1 UNK         0.0600 
    203 H203       -1.8207  -18.4524  -48.9084 H         1 UNK         0.0600 
    204 H204       -0.6285  -19.4174  -49.7631 H         1 UNK         0.0600 
    205 H205       -3.5419  -21.7034  -48.5538 H         1 UNK         0.3000 
    206 H206       -5.5257  -20.1469  -47.2383 H         1 UNK         0.0600 
    207 H207       -4.0232  -21.7950  -46.1289 H         1 UNK         0.0600 
    208 H208       -5.7056  -22.1836  -45.8196 H         1 UNK         0.0600 
    209 H209       -4.7966  -23.1140  -47.0053 H         1 UNK         0.0600 
    210 H210       -5.9747  -21.5905  -50.1912 H         1 UNK         0.3000 
    211 H211       -7.7376  -22.0385  -51.4534 H         1 UNK         0.0600 
    212 H212       -9.9809  -21.3855  -50.9207 H         1 UNK         0.0600 
    213 H213       -8.9131  -20.1543  -50.2691 H         1 UNK         0.0600 
    214 H214       -9.6566  -21.3420  -49.1979 H         1 UNK         0.0600 
    215 H215       -6.5340  -24.0117  -49.4130 H         1 UNK         0.3000 
    216 H216       -8.6023  -26.0538  -49.1154 H         1 UNK         0.0600 
    217 H217       -5.5830  -26.2282  -48.6576 H         1 UNK         0.0600 
    218 H218       -6.7845  -27.3987  -48.1418 H         1 UNK         0.0600 
    219 H219       -6.7731  -25.7903  -47.4331 H         1 UNK         0.0600 
    220 H220       -5.6807  -25.5629  -51.1468 H         1 UNK         0.3000 
    221 H221       -6.6835  -27.5945  -53.1095 H         1 UNK         0.0600 
    222 H222       -4.4508  -28.1662  -52.1456 H         1 UNK         0.0600 
    223 H223       -3.8216  -26.5955  -52.6421 H         1 UNK         0.0600 
    224 H224       -4.3338  -27.7633  -53.8512 H         1 UNK         0.0600 
    225 H225       -5.3315  -24.2880  -52.5990 H         1 UNK         0.3000 
    226 H226       -6.8475  -23.2086  -54.7790 H         1 UNK         0.0600 
    227 H227       -3.7723  -23.2466  -55.0347 H         1 UNK         0.0600 
    228 H228       -4.8783  -24.1232  -56.0858 H         1 UNK         0.0600 
    229 H229       -4.8744  -22.3733  -56.0888 H         1 UNK         0.0600 
    230 H230       -6.2170  -20.7949  -54.9671 H         1 UNK         0.3000 
    231 H231       -5.0432  -19.6611  -52.4807 H         1 UNK         0.0600 
    232 H232       -7.6091  -18.6588  -53.8291 H         1 UNK         0.0600 
    233 H233       -6.7923  -17.9149  -52.4562 H         1 UNK         0.0600 
    234 H234       -7.5358  -19.4939  -52.2776 H         1 UNK         0.0600 
    235 H235       -3.8227  -20.3366  -54.9329 H         1 UNK         0.3000 
    236 H236       -3.6244  -18.0379  -56.7000 H         1 UNK         0.0600 
    237 H237       -3.3656  -20.3591  -57.5523 H         1 UNK         0.0600 
    238 H238       -1.8852  -19.4488  -57.8104 H         1 UNK         0.0600 
    239 H239       -1.9750  -20.6181  -56.4982 H         1 UNK         0.0600 
    240 H240       -1.8254  -19.3408  -53.9254 H         1 UNK         0.3000 
    241 H241        0.3689  -17.3928  -54.1729 H         1 UNK         0.0600 
    242 H242       -1.5372  -14.8446  -52.5543 H         1 UNK         0.3800 
    243 H243       -0.9369  -15.3957  -54.0961 H         1 UNK         0.3800 
    244 H244       -0.2294  -19.5207  -52.0714 H         1 UNK         0.0800 
    245 H245        1.1140  -18.4203  -52.0033 H         1 UNK         0.0800 
    246 H246        3.3499  -18.6890  -53.4126 H         1 UNK         0.0800 
    247 H247        3.7962  -20.3335  -53.7973 H         1 UNK         0.0800 
@<TRIPOS>BOND
     1    1    2 1    
     2    1  127 1    
     3    1  128 1    
     4    1  129 1    
     5    2    3 2    
     6    2    4 am   BACKBONE|DICT|INTERRES
     7    4    5 1    
     8    4  130 1    
     9    5    6 1    
    10    5   65 1    
    11    5  131 1    
    12    6    7 1    
    13    6  132 1    
    14    6  133 1    
    15    7    8 1    
    16    8    9 1    
    17    8  134 1    
    18    8  135 1    
    19    9   10 ar   
    20    9   14 ar   
    21   10   11 ar   
    22   10  136 1    
    23   11   12 ar   
    24   11  126 1    
    25   12   13 ar   
    26   12  137 1    
    27   13   14 ar   
    28   13   15 1    
    29   14  138 1    
    30   15   16 1    
    31   15  139 1    
    32   15  140 1    
    33   16   17 1    
    34   17   18 1    
    35   17  141 1    
    36   17  142 1    
    37   18   19 1    
    38   18   67 1    
    39   18  143 1    
    40   19   20 am   BACKBONE|DICT|INTERRES
    41   19  144 1    
    42   20   21 2    
    43   20   22 1    
    44   22   23 1    
    45   22   24 1    
    46   22  145 1    
    47   23  146 1    
    48   23  147 1    
    49   23  148 1    
    50   24   25 am   BACKBONE|DICT|INTERRES
    51   24  149 1    
    52   25   26 2    
    53   25   27 1    
    54   27   28 1    
    55   27   29 1    
    56   27  150 1    
    57   28  151 1    
    58   28  152 1    
    59   28  153 1    
    60   29   30 am   BACKBONE|DICT|INTERRES
    61   29  154 1    
    62   30   31 2    
    63   30   32 1    
    64   32   33 1    
    65   32   34 1    
    66   32  155 1    
    67   33  156 1    
    68   33  157 1    
    69   33  158 1    
    70   34   35 am   BACKBONE|DICT|INTERRES
    71   34  159 1    
    72   35   36 2    
    73   35   37 1    
    74   37   38 1    
    75   37   39 1    
    76   37  160 1    
    77   38  161 1    
    78   38  162 1    
    79   38  163 1    
    80   39   40 am   BACKBONE|DICT|INTERRES
    81   39  164 1    
    82   40   41 2    
    83   40   42 1    
    84   42   43 1    
    85   42   44 1    
    86   42  165 1    
    87   43  166 1    
    88   43  167 1    
    89   43  168 1    
    90   44   45 am   BACKBONE|DICT|INTERRES
    91   44  169 1    
    92   45   46 2    
    93   45   47 1    
    94   47   48 1    
    95   47   49 1    
    96   47  170 1    
    97   48  171 1    
    98   48  172 1    
    99   48  173 1    
   100   49   50 am   BACKBONE|DICT|INTERRES
   101   49  174 1    
   102   50   51 2    
   103   50   52 1    
   104   52   53 1    
   105   52   54 1    
   106   52  175 1    
   107   53  176 1    
   108   53  177 1    
   109   53  178 1    
   110   54   55 am   BACKBONE|DICT|INTERRES
   111   54  179 1    
   112   55   56 2    
   113   55   57 1    
   114   57   58 1    
   115   57   59 1    
   116   57  180 1    
   117   58  181 1    
   118   58  182 1    
   119   58  183 1    
   120   59   60 am   BACKBONE|DICT|INTERRES
   121   59  184 1    
   122   60   61 2    
   123   60   62 1    
   124   62   63 1    
   125   62   64 1    
   126   62  185 1    
   127   63  186 1    
   128   63  187 1    
   129   63  188 1    
   130   64   65 am   BACKBONE|DICT|INTERRES
   131   64  189 1    
   132   65   66 2    
   133   67   68 2    
   134   67   69 am   BACKBONE|DICT|INTERRES
   135   69   70 1    
   136   69  190 1    
   137   70   71 1    
   138   70   72 1    
   139   70  191 1    
   140   71  192 1    
   141   71  193 1    
   142   71  194 1    
   143   72   73 2    
   144   72   74 am   BACKBONE|DICT|INTERRES
   145   74   75 1    
   146   74  195 1    
   147   75   76 1    
   148   75   77 1    
   149   75  196 1    
   150   76  197 1    
   151   76  198 1    
   152   76  199 1    
   153   77   78 2    
   154   77   79 am   BACKBONE|DICT|INTERRES
   155   79   80 1    
   156   79  200 1    
   157   80   81 1    
   158   80   82 1    
   159   80  201 1    
   160   81  202 1    
   161   81  203 1    
   162   81  204 1    
   163   82   83 2    
   164   82   84 am   BACKBONE|DICT|INTERRES
   165   84   85 1    
   166   84  205 1    
   167   85   86 1    
   168   85   87 1    
   169   85  206 1    
   170   86  207 1    
   171   86  208 1    
   172   86  209 1    
   173   87   88 2    
   174   87   89 am   BACKBONE|DICT|INTERRES
   175   89   90 1    
   176   89  210 1    
   177   90   91 1    
   178   90   92 1    
   179   90  211 1    
   180   91  212 1    
   181   91  213 1    
   182   91  214 1    
   183   92   93 2    
   184   92   94 am   BACKBONE|DICT|INTERRES
   185   94   95 1    
   186   94  215 1    
   187   95   96 1    
   188   95   97 1    
   189   95  216 1    
   190   96  217 1    
   191   96  218 1    
   192   96  219 1    
   193   97   98 2    
   194   97   99 am   BACKBONE|DICT|INTERRES
   195   99  100 1    
   196   99  220 1    
   197  100  101 1    
   198  100  102 1    
   199  100  221 1    
   200  101  222 1    
   201  101  223 1    
   202  101  224 1    
   203  102  103 2    
   204  102  104 am   BACKBONE|DICT|INTERRES
   205  104  105 1    
   206  104  225 1    
   207  105  106 1    
   208  105  107 1    
   209  105  226 1    
   210  106  227 1    
   211  106  228 1    
   212  106  229 1    
   213  107  108 2    
   214  107  109 am   BACKBONE|DICT|INTERRES
   215  109  110 1    
   216  109  230 1    
   217  110  111 1    
   218  110  112 1    
   219  110  231 1    
   220  111  232 1    
   221  111  233 1    
   222  111  234 1    
   223  112  113 2    
   224  112  114 am   BACKBONE|DICT|INTERRES
   225  114  115 1    
   226  114  235 1    
   227  115  116 1    
   228  115  117 1    
   229  115  236 1    
   230  116  237 1    
   231  116  238 1    
   232  116  239 1    
   233  117  118 2    
   234  117  119 am   BACKBONE|DICT|INTERRES
   235  119  120 1    
   236  119  240 1    
   237  120  121 1    
   238  120  124 1    
   239  120  241 1    
   240  121  122 am   BACKBONE|DICT|INTERRES
   241  121  123 2    
   242  122  242 1    
   243  122  243 1    
   244  124  125 1    
   245  124  244 1    
   246  124  245 1    
   247  125  126 1    
   248  126  246 1    
   249  126  247 1    
@<TRIPOS>SUBSTRUCTURE
     1 UNK         1 GROUP             0       ****    0 ROOT    
