@<TRIPOS>MOLECULE
3R540
247   249    1
SMALL
USER_CHARGES


@<TRIPOS>ATOM
      1 CA         -4.2723  -10.4609  -50.8809 C.3       0 UNK        -0.1800 
      2 C          -3.6910  -11.6413  -50.1152 C.2       0 UNK         0.5000 
      3 O          -4.4467  -12.4276  -49.5453 O.2       0 UNK        -0.5000 
      4 N          -2.3553  -11.7558  -50.1006 N.am      1 UNK        -0.5000 
      5 CA         -1.5710  -12.8147  -49.4465 C.3       1 UNK         0.1400 
      6 C6         -1.7472  -14.2236  -50.0831 C.3       23 UNK        -0.0398 
      7 S7         -1.3815  -14.2480  -51.8721 S.3       23 UNK        -0.2404 
      8 C8          0.4265  -14.4632  -51.8900 C.3       23 UNK        -0.0205 
      9 C9          0.8646  -15.9093  -51.6963 C.ar      23 UNK        -0.0193 
     10 C10         0.8873  -16.7857  -52.7877 C.ar      23 UNK        -0.1150 
     11 C11         1.3835  -18.0851  -52.6455 C.ar      23 UNK        -0.0193 
     12 C12         1.8659  -18.4983  -51.4030 C.ar      23 UNK        -0.1150 
     13 C13         1.8219  -17.6484  -50.2941 C.ar      23 UNK        -0.0193 
     14 C14         1.3181  -16.3525  -50.4484 C.ar      23 UNK        -0.1150 
     15 C15         2.3866  -18.1010  -48.9515 C.3       23 UNK        -0.0205 
     16 S16         1.9090  -19.8027  -48.4984 S.3       23 UNK        -0.2404 
     17 C17         0.2315  -19.5383  -47.8447 C.3       23 UNK        -0.0398 
     18 CA         -0.4898  -20.8588  -47.5095 C.3       11 UNK         0.1400 
     19 N           0.2764  -21.6793  -46.5730 N.am      11 UNK        -0.5000 
     20 C           0.0932  -22.9921  -46.3958 C.2       10 UNK         0.5000 
     21 O          -0.7098  -23.6657  -47.0403 O.2       10 UNK        -0.5000 
     22 CA          0.9142  -23.6371  -45.2702 C.3       10 UNK         0.1400 
     23 CB          2.3265  -23.9931  -45.7572 C.3       10 UNK        -0.1800 
     24 N           1.0109  -22.7570  -44.1054 N.am      10 UNK        -0.5000 
     25 C          -0.0010  -22.4942  -43.2651 C.2       9 UNK         0.5000 
     26 O          -1.1348  -22.9452  -43.4298 O.2       9 UNK        -0.5000 
     27 CA          0.2734  -21.5493  -42.0710 C.3       9 UNK         0.1400 
     28 CB         -0.4245  -22.0156  -40.7784 C.3       9 UNK        -0.1800 
     29 N           1.6956  -21.2811  -41.8372 N.am      9 UNK        -0.5000 
     30 C           2.6658  -22.1573  -41.5349 C.2       8 UNK         0.5000 
     31 O           2.4550  -23.3319  -41.2300 O.2       8 UNK        -0.5000 
     32 CA          4.1215  -21.6467  -41.6422 C.3       8 UNK         0.1400 
     33 CB          5.0579  -22.7135  -42.2460 C.3       8 UNK        -0.1800 
     34 N           4.2726  -20.3785  -42.3719 N.am      8 UNK        -0.5000 
     35 C           3.9249  -20.0876  -43.6350 C.2       7 UNK         0.5000 
     36 O           3.3703  -20.8915  -44.3880 O.2       7 UNK        -0.5000 
     37 CA          4.1944  -18.6362  -44.0978 C.3       7 UNK         0.1400 
     38 CB          3.6778  -18.3676  -45.5223 C.3       7 UNK        -0.1800 
     39 N           3.6025  -17.6418  -43.1982 N.am      7 UNK        -0.5000 
     40 C           4.0295  -17.3138  -41.9705 C.2       6 UNK         0.5000 
     41 O           5.0372  -17.7942  -41.4497 O.2       6 UNK        -0.5000 
     42 CA          3.1629  -16.3250  -41.1706 C.3       6 UNK         0.1400 
     43 CB          3.6854  -14.8884  -41.3271 C.3       6 UNK        -0.1800 
     44 N           1.7536  -16.3798  -41.5643 N.am      6 UNK        -0.5000 
     45 C           0.8986  -17.3471  -41.2020 C.2       5 UNK         0.5000 
     46 O           1.2039  -18.2892  -40.4714 O.2       5 UNK        -0.5000 
     47 CA         -0.5324  -17.2588  -41.7652 C.3       5 UNK         0.1400 
     48 CB         -1.4254  -16.4143  -40.8450 C.3       5 UNK        -0.1800 
     49 N          -0.5690  -16.6989  -43.1167 N.am      5 UNK        -0.5000 
     50 C          -0.1949  -17.3636  -44.2174 C.2       4 UNK         0.5000 
     51 O           0.1372  -18.5506  -44.2216 O.2       4 UNK        -0.5000 
     52 CA         -0.1724  -16.5691  -45.5388 C.3       4 UNK         0.1400 
     53 CB         -1.4864  -16.7772  -46.3071 C.3       4 UNK        -0.1800 
     54 N           0.0995  -15.1344  -45.4134 N.am      4 UNK        -0.5000 
     55 C           1.2020  -14.6073  -44.8580 C.2       3 UNK         0.5000 
     56 O           2.0689  -15.2962  -44.3212 O.2       3 UNK        -0.5000 
     57 CA          1.3961  -13.0763  -44.9047 C.3       3 UNK         0.1400 
     58 CB          2.6926  -12.7225  -45.6510 C.3       3 UNK        -0.1800 
     59 N           0.2889  -12.3534  -45.5309 N.am      3 UNK        -0.5000 
     60 C          -0.8993  -12.1017  -44.9659 C.2       2 UNK         0.5000 
     61 O          -1.1828  -12.4130  -43.8089 O.2       2 UNK        -0.5000 
     62 CA         -1.9604  -11.4200  -45.8575 C.3       2 UNK         0.1400 
     63 CB         -2.0106   -9.9110  -45.5748 C.3       2 UNK        -0.1800 
     64 N          -1.7665  -11.6287  -47.2994 N.am      2 UNK        -0.5000 
     65 C          -1.7736  -12.8217  -47.9140 C.2       1 UNK         0.5000 
     66 O          -1.9112  -13.8835  -47.3084 O.2       1 UNK        -0.5000 
     67 C          -1.9076  -20.5925  -46.9649 C.2       11 UNK         0.5000 
     68 O          -2.8526  -20.5262  -47.7496 O.2       11 UNK        -0.5000 
     69 N          -2.0504  -20.4804  -45.6337 N.am      12 UNK        -0.5000 
     70 CA         -3.3412  -20.3596  -44.9494 C.3       12 UNK         0.1400 
     71 CB         -3.1352  -20.0249  -43.4659 C.3       12 UNK        -0.1800 
     72 C          -4.2098  -21.6174  -45.1280 C.2       12 UNK         0.5000 
     73 O          -5.4019  -21.4909  -45.4065 O.2       12 UNK        -0.5000 
     74 N          -3.5796  -22.7993  -45.0541 N.am      13 UNK        -0.5000 
     75 CA         -4.1832  -24.0989  -45.3636 C.3       13 UNK         0.1400 
     76 CB         -3.2168  -25.2194  -44.9520 C.3       13 UNK        -0.1800 
     77 C          -4.6023  -24.2501  -46.8422 C.2       13 UNK         0.5000 
     78 O          -5.5224  -25.0146  -47.1312 O.2       13 UNK        -0.5000 
     79 N          -3.9746  -23.4782  -47.7413 N.am      14 UNK        -0.5000 
     80 CA         -4.3515  -23.3171  -49.1489 C.3       14 UNK         0.1400 
     81 CB         -3.0821  -23.0783  -49.9905 C.3       14 UNK        -0.1800 
     82 C          -5.4025  -22.1984  -49.3418 C.2       14 UNK         0.5000 
     83 O          -5.4321  -21.5614  -50.3962 O.2       14 UNK        -0.5000 
     84 N          -6.2396  -21.9677  -48.3185 N.am      15 UNK        -0.5000 
     85 CA         -7.3291  -20.9895  -48.2486 C.3       15 UNK         0.1400 
     86 CB         -8.4574  -21.3716  -49.2299 C.3       15 UNK        -0.1800 
     87 C          -6.8360  -19.5381  -48.4143 C.2       15 UNK         0.5000 
     88 O          -7.4355  -18.7629  -49.1582 O.2       15 UNK        -0.5000 
     89 N          -5.7234  -19.2155  -47.7377 N.am      16 UNK        -0.5000 
     90 CA         -4.9643  -17.9609  -47.8401 C.3       16 UNK         0.1400 
     91 CB         -5.7672  -16.7701  -47.2782 C.3       16 UNK        -0.1800 
     92 C          -4.4379  -17.7312  -49.2715 C.2       16 UNK         0.5000 
     93 O          -4.5884  -16.6453  -49.8316 O.2       16 UNK        -0.5000 
     94 N          -3.8558  -18.8000  -49.8325 N.am      17 UNK        -0.5000 
     95 CA         -3.3098  -18.9263  -51.1852 C.3       17 UNK         0.1400 
     96 CB         -2.0739  -18.0234  -51.3502 C.3       17 UNK        -0.1800 
     97 C          -4.3439  -18.7403  -52.3186 C.2       17 UNK         0.5000 
     98 O          -3.9619  -18.4216  -53.4460 O.2       17 UNK        -0.5000 
     99 N          -5.6327  -18.9585  -52.0211 N.am      18 UNK        -0.5000 
    100 CA        -6.7080  -18.9626  -53.0134 C.3       18 UNK         0.1400 
    101 CB        -8.0520  -18.6760  -52.3297 C.3       18 UNK        -0.1800 
    102 C         -6.7656  -20.2885  -53.7929 C.2       18 UNK         0.5000 
    103 O         -7.1669  -20.2838  -54.9579 O.2       18 UNK        -0.5000 
    104 N         -6.3600  -21.3943  -53.1526 N.am      19 UNK        -0.5000 
    105 CA        -6.1973  -22.6974  -53.7921 C.3       19 UNK         0.1400 
    106 CB        -6.2407  -23.7977  -52.7205 C.3       19 UNK        -0.1800 
    107 C         -4.8754  -22.7559  -54.5790 C.2       19 UNK         0.5000 
    108 O         -3.9157  -22.0597  -54.2361 O.2       19 UNK        -0.5000 
    109 N         -4.8492  -23.6043  -55.6133 N.am      20 UNK        -0.5000 
    110 CA        -3.6792  -23.8580  -56.4541 C.3       20 UNK         0.1400 
    111 CB        -4.1153  -24.7002  -57.6637 C.3       20 UNK        -0.1800 
    112 C         -2.5424  -24.5631  -55.6884 C.2       20 UNK         0.5000 
    113 O         -2.8037  -25.2816  -54.7200 O.2       20 UNK        -0.5000 
    114 N         -1.3079  -24.3640  -56.1719 N.am      21 UNK        -0.5000 
    115 CA        -0.0537  -24.9116  -55.6399 C.3       21 UNK         0.1400 
    116 CB        -0.0134  -26.4482  -55.7869 C.3       21 UNK        -0.1800 
    117 C          0.2589  -24.4254  -54.2077 C.2       21 UNK         0.5000 
    118 O          0.7064  -25.2090  -53.3676 O.2       21 UNK        -0.5000 
    119 N          0.0186  -23.1310  -53.9620 N.am      22 UNK        -0.5000 
    120 CA         0.3895  -22.4196  -52.7302 C.3       22 UNK         0.1400 
    121 C          1.9254  -22.3617  -52.4802 C.2       22 UNK         0.5000 
    122 N          2.3513  -22.2394  -51.2302 N.am      22 UNK        -0.7600 
    123 O          2.7351  -22.4010  -53.4045 O.2       22 UNK        -0.5000 
    124 C124       -0.2689  -21.0144  -52.6545 C.3       23 UNK        -0.0398 
    125 S125       -0.0770  -19.9596  -54.1416 S.3       23 UNK        -0.2404 
    126 C126        1.4630  -19.0274  -53.8394 C.3       23 UNK        -0.0205 
    127 H127       -3.4936   -9.8478  -51.3353 H         1 UNK         0.0600 
    128 H128       -4.9304  -10.8163  -51.6738 H         1 UNK         0.0600 
    129 H129       -4.8547   -9.8289  -50.2105 H         1 UNK         0.0600 
    130 H130       -1.8085  -11.0693  -50.6013 H         1 UNK         0.3000 
    131 H131       -0.5271  -12.5320  -49.5872 H         1 UNK         0.0600 
    132 H132       -2.7702  -14.5760  -49.9436 H         1 UNK         0.0800 
    133 H133       -1.1105  -14.9587  -49.5892 H         1 UNK         0.0800 
    134 H134        0.8836  -13.8202  -51.1369 H         1 UNK         0.0800 
    135 H135        0.8028  -14.1060  -52.8497 H         1 UNK         0.0800 
    136 H136        0.5385  -16.4484  -53.7536 H         1 UNK         0.1150 
    137 H137        2.2867  -19.4875  -51.3007 H         1 UNK         0.1150 
    138 H138        1.3137  -15.6755  -49.6059 H         1 UNK         0.1150 
    139 H139        3.4747  -18.0538  -49.0081 H         1 UNK         0.0800 
    140 H140        2.0917  -17.4186  -48.1533 H         1 UNK         0.0800 
    141 H141        0.3303  -18.9444  -46.9420 H         1 UNK         0.0800 
    142 H142       -0.3421  -18.9485  -48.5612 H         1 UNK         0.0800 
    143 H143       -0.6026  -21.4187  -48.4405 H         1 UNK         0.0600 
    144 H144        0.9788  -21.2079  -46.0198 H         1 UNK         0.3000 
    145 H145        0.4109  -24.5584  -44.9692 H         1 UNK         0.0600 
    146 H146        2.9000  -24.4875  -44.9729 H         1 UNK         0.0600 
    147 H147        2.2855  -24.6725  -46.6095 H         1 UNK         0.0600 
    148 H148        2.8818  -23.1073  -46.0690 H         1 UNK         0.0600 
    149 H149        1.9004  -22.2911  -43.9609 H         1 UNK         0.3000 
    150 H150       -0.1624  -20.5895  -42.3490 H         1 UNK         0.0600 
    151 H151       -1.5054  -22.0684  -40.9133 H         1 UNK         0.0600 
    152 H152       -0.2351  -21.3226  -39.9585 H         1 UNK         0.0600 
    153 H153       -0.0874  -23.0049  -40.4686 H         1 UNK         0.0600 
    154 H154        1.9892  -20.3378  -42.0492 H         1 UNK         0.3000 
    155 H155        4.4501  -21.4519  -40.6205 H         1 UNK         0.0600 
    156 H156        5.0726  -23.6170  -41.6354 H         1 UNK         0.0600 
    157 H157        6.0836  -22.3496  -42.3057 H         1 UNK         0.0600 
    158 H158        4.7456  -23.0027  -43.2502 H         1 UNK         0.0600 
    159 H159        4.6847  -19.6170  -41.8380 H         1 UNK         0.3000 
    160 H160        5.2770  -18.4957  -44.1020 H         1 UNK         0.0600 
    161 H161        2.5995  -18.5130  -45.5904 H         1 UNK         0.0600 
    162 H162        4.1452  -19.0400  -46.2427 H         1 UNK         0.0600 
    163 H163        3.8980  -17.3479  -45.8389 H         1 UNK         0.0600 
    164 H164        2.7955  -17.1440  -43.5546 H         1 UNK         0.3000 
    165 H165        3.2383  -16.5973  -40.1156 H         1 UNK         0.0600 
    166 H166        4.7153  -14.8105  -40.9765 H         1 UNK         0.0600 
    167 H167        3.6705  -14.5593  -42.3662 H         1 UNK         0.0600 
    168 H168        3.0902  -14.1860  -40.7435 H         1 UNK         0.0600 
    169 H169        1.4516  -15.6872  -42.2356 H         1 UNK         0.3000 
    170 H170       -0.9387  -18.2715  -41.7923 H         1 UNK         0.0600 
    171 H171       -1.4321  -16.8166  -39.8310 H         1 UNK         0.0600 
    172 H172       -1.0822  -15.3806  -40.7865 H         1 UNK         0.0600 
    173 H173       -2.4571  -16.4064  -41.1972 H         1 UNK         0.0600 
    174 H174       -0.8419  -15.7308  -43.2078 H         1 UNK         0.3000 
    175 H175        0.6481  -16.9717  -46.1315 H         1 UNK         0.0600 
    176 H176       -2.3045  -16.2075  -45.8650 H         1 UNK         0.0600 
    177 H177       -1.3861  -16.4740  -47.3493 H         1 UNK         0.0600 
    178 H178       -1.7898  -17.8210  -46.3073 H         1 UNK         0.0600 
    179 H179       -0.5685  -14.5161  -45.8609 H         1 UNK         0.3000 
    180 H180        1.4945  -12.7348  -43.8723 H         1 UNK         0.0600 
    181 H181        2.6608  -13.0511  -46.6906 H         1 UNK         0.0600 
    182 H182        2.8719  -11.6472  -45.6430 H         1 UNK         0.0600 
    183 H183        3.5575  -13.1957  -45.1838 H         1 UNK         0.0600 
    184 H184        0.4280  -12.0595  -46.4862 H         1 UNK         0.3000 
    185 H185       -2.9281  -11.8499  -45.5911 H         1 UNK         0.0600 
    186 H186       -2.8200   -9.4325  -46.1266 H         1 UNK         0.0600 
    187 H187       -2.1831   -9.7167  -44.5153 H         1 UNK         0.0600 
    188 H188       -1.0773   -9.4189  -45.8512 H         1 UNK         0.0600 
    189 H189       -1.6591  -10.7986  -47.8644 H         1 UNK         0.3000 
    190 H190       -1.2265  -20.5183  -45.0513 H         1 UNK         0.3000 
    191 H191       -3.8786  -19.5230  -45.3968 H         1 UNK         0.0600 
    192 H192       -4.0937  -19.8856  -42.9645 H         1 UNK         0.0600 
    193 H193       -2.5736  -19.0997  -43.3475 H         1 UNK         0.0600 
    194 H194       -2.6057  -20.8149  -42.9365 H         1 UNK         0.0600 
    195 H195       -2.6115  -22.8159  -44.7475 H         1 UNK         0.3000 
    196 H196       -5.0876  -24.1940  -44.7593 H         1 UNK         0.0600 
    197 H197       -3.6580  -26.2010  -45.1291 H         1 UNK         0.0600 
    198 H198       -2.9726  -25.1593  -43.8912 H         1 UNK         0.0600 
    199 H199       -2.2833  -25.1736  -45.5124 H         1 UNK         0.0600 
    200 H200       -3.2370  -22.8711  -47.4119 H         1 UNK         0.3000 
    201 H201       -4.8094  -24.2426  -49.5030 H         1 UNK         0.0600 
    202 H202       -2.3422  -23.8603  -49.8186 H         1 UNK         0.0600 
    203 H203       -2.6150  -22.1218  -49.7626 H         1 UNK         0.0600 
    204 H204       -3.3084  -23.0780  -51.0573 H         1 UNK         0.0600 
    205 H205       -6.0982  -22.5060  -47.4749 H         1 UNK         0.3000 
    206 H206       -7.7367  -21.0538  -47.2387 H         1 UNK         0.0600 
    207 H207       -8.8357  -22.3718  -49.0194 H         1 UNK         0.0600 
    208 H208       -9.3001  -20.6842  -49.1496 H         1 UNK         0.0600 
    209 H209       -8.1184  -21.3579  -50.2655 H         1 UNK         0.0600 
    210 H210       -5.2969  -19.9471  -47.1845 H         1 UNK         0.3000 
    211 H211       -4.0811  -18.0770  -47.2133 H         1 UNK         0.0600 
    212 H212       -6.6462  -16.5484  -47.8838 H         1 UNK         0.0600 
    213 H213       -5.1542  -15.8682  -47.2519 H         1 UNK         0.0600 
    214 H214       -6.1010  -16.9660  -46.2593 H         1 UNK         0.0600 
    215 H215       -3.7696  -19.6301  -49.2542 H         1 UNK         0.3000 
    216 H216       -2.9750  -19.9603  -51.2685 H         1 UNK         0.0600 
    217 H217       -2.3341  -16.9695  -51.2701 H         1 UNK         0.0600 
    218 H218       -1.6097  -18.1660  -52.3250 H         1 UNK         0.0600 
    219 H219       -1.3162  -18.2406  -50.5992 H         1 UNK         0.0600 
    220 H220       -5.8739  -19.2326  -51.0776 H         1 UNK         0.3000 
    221 H221       -6.5261  -18.1608  -53.7323 H         1 UNK         0.0600 
    222 H222       -8.3260  -19.4656  -51.6312 H         1 UNK         0.0600 
    223 H223       -8.0225  -17.7356  -51.7790 H         1 UNK         0.0600 
    224 H224       -8.8536  -18.5987  -53.0651 H         1 UNK         0.0600 
    225 H225       -6.0020  -21.3137  -52.2044 H         1 UNK         0.3000 
    226 H226       -7.0291  -22.8573  -54.4817 H         1 UNK         0.0600 
    227 H227       -7.1379  -23.7197  -52.1060 H         1 UNK         0.0600 
    228 H228       -6.2428  -24.7873  -53.1787 H         1 UNK         0.0600 
    229 H229       -5.3755  -23.7493  -52.0607 H         1 UNK         0.0600 
    230 H230       -5.6647  -24.1674  -55.8042 H         1 UNK         0.3000 
    231 H231       -3.3094  -22.8953  -56.8138 H         1 UNK         0.0600 
    232 H232       -4.5075  -25.6708  -57.3570 H         1 UNK         0.0600 
    233 H233       -4.8879  -24.1923  -58.2414 H         1 UNK         0.0600 
    234 H234       -3.2773  -24.8841  -58.3374 H         1 UNK         0.0600 
    235 H235       -1.2049  -23.7627  -56.9778 H         1 UNK         0.3000 
    236 H236        0.7418  -24.5086  -56.2683 H         1 UNK         0.0600 
    237 H237       -0.2206  -26.7517  -56.8130 H         1 UNK         0.0600 
    238 H238        0.9711  -26.8387  -55.5270 H         1 UNK         0.0600 
    239 H239       -0.7394  -26.9392  -55.1384 H         1 UNK         0.0600 
    240 H240       -0.3440  -22.5529  -54.7058 H         1 UNK         0.3000 
    241 H241       -0.0268  -23.0074  -51.9093 H         1 UNK         0.0600 
    242 H242        3.3437  -22.1968  -51.0601 H         1 UNK         0.3800 
    243 H243        1.7183  -22.2003  -50.4478 H         1 UNK         0.3800 
    244 H244        0.0462  -20.4758  -51.7614 H         1 UNK         0.0800 
    245 H245       -1.3425  -21.1571  -52.5275 H         1 UNK         0.0800 
    246 H246        2.2941  -19.7222  -53.7182 H         1 UNK         0.0800 
    247 H247        1.6935  -18.4494  -54.7354 H         1 UNK         0.0800 
@<TRIPOS>BOND
     1    1    2 1    
     2    1  127 1    
     3    1  128 1    
     4    1  129 1    
     5    2    3 2    
     6    2    4 am   BACKBONE|DICT|INTERRES
     7    4    5 1    
     8    4  130 1    
     9    5    6 1    
    10    5   65 1    
    11    5  131 1    
    12    6    7 1    
    13    6  132 1    
    14    6  133 1    
    15    7    8 1    
    16    8    9 1    
    17    8  134 1    
    18    8  135 1    
    19    9   10 ar   
    20    9   14 ar   
    21   10   11 ar   
    22   10  136 1    
    23   11   12 ar   
    24   11  126 1    
    25   12   13 ar   
    26   12  137 1    
    27   13   14 ar   
    28   13   15 1    
    29   14  138 1    
    30   15   16 1    
    31   15  139 1    
    32   15  140 1    
    33   16   17 1    
    34   17   18 1    
    35   17  141 1    
    36   17  142 1    
    37   18   19 1    
    38   18   67 1    
    39   18  143 1    
    40   19   20 am   BACKBONE|DICT|INTERRES
    41   19  144 1    
    42   20   21 2    
    43   20   22 1    
    44   22   23 1    
    45   22   24 1    
    46   22  145 1    
    47   23  146 1    
    48   23  147 1    
    49   23  148 1    
    50   24   25 am   BACKBONE|DICT|INTERRES
    51   24  149 1    
    52   25   26 2    
    53   25   27 1    
    54   27   28 1    
    55   27   29 1    
    56   27  150 1    
    57   28  151 1    
    58   28  152 1    
    59   28  153 1    
    60   29   30 am   BACKBONE|DICT|INTERRES
    61   29  154 1    
    62   30   31 2    
    63   30   32 1    
    64   32   33 1    
    65   32   34 1    
    66   32  155 1    
    67   33  156 1    
    68   33  157 1    
    69   33  158 1    
    70   34   35 am   BACKBONE|DICT|INTERRES
    71   34  159 1    
    72   35   36 2    
    73   35   37 1    
    74   37   38 1    
    75   37   39 1    
    76   37  160 1    
    77   38  161 1    
    78   38  162 1    
    79   38  163 1    
    80   39   40 am   BACKBONE|DICT|INTERRES
    81   39  164 1    
    82   40   41 2    
    83   40   42 1    
    84   42   43 1    
    85   42   44 1    
    86   42  165 1    
    87   43  166 1    
    88   43  167 1    
    89   43  168 1    
    90   44   45 am   BACKBONE|DICT|INTERRES
    91   44  169 1    
    92   45   46 2    
    93   45   47 1    
    94   47   48 1    
    95   47   49 1    
    96   47  170 1    
    97   48  171 1    
    98   48  172 1    
    99   48  173 1    
   100   49   50 am   BACKBONE|DICT|INTERRES
   101   49  174 1    
   102   50   51 2    
   103   50   52 1    
   104   52   53 1    
   105   52   54 1    
   106   52  175 1    
   107   53  176 1    
   108   53  177 1    
   109   53  178 1    
   110   54   55 am   BACKBONE|DICT|INTERRES
   111   54  179 1    
   112   55   56 2    
   113   55   57 1    
   114   57   58 1    
   115   57   59 1    
   116   57  180 1    
   117   58  181 1    
   118   58  182 1    
   119   58  183 1    
   120   59   60 am   BACKBONE|DICT|INTERRES
   121   59  184 1    
   122   60   61 2    
   123   60   62 1    
   124   62   63 1    
   125   62   64 1    
   126   62  185 1    
   127   63  186 1    
   128   63  187 1    
   129   63  188 1    
   130   64   65 am   BACKBONE|DICT|INTERRES
   131   64  189 1    
   132   65   66 2    
   133   67   68 2    
   134   67   69 am   BACKBONE|DICT|INTERRES
   135   69   70 1    
   136   69  190 1    
   137   70   71 1    
   138   70   72 1    
   139   70  191 1    
   140   71  192 1    
   141   71  193 1    
   142   71  194 1    
   143   72   73 2    
   144   72   74 am   BACKBONE|DICT|INTERRES
   145   74   75 1    
   146   74  195 1    
   147   75   76 1    
   148   75   77 1    
   149   75  196 1    
   150   76  197 1    
   151   76  198 1    
   152   76  199 1    
   153   77   78 2    
   154   77   79 am   BACKBONE|DICT|INTERRES
   155   79   80 1    
   156   79  200 1    
   157   80   81 1    
   158   80   82 1    
   159   80  201 1    
   160   81  202 1    
   161   81  203 1    
   162   81  204 1    
   163   82   83 2    
   164   82   84 am   BACKBONE|DICT|INTERRES
   165   84   85 1    
   166   84  205 1    
   167   85   86 1    
   168   85   87 1    
   169   85  206 1    
   170   86  207 1    
   171   86  208 1    
   172   86  209 1    
   173   87   88 2    
   174   87   89 am   BACKBONE|DICT|INTERRES
   175   89   90 1    
   176   89  210 1    
   177   90   91 1    
   178   90   92 1    
   179   90  211 1    
   180   91  212 1    
   181   91  213 1    
   182   91  214 1    
   183   92   93 2    
   184   92   94 am   BACKBONE|DICT|INTERRES
   185   94   95 1    
   186   94  215 1    
   187   95   96 1    
   188   95   97 1    
   189   95  216 1    
   190   96  217 1    
   191   96  218 1    
   192   96  219 1    
   193   97   98 2    
   194   97   99 am   BACKBONE|DICT|INTERRES
   195   99  100 1    
   196   99  220 1    
   197  100  101 1    
   198  100  102 1    
   199  100  221 1    
   200  101  222 1    
   201  101  223 1    
   202  101  224 1    
   203  102  103 2    
   204  102  104 am   BACKBONE|DICT|INTERRES
   205  104  105 1    
   206  104  225 1    
   207  105  106 1    
   208  105  107 1    
   209  105  226 1    
   210  106  227 1    
   211  106  228 1    
   212  106  229 1    
   213  107  108 2    
   214  107  109 am   BACKBONE|DICT|INTERRES
   215  109  110 1    
   216  109  230 1    
   217  110  111 1    
   218  110  112 1    
   219  110  231 1    
   220  111  232 1    
   221  111  233 1    
   222  111  234 1    
   223  112  113 2    
   224  112  114 am   BACKBONE|DICT|INTERRES
   225  114  115 1    
   226  114  235 1    
   227  115  116 1    
   228  115  117 1    
   229  115  236 1    
   230  116  237 1    
   231  116  238 1    
   232  116  239 1    
   233  117  118 2    
   234  117  119 am   BACKBONE|DICT|INTERRES
   235  119  120 1    
   236  119  240 1    
   237  120  121 1    
   238  120  124 1    
   239  120  241 1    
   240  121  122 am   BACKBONE|DICT|INTERRES
   241  121  123 2    
   242  122  242 1    
   243  122  243 1    
   244  124  125 1    
   245  124  244 1    
   246  124  245 1    
   247  125  126 1    
   248  126  246 1    
   249  126  247 1    
@<TRIPOS>SUBSTRUCTURE
     1 UNK         1 GROUP             0       ****    0 ROOT    
