@<TRIPOS>MOLECULE
3R540
247   249    1
SMALL
USER_CHARGES


@<TRIPOS>ATOM
      1 CA          0.3434  -12.3334  -46.9561 C.3       0 UNK        -0.1800 
      2 C           1.4460  -12.7281  -47.9303 C.2       0 UNK         0.5000 
      3 O           2.0980  -11.8535  -48.5006 O.2       0 UNK        -0.5000 
      4 N           1.6383  -14.0376  -48.1250 N.am      1 UNK        -0.5000 
      5 CA          2.6161  -14.6270  -49.0455 C.3       1 UNK         0.1400 
      6 C6          1.9871  -15.7635  -49.8943 C.3       23 UNK        -0.0398 
      7 S7          0.6153  -15.1692  -50.9383 S.3       23 UNK        -0.2404 
      8 C8          0.5452  -16.4851  -52.1916 C.3       23 UNK        -0.0205 
      9 C9          0.0602  -17.7970  -51.5961 C.ar      23 UNK        -0.0193 
     10 C10        -1.3071  -18.0178  -51.4241 C.ar      23 UNK        -0.1150 
     11 C11        -1.7741  -19.2225  -50.8950 C.ar      23 UNK        -0.0193 
     12 C12        -0.8581  -20.2086  -50.5195 C.ar      23 UNK        -0.1150 
     13 C13         0.5155  -19.9982  -50.6828 C.ar      23 UNK        -0.0193 
     14 C14         0.9686  -18.7934  -51.2280 C.ar      23 UNK        -0.1150 
     15 C15         1.5073  -21.0870  -50.3024 C.3       23 UNK        -0.0205 
     16 S16         2.5339  -20.6504  -48.8588 S.3       23 UNK        -0.2404 
     17 C17         1.2997  -20.3966  -47.5409 C.3       23 UNK        -0.0398 
     18 CA          0.9830  -21.6823  -46.7346 C.3       11 UNK         0.1400 
     19 N           0.5579  -21.3836  -45.3639 N.am      11 UNK        -0.5000 
     20 C           0.4279  -22.2934  -44.3866 C.2       10 UNK         0.5000 
     21 O           0.7353  -23.4776  -44.5123 O.2       10 UNK        -0.5000 
     22 CA         -0.2059  -21.8115  -43.0674 C.3       10 UNK         0.1400 
     23 CB          0.8688  -21.3376  -42.0803 C.3       10 UNK        -0.1800 
     24 N          -1.1850  -20.7432  -43.2803 N.am      10 UNK        -0.5000 
     25 C          -2.3820  -20.9352  -43.8525 C.2       9 UNK         0.5000 
     26 O          -2.7999  -22.0401  -44.1969 O.2       9 UNK        -0.5000 
     27 CA         -3.2229  -19.6776  -44.1392 C.3       9 UNK         0.1400 
     28 CB         -4.0685  -19.3054  -42.9134 C.3       9 UNK        -0.1800 
     29 N          -2.4099  -18.5298  -44.5625 N.am      9 UNK        -0.5000 
     30 C          -1.7256  -18.4924  -45.7178 C.2       8 UNK         0.5000 
     31 O          -1.6854  -19.4499  -46.4896 O.2       8 UNK        -0.5000 
     32 CA         -0.8895  -17.2403  -46.0612 C.3       8 UNK         0.1400 
     33 CB         -1.1116  -16.7806  -47.5176 C.3       8 UNK        -0.1800 
     34 N          -1.0196  -16.1315  -45.1105 N.am      8 UNK        -0.5000 
     35 C          -2.0822  -15.3383  -44.9016 C.2       7 UNK         0.5000 
     36 O          -3.1259  -15.3996  -45.5518 O.2       7 UNK        -0.5000 
     37 CA         -1.9511  -14.3291  -43.7374 C.3       7 UNK         0.1400 
     38 CB         -3.3119  -13.7833  -43.2583 C.3       7 UNK        -0.1800 
     39 N          -1.1823  -14.8576  -42.6028 N.am      7 UNK        -0.5000 
     40 C          -1.4391  -15.9762  -41.9039 C.2       6 UNK         0.5000 
     41 O          -2.4123  -16.6960  -42.1221 O.2       6 UNK        -0.5000 
     42 CA         -0.4234  -16.4047  -40.8258 C.3       6 UNK         0.1400 
     43 CB         -0.0046  -17.8719  -41.0303 C.3       6 UNK        -0.1800 
     44 N           0.7798  -15.5748  -40.8569 N.am      6 UNK        -0.5000 
     45 C           1.0683  -14.5863  -40.0003 C.2       5 UNK         0.5000 
     46 O           0.3739  -14.3000  -39.0246 O.2       5 UNK        -0.5000 
     47 CA          2.3388  -13.7602  -40.2940 C.3       5 UNK         0.1400 
     48 CB          3.5105  -14.2555  -39.4326 C.3       5 UNK        -0.1800 
     49 N           2.7434  -13.7842  -41.7034 N.am      5 UNK        -0.5000 
     50 C           2.0333  -13.2684  -42.7167 C.2       4 UNK         0.5000 
     51 O           0.9610  -12.6823  -42.5710 O.2       4 UNK        -0.5000 
     52 CA          2.5714  -13.5154  -44.1377 C.3       4 UNK         0.1400 
     53 CB          3.5029  -12.3723  -44.5655 C.3       4 UNK        -0.1800 
     54 N           3.2582  -14.8011  -44.3004 N.am      4 UNK        -0.5000 
     55 C           2.6993  -16.0017  -44.0957 C.2       3 UNK         0.5000 
     56 O           1.5274  -16.1518  -43.7420 O.2       3 UNK        -0.5000 
     57 CA          3.5926  -17.2227  -44.3650 C.3       3 UNK         0.1400 
     58 CB          2.8756  -18.5541  -44.0839 C.3       3 UNK        -0.1800 
     59 N           4.0203  -17.1896  -45.7597 N.am      3 UNK        -0.5000 
     60 C           5.2788  -17.0209  -46.1835 C.2       2 UNK         0.5000 
     61 O           6.2538  -16.9479  -45.4352 O.2       2 UNK        -0.5000 
     62 CA          5.4770  -16.8802  -47.7058 C.3       2 UNK         0.1400 
     63 CB          5.8195  -18.2415  -48.3295 C.3       2 UNK        -0.1800 
     64 N           4.3117  -16.3166  -48.3977 N.am      2 UNK        -0.5000 
     65 C           3.8631  -15.0606  -48.2413 C.2       1 UNK         0.5000 
     66 O           4.4039  -14.2511  -47.4863 O.2       1 UNK        -0.5000 
     67 C          -0.0716  -22.5547  -47.4432 C.2       11 UNK         0.5000 
     68 O           0.2761  -23.5853  -48.0174 O.2       11 UNK        -0.5000 
     69 N          -1.3464  -22.1533  -47.3348 N.am      12 UNK        -0.5000 
     70 CA         -2.5053  -22.8799  -47.8516 C.3       12 UNK         0.1400 
     71 CB         -3.7681  -22.0308  -47.6458 C.3       12 UNK        -0.1800 
     72 C          -2.6760  -24.2787  -47.2293 C.2       12 UNK         0.5000 
     73 O          -3.0772  -25.2072  -47.9283 O.2       12 UNK        -0.5000 
     74 N          -2.3452  -24.4207  -45.9399 N.am      13 UNK        -0.5000 
     75 CA         -2.3178  -25.7067  -45.2455 C.3       13 UNK         0.1400 
     76 CB         -2.2263  -25.4707  -43.7302 C.3       13 UNK        -0.1800 
     77 C          -1.1707  -26.6152  -45.7306 C.2       13 UNK         0.5000 
     78 O          -1.3895  -27.8097  -45.9354 O.2       13 UNK        -0.5000 
     79 N           0.0280  -26.0398  -45.8947 N.am      14 UNK        -0.5000 
     80 CA          1.2491  -26.7635  -46.2460 C.3       14 UNK         0.1400 
     81 CB          2.4688  -25.9189  -45.8447 C.3       14 UNK        -0.1800 
     82 C           1.3396  -27.1545  -47.7319 C.2       14 UNK         0.5000 
     83 O           1.7200  -28.2868  -48.0327 O.2       14 UNK        -0.5000 
     84 N           1.0316  -26.2096  -48.6286 N.am      15 UNK        -0.5000 
     85 CA          1.3080  -26.2987  -50.0664 C.3       15 UNK         0.1400 
     86 CB          2.2833  -25.1685  -50.4414 C.3       15 UNK        -0.1800 
     87 C           0.0337  -26.2615  -50.9322 C.2       15 UNK         0.5000 
     88 O           0.1418  -26.0739  -52.1452 O.2       15 UNK        -0.5000 
     89 N          -1.1318  -26.4657  -50.3021 N.am      16 UNK        -0.5000 
     90 CA         -2.4940  -26.4225  -50.8490 C.3       16 UNK         0.1400 
     91 CB         -2.6620  -27.3239  -52.0891 C.3       16 UNK        -0.1800 
     92 C          -2.9896  -24.9874  -51.1155 C.2       16 UNK         0.5000 
     93 O          -2.2045  -24.0790  -51.3969 O.2       16 UNK        -0.5000 
     94 N          -4.3078  -24.8046  -50.9812 N.am      17 UNK        -0.5000 
     95 CA         -4.9819  -23.5167  -51.0870 C.3       17 UNK         0.1400 
     96 CB         -6.3427  -23.6017  -50.3753 C.3       17 UNK        -0.1800 
     97 C          -5.1411  -23.0856  -52.5534 C.2       17 UNK         0.5000 
     98 O          -6.0303  -23.5844  -53.2465 O.2       17 UNK        -0.5000 
     99 N          -4.2910  -22.1512  -52.9942 N.am      18 UNK        -0.5000 
    100 CA        -4.4305  -21.4275  -54.2556 C.3       18 UNK         0.1400 
    101 CB        -3.0858  -20.7660  -54.6066 C.3       18 UNK        -0.1800 
    102 C         -5.5662  -20.3960  -54.1233 C.2       18 UNK         0.5000 
    103 O         -5.3161  -19.2550  -53.7327 O.2       18 UNK        -0.5000 
    104 N         -6.8033  -20.8291  -54.3967 N.am      19 UNK        -0.5000 
    105 CA        -8.0500  -20.0879  -54.1631 C.3       19 UNK         0.1400 
    106 CB        -9.2361  -20.9964  -54.5207 C.3       19 UNK        -0.1800 
    107 C         -8.1671  -18.7341  -54.8942 C.2       19 UNK         0.5000 
    108 O         -8.9619  -17.8908  -54.4790 O.2       19 UNK        -0.5000 
    109 N         -7.3692  -18.5381  -55.9524 N.am      20 UNK        -0.5000 
    110 CA        -7.2224  -17.2654  -56.6601 C.3       20 UNK         0.1400 
    111 CB        -6.4755  -17.5145  -57.9795 C.3       20 UNK        -0.1800 
    112 C         -6.4973  -16.1877  -55.8261 C.2       20 UNK         0.5000 
    113 O         -6.7215  -14.9990  -56.0589 O.2       20 UNK        -0.5000 
    114 N         -5.6479  -16.6158  -54.8824 N.am      21 UNK        -0.5000 
    115 CA        -4.9111  -15.7563  -53.9596 C.3       21 UNK         0.1400 
    116 CB        -3.4370  -16.1904  -53.9331 C.3       21 UNK        -0.1800 
    117 C         -5.5373  -15.8183  -52.5574 C.2       21 UNK         0.5000 
    118 O         -5.8700  -14.7741  -51.9944 O.2       21 UNK        -0.5000 
    119 N         -5.7243  -17.0360  -52.0328 N.am      22 UNK        -0.5000 
    120 CA        -6.3841  -17.3117  -50.7470 C.3       22 UNK         0.1400 
    121 C         -7.9290  -17.3513  -50.9137 C.2       22 UNK         0.5000 
    122 N         -8.5482  -16.2344  -51.2708 N.am      22 UNK        -0.7600 
    123 O         -8.5706  -18.3824  -50.7296 O.2       22 UNK        -0.5000 
    124 C124       -5.8172  -18.5812  -50.0549 C.3       23 UNK        -0.0398 
    125 S125       -4.0673  -18.3878  -49.5705 S.3       23 UNK        -0.2404 
    126 C126       -3.2689  -19.4683  -50.7911 C.3       23 UNK        -0.0205 
    127 H127       -0.1226  -13.2042  -46.4944 H         1 UNK         0.0600 
    128 H128       -0.4321  -11.7730  -47.4782 H         1 UNK         0.0600 
    129 H129        0.7460  -11.6999  -46.1657 H         1 UNK         0.0600 
    130 H130        1.0748  -14.6963  -47.6106 H         1 UNK         0.3000 
    131 H131        2.9688  -13.8658  -49.7445 H         1 UNK         0.0600 
    132 H132        2.7358  -16.2004  -50.5571 H         1 UNK         0.0800 
    133 H133        1.6112  -16.5684  -49.2599 H         1 UNK         0.0800 
    134 H134       -0.1317  -16.1757  -52.9894 H         1 UNK         0.0800 
    135 H135        1.5245  -16.6088  -52.6563 H         1 UNK         0.0800 
    136 H136       -2.0130  -17.2496  -51.7017 H         1 UNK         0.1150 
    137 H137       -1.2138  -21.1464  -50.1175 H         1 UNK         0.1150 
    138 H138        2.0291  -18.6344  -51.3633 H         1 UNK         0.1150 
    139 H139        0.9875  -22.0250  -50.1112 H         1 UNK         0.0800 
    140 H140        2.1648  -21.2784  -51.1514 H         1 UNK         0.0800 
    141 H141        1.7347  -19.6498  -46.8769 H         1 UNK         0.0800 
    142 H142        0.4019  -19.9303  -47.9467 H         1 UNK         0.0800 
    143 H143        1.8993  -22.2720  -46.6555 H         1 UNK         0.0600 
    144 H144        0.2140  -20.4525  -45.1917 H         1 UNK         0.3000 
    145 H145       -0.7205  -22.6634  -42.6179 H         1 UNK         0.0600 
    146 H146        0.4298  -21.0601  -41.1219 H         1 UNK         0.0600 
    147 H147        1.5964  -22.1271  -41.8877 H         1 UNK         0.0600 
    148 H148        1.4136  -20.4766  -42.4618 H         1 UNK         0.0600 
    149 H149       -0.9196  -19.8072  -43.0144 H         1 UNK         0.3000 
    150 H150       -3.9063  -19.9160  -44.9569 H         1 UNK         0.0600 
    151 H151       -4.7608  -20.1097  -42.6615 H         1 UNK         0.0600 
    152 H152       -4.6623  -18.4100  -43.0985 H         1 UNK         0.0600 
    153 H153       -3.4489  -19.1231  -42.0350 H         1 UNK         0.0600 
    154 H154       -2.4016  -17.7256  -43.9447 H         1 UNK         0.3000 
    155 H155        0.1508  -17.5573  -45.9851 H         1 UNK         0.0600 
    156 H156       -0.5309  -15.8902  -47.7512 H         1 UNK         0.0600 
    157 H157       -2.1596  -16.5564  -47.7168 H         1 UNK         0.0600 
    158 H158       -0.8137  -17.5565  -48.2246 H         1 UNK         0.0600 
    159 H159       -0.2197  -16.0142  -44.4926 H         1 UNK         0.3000 
    160 H160       -1.3778  -13.4879  -44.1295 H         1 UNK         0.0600 
    161 H161       -3.9642  -14.5801  -42.8997 H         1 UNK         0.0600 
    162 H162       -3.8351  -13.2705  -44.0662 H         1 UNK         0.0600 
    163 H163       -3.1843  -13.0645  -42.4489 H         1 UNK         0.0600 
    164 H164       -0.3597  -14.3203  -42.3567 H         1 UNK         0.3000 
    165 H165       -0.9211  -16.3219  -39.8578 H         1 UNK         0.0600 
    166 H166        0.4239  -18.0322  -42.0198 H         1 UNK         0.0600 
    167 H167        0.7359  -18.1780  -40.2911 H         1 UNK         0.0600 
    168 H168       -0.8582  -18.5429  -40.9270 H         1 UNK         0.0600 
    169 H169        1.3830  -15.7176  -41.6575 H         1 UNK         0.3000 
    170 H170        2.1260  -12.7242  -40.0224 H         1 UNK         0.0600 
    171 H171        3.2567  -14.2243  -38.3721 H         1 UNK         0.0600 
    172 H172        3.7817  -15.2838  -39.6751 H         1 UNK         0.0600 
    173 H173        4.3941  -13.6322  -39.5715 H         1 UNK         0.0600 
    174 H174        3.6112  -14.2534  -41.9176 H         1 UNK         0.3000 
    175 H175        1.7105  -13.5260  -44.8060 H         1 UNK         0.0600 
    176 H176        4.4163  -12.3523  -43.9699 H         1 UNK         0.0600 
    177 H177        3.7866  -12.4641  -45.6133 H         1 UNK         0.0600 
    178 H178        3.0133  -11.4042  -44.4506 H         1 UNK         0.0600 
    179 H179        4.2106  -14.7623  -44.6359 H         1 UNK         0.3000 
    180 H180        4.4482  -17.1521  -43.6904 H         1 UNK         0.0600 
    181 H181        1.9551  -18.6548  -44.6580 H         1 UNK         0.0600 
    182 H182        2.6182  -18.6238  -43.0274 H         1 UNK         0.0600 
    183 H183        3.5138  -19.4057  -44.3200 H         1 UNK         0.0600 
    184 H184        3.2885  -17.2031  -46.4537 H         1 UNK         0.3000 
    185 H185        6.3226  -16.2081  -47.8667 H         1 UNK         0.0600 
    186 H186        6.7086  -18.6707  -47.8655 H         1 UNK         0.0600 
    187 H187        5.0072  -18.9578  -48.2038 H         1 UNK         0.0600 
    188 H188        6.0244  -18.1485  -49.3962 H         1 UNK         0.0600 
    189 H189        3.8420  -16.9351  -49.0417 H         1 UNK         0.3000 
    190 H190       -1.5386  -21.2609  -46.8850 H         1 UNK         0.3000 
    191 H191       -2.3528  -23.0114  -48.9231 H         1 UNK         0.0600 
    192 H192       -3.6688  -21.0540  -48.1177 H         1 UNK         0.0600 
    193 H193       -4.6428  -22.5170  -48.0761 H         1 UNK         0.0600 
    194 H194       -3.9756  -21.8674  -46.5889 H         1 UNK         0.0600 
    195 H195       -2.1125  -23.5948  -45.4005 H         1 UNK         0.3000 
    196 H196       -3.2597  -26.2214  -45.4473 H         1 UNK         0.0600 
    197 H197       -2.2569  -26.4157  -43.1866 H         1 UNK         0.0600 
    198 H198       -3.0587  -24.8630  -43.3747 H         1 UNK         0.0600 
    199 H199       -1.3013  -24.9646  -43.4543 H         1 UNK         0.0600 
    200 H200        0.1354  -25.0560  -45.6711 H         1 UNK         0.3000 
    201 H201        1.2796  -27.6852  -45.6608 H         1 UNK         0.0600 
    202 H202        2.4764  -25.7242  -44.7721 H         1 UNK         0.0600 
    203 H203        2.4785  -24.9565  -46.3584 H         1 UNK         0.0600 
    204 H204        3.3999  -26.4323  -46.0883 H         1 UNK         0.0600 
    205 H205        0.7137  -25.2975  -48.2998 H         1 UNK         0.3000 
    206 H206        1.7995  -27.2448  -50.3005 H         1 UNK         0.0600 
    207 H207        3.1943  -25.2200  -49.8450 H         1 UNK         0.0600 
    208 H208        2.5798  -25.2297  -51.4891 H         1 UNK         0.0600 
    209 H209        1.8356  -24.1884  -50.2824 H         1 UNK         0.0600 
    210 H210       -1.0847  -26.5722  -49.2982 H         1 UNK         0.3000 
    211 H211       -3.1230  -26.8412  -50.0620 H         1 UNK         0.0600 
    212 H212       -2.1584  -26.9155  -52.9654 H         1 UNK         0.0600 
    213 H213       -3.7156  -27.4311  -52.3487 H         1 UNK         0.0600 
    214 H214       -2.2691  -28.3245  -51.9085 H         1 UNK         0.0600 
    215 H215       -4.8947  -25.5987  -50.7712 H         1 UNK         0.3000 
    216 H216       -4.3861  -22.7666  -50.5639 H         1 UNK         0.0600 
    217 H217       -6.2243  -23.8666  -49.3246 H         1 UNK         0.0600 
    218 H218       -6.9949  -24.3467  -50.8328 H         1 UNK         0.0600 
    219 H219       -6.8620  -22.6431  -50.4131 H         1 UNK         0.0600 
    220 H220       -3.5417  -21.8510  -52.3888 H         1 UNK         0.3000 
    221 H221       -4.6824  -22.1292  -55.0535 H         1 UNK         0.0600 
    222 H222       -2.7489  -20.0774  -53.8312 H         1 UNK         0.0600 
    223 H223       -2.3056  -21.5145  -54.7461 H         1 UNK         0.0600 
    224 H224       -3.1619  -20.1992  -55.5353 H         1 UNK         0.0600 
    225 H225       -6.9122  -21.7991  -54.6614 H         1 UNK         0.3000 
    226 H226       -8.0986  -19.8726  -53.0939 H         1 UNK         0.0600 
    227 H227      -10.1860  -20.4972  -54.3242 H         1 UNK         0.0600 
    228 H228       -9.2232  -21.2761  -55.5748 H         1 UNK         0.0600 
    229 H229       -9.2244  -21.9120  -53.9289 H         1 UNK         0.0600 
    230 H230       -6.7591  -19.2905  -56.2350 H         1 UNK         0.3000 
    231 H231       -8.2192  -16.8869  -56.8964 H         1 UNK         0.0600 
    232 H232       -6.3709  -16.5903  -58.5493 H         1 UNK         0.0600 
    233 H233       -7.0124  -18.2240  -58.6094 H         1 UNK         0.0600 
    234 H234       -5.4732  -17.9085  -57.8064 H         1 UNK         0.0600 
    235 H235       -5.5622  -17.6140  -54.7205 H         1 UNK         0.3000 
    236 H236       -4.9451  -14.7170  -54.2931 H         1 UNK         0.0600 
    237 H237       -2.9735  -16.0576  -54.9106 H         1 UNK         0.0600 
    238 H238       -2.8668  -15.5939  -53.2199 H         1 UNK         0.0600 
    239 H239       -3.3283  -17.2396  -53.6565 H         1 UNK         0.0600 
    240 H240       -5.4798  -17.8505  -52.5898 H         1 UNK         0.3000 
    241 H241       -6.1835  -16.4804  -50.0680 H         1 UNK         0.0600 
    242 H242       -9.5474  -16.2371  -51.4013 H         1 UNK         0.3800 
    243 H243       -8.0140  -15.3960  -51.4540 H         1 UNK         0.3800 
    244 H244       -5.9408  -19.4565  -50.6950 H         1 UNK         0.0800 
    245 H245       -6.3766  -18.7946  -49.1425 H         1 UNK         0.0800 
    246 H246       -3.4774  -20.5071  -50.5373 H         1 UNK         0.0800 
    247 H247       -3.7099  -19.2858  -51.7684 H         1 UNK         0.0800 
@<TRIPOS>BOND
     1    1    2 1    
     2    1  127 1    
     3    1  128 1    
     4    1  129 1    
     5    2    3 2    
     6    2    4 am   BACKBONE|DICT|INTERRES
     7    4    5 1    
     8    4  130 1    
     9    5    6 1    
    10    5   65 1    
    11    5  131 1    
    12    6    7 1    
    13    6  132 1    
    14    6  133 1    
    15    7    8 1    
    16    8    9 1    
    17    8  134 1    
    18    8  135 1    
    19    9   10 ar   
    20    9   14 ar   
    21   10   11 ar   
    22   10  136 1    
    23   11   12 ar   
    24   11  126 1    
    25   12   13 ar   
    26   12  137 1    
    27   13   14 ar   
    28   13   15 1    
    29   14  138 1    
    30   15   16 1    
    31   15  139 1    
    32   15  140 1    
    33   16   17 1    
    34   17   18 1    
    35   17  141 1    
    36   17  142 1    
    37   18   19 1    
    38   18   67 1    
    39   18  143 1    
    40   19   20 am   BACKBONE|DICT|INTERRES
    41   19  144 1    
    42   20   21 2    
    43   20   22 1    
    44   22   23 1    
    45   22   24 1    
    46   22  145 1    
    47   23  146 1    
    48   23  147 1    
    49   23  148 1    
    50   24   25 am   BACKBONE|DICT|INTERRES
    51   24  149 1    
    52   25   26 2    
    53   25   27 1    
    54   27   28 1    
    55   27   29 1    
    56   27  150 1    
    57   28  151 1    
    58   28  152 1    
    59   28  153 1    
    60   29   30 am   BACKBONE|DICT|INTERRES
    61   29  154 1    
    62   30   31 2    
    63   30   32 1    
    64   32   33 1    
    65   32   34 1    
    66   32  155 1    
    67   33  156 1    
    68   33  157 1    
    69   33  158 1    
    70   34   35 am   BACKBONE|DICT|INTERRES
    71   34  159 1    
    72   35   36 2    
    73   35   37 1    
    74   37   38 1    
    75   37   39 1    
    76   37  160 1    
    77   38  161 1    
    78   38  162 1    
    79   38  163 1    
    80   39   40 am   BACKBONE|DICT|INTERRES
    81   39  164 1    
    82   40   41 2    
    83   40   42 1    
    84   42   43 1    
    85   42   44 1    
    86   42  165 1    
    87   43  166 1    
    88   43  167 1    
    89   43  168 1    
    90   44   45 am   BACKBONE|DICT|INTERRES
    91   44  169 1    
    92   45   46 2    
    93   45   47 1    
    94   47   48 1    
    95   47   49 1    
    96   47  170 1    
    97   48  171 1    
    98   48  172 1    
    99   48  173 1    
   100   49   50 am   BACKBONE|DICT|INTERRES
   101   49  174 1    
   102   50   51 2    
   103   50   52 1    
   104   52   53 1    
   105   52   54 1    
   106   52  175 1    
   107   53  176 1    
   108   53  177 1    
   109   53  178 1    
   110   54   55 am   BACKBONE|DICT|INTERRES
   111   54  179 1    
   112   55   56 2    
   113   55   57 1    
   114   57   58 1    
   115   57   59 1    
   116   57  180 1    
   117   58  181 1    
   118   58  182 1    
   119   58  183 1    
   120   59   60 am   BACKBONE|DICT|INTERRES
   121   59  184 1    
   122   60   61 2    
   123   60   62 1    
   124   62   63 1    
   125   62   64 1    
   126   62  185 1    
   127   63  186 1    
   128   63  187 1    
   129   63  188 1    
   130   64   65 am   BACKBONE|DICT|INTERRES
   131   64  189 1    
   132   65   66 2    
   133   67   68 2    
   134   67   69 am   BACKBONE|DICT|INTERRES
   135   69   70 1    
   136   69  190 1    
   137   70   71 1    
   138   70   72 1    
   139   70  191 1    
   140   71  192 1    
   141   71  193 1    
   142   71  194 1    
   143   72   73 2    
   144   72   74 am   BACKBONE|DICT|INTERRES
   145   74   75 1    
   146   74  195 1    
   147   75   76 1    
   148   75   77 1    
   149   75  196 1    
   150   76  197 1    
   151   76  198 1    
   152   76  199 1    
   153   77   78 2    
   154   77   79 am   BACKBONE|DICT|INTERRES
   155   79   80 1    
   156   79  200 1    
   157   80   81 1    
   158   80   82 1    
   159   80  201 1    
   160   81  202 1    
   161   81  203 1    
   162   81  204 1    
   163   82   83 2    
   164   82   84 am   BACKBONE|DICT|INTERRES
   165   84   85 1    
   166   84  205 1    
   167   85   86 1    
   168   85   87 1    
   169   85  206 1    
   170   86  207 1    
   171   86  208 1    
   172   86  209 1    
   173   87   88 2    
   174   87   89 am   BACKBONE|DICT|INTERRES
   175   89   90 1    
   176   89  210 1    
   177   90   91 1    
   178   90   92 1    
   179   90  211 1    
   180   91  212 1    
   181   91  213 1    
   182   91  214 1    
   183   92   93 2    
   184   92   94 am   BACKBONE|DICT|INTERRES
   185   94   95 1    
   186   94  215 1    
   187   95   96 1    
   188   95   97 1    
   189   95  216 1    
   190   96  217 1    
   191   96  218 1    
   192   96  219 1    
   193   97   98 2    
   194   97   99 am   BACKBONE|DICT|INTERRES
   195   99  100 1    
   196   99  220 1    
   197  100  101 1    
   198  100  102 1    
   199  100  221 1    
   200  101  222 1    
   201  101  223 1    
   202  101  224 1    
   203  102  103 2    
   204  102  104 am   BACKBONE|DICT|INTERRES
   205  104  105 1    
   206  104  225 1    
   207  105  106 1    
   208  105  107 1    
   209  105  226 1    
   210  106  227 1    
   211  106  228 1    
   212  106  229 1    
   213  107  108 2    
   214  107  109 am   BACKBONE|DICT|INTERRES
   215  109  110 1    
   216  109  230 1    
   217  110  111 1    
   218  110  112 1    
   219  110  231 1    
   220  111  232 1    
   221  111  233 1    
   222  111  234 1    
   223  112  113 2    
   224  112  114 am   BACKBONE|DICT|INTERRES
   225  114  115 1    
   226  114  235 1    
   227  115  116 1    
   228  115  117 1    
   229  115  236 1    
   230  116  237 1    
   231  116  238 1    
   232  116  239 1    
   233  117  118 2    
   234  117  119 am   BACKBONE|DICT|INTERRES
   235  119  120 1    
   236  119  240 1    
   237  120  121 1    
   238  120  124 1    
   239  120  241 1    
   240  121  122 am   BACKBONE|DICT|INTERRES
   241  121  123 2    
   242  122  242 1    
   243  122  243 1    
   244  124  125 1    
   245  124  244 1    
   246  124  245 1    
   247  125  126 1    
   248  126  246 1    
   249  126  247 1    
@<TRIPOS>SUBSTRUCTURE
     1 UNK         1 GROUP             0       ****    0 ROOT    
