@<TRIPOS>MOLECULE
3R540
247   249    1
SMALL
USER_CHARGES


@<TRIPOS>ATOM
      1 CA         -2.3705  -10.7108  -42.9668 C.3       0 UNK        -0.1800 
      2 C          -1.7918  -10.6192  -44.3721 C.2       0 UNK         0.5000 
      3 O          -1.3961   -9.5360  -44.8035 O.2       0 UNK        -0.5000 
      4 N          -1.7435  -11.7526  -45.0818 N.am      1 UNK        -0.5000 
      5 CA         -1.1156  -11.8998  -46.4000 C.3       1 UNK         0.1400 
      6 C6         -1.7104  -13.1106  -47.1758 C.3       23 UNK        -0.0398 
      7 S7         -1.7497  -12.8319  -48.9802 S.3       23 UNK        -0.2404 
      8 C8         -3.5266  -12.9770  -49.3549 C.3       23 UNK        -0.0205 
      9 C9         -3.9770  -14.4294  -49.4274 C.ar      23 UNK        -0.0193 
     10 C10        -3.6545  -15.2018  -50.5487 C.ar      23 UNK        -0.1150 
     11 C11        -4.0751  -16.5314  -50.6390 C.ar      23 UNK        -0.0193 
     12 C12        -4.8380  -17.0812  -49.6085 C.ar      23 UNK        -0.1150 
     13 C13        -5.1416  -16.3323  -48.4708 C.ar      23 UNK        -0.0193 
     14 C14        -4.7182  -15.0018  -48.3870 C.ar      23 UNK        -0.1150 
     15 C15        -5.8988  -16.9889  -47.3282 C.3       23 UNK        -0.0205 
     16 S16        -4.8135  -17.4848  -45.9480 S.3       23 UNK        -0.2404 
     17 C17        -3.4052  -18.3411  -46.7501 C.3       23 UNK        -0.0398 
     18 CA         -3.6201  -19.8405  -47.0735 C.3       11 UNK         0.1400 
     19 N          -2.4934  -20.3459  -47.8674 N.am      11 UNK        -0.5000 
     20 C          -2.2364  -21.6168  -48.2106 C.2       10 UNK         0.5000 
     21 O          -3.0176  -22.5485  -48.0285 O.2       10 UNK        -0.5000 
     22 CA         -0.8350  -21.9192  -48.7818 C.3       10 UNK         0.1400 
     23 CB         -0.8823  -22.0988  -50.3063 C.3       10 UNK        -0.1800 
     24 N           0.1780  -20.9131  -48.4392 N.am      10 UNK        -0.5000 
     25 C           0.5371  -20.5648  -47.1950 C.2       9 UNK         0.5000 
     26 O           0.0819  -21.0959  -46.1769 O.2       9 UNK        -0.5000 
     27 CA          1.4722  -19.3505  -47.0872 C.3       9 UNK         0.1400 
     28 CB          0.6777  -18.0635  -47.3693 C.3       9 UNK        -0.1800 
     29 N           2.0610  -19.2661  -45.7533 N.am      9 UNK        -0.5000 
     30 C           3.1715  -19.9111  -45.3704 C.2       8 UNK         0.5000 
     31 O           3.8642  -20.5786  -46.1402 O.2       8 UNK        -0.5000 
     32 CA          3.5839  -19.8090  -43.8881 C.3       8 UNK         0.1400 
     33 CB          5.0100  -19.2555  -43.7275 C.3       8 UNK        -0.1800 
     34 N           2.6610  -18.9735  -43.1177 N.am      8 UNK        -0.5000 
     35 C           1.7526  -19.4465  -42.2546 C.2       7 UNK         0.5000 
     36 O           1.6419  -20.6379  -41.9634 O.2       7 UNK        -0.5000 
     37 CA          0.7972  -18.4299  -41.6026 C.3       7 UNK         0.1400 
     38 CB          1.2937  -18.0594  -40.1977 C.3       7 UNK        -0.1800 
     39 N           0.5891  -17.2144  -42.3961 N.am      7 UNK        -0.5000 
     40 C          -0.0984  -17.1814  -43.5484 C.2       6 UNK         0.5000 
     41 O          -0.5501  -18.1938  -44.0839 O.2       6 UNK        -0.5000 
     42 CA         -0.3124  -15.8262  -44.2525 C.3       6 UNK         0.1400 
     43 CB         -1.8093  -15.5547  -44.5073 C.3       6 UNK        -0.1800 
     44 N           0.3393  -14.6886  -43.5981 N.am      6 UNK        -0.5000 
     45 C          -0.0371  -14.0250  -42.4954 C.2       5 UNK         0.5000 
     46 O          -1.0678  -14.2606  -41.8643 O.2       5 UNK        -0.5000 
     47 CA          0.9372  -12.9256  -42.0162 C.3       5 UNK         0.1400 
     48 CB          0.6624  -12.4643  -40.5691 C.3       5 UNK        -0.1800 
     49 N           2.3456  -13.3146  -42.1869 N.am      5 UNK        -0.5000 
     50 C           2.9408  -14.3777  -41.6253 C.2       4 UNK         0.5000 
     51 O           2.3615  -15.1576  -40.8705 O.2       4 UNK        -0.5000 
     52 CA          4.4145  -14.6208  -42.0039 C.3       4 UNK         0.1400 
     53 CB          4.9822  -15.9201  -41.3908 C.3       4 UNK        -0.1800 
     54 N           4.6473  -14.5972  -43.4530 N.am      4 UNK        -0.5000 
     55 C           4.1195  -15.4198  -44.3716 C.2       3 UNK         0.5000 
     56 O           3.2506  -16.2621  -44.1315 O.2       3 UNK        -0.5000 
     57 CA          4.6820  -15.2468  -45.7972 C.3       3 UNK         0.1400 
     58 CB          4.5309  -16.5107  -46.6696 C.3       3 UNK        -0.1800 
     59 N           4.1228  -14.0662  -46.4641 N.am      3 UNK        -0.5000 
     60 C           2.8454  -13.8706  -46.8178 C.2       2 UNK         0.5000 
     61 O           1.9486  -14.6995  -46.6562 O.2       2 UNK        -0.5000 
     62 CA          2.5261  -12.5182  -47.4903 C.3       2 UNK         0.1400 
     63 CB          2.9447  -12.5395  -48.9688 C.3       2 UNK        -0.1800 
     64 N           1.1014  -12.1895  -47.4159 N.am      2 UNK        -0.5000 
     65 C           0.4262  -11.9875  -46.2785 C.2       1 UNK         0.5000 
     66 O           0.9801  -11.9054  -45.1787 O.2       1 UNK        -0.5000 
     67 C          -3.8435  -20.6567  -45.7805 C.2       11 UNK         0.5000 
     68 O          -4.9741  -21.0546  -45.4997 O.2       11 UNK        -0.5000 
     69 N          -2.7543  -20.9139  -45.0449 N.am      12 UNK        -0.5000 
     70 CA         -2.7591  -21.7024  -43.8180 C.3       12 UNK         0.1400 
     71 CB         -1.8495  -21.0233  -42.7852 C.3       12 UNK        -0.1800 
     72 C          -2.2917  -23.1406  -44.0815 C.2       12 UNK         0.5000 
     73 O          -2.9040  -24.0767  -43.5675 O.2       12 UNK        -0.5000 
     74 N          -1.2200  -23.2977  -44.8723 N.am      13 UNK        -0.5000 
     75 CA         -0.5358  -24.5751  -45.0867 C.3       13 UNK         0.1400 
     76 CB          0.8447  -24.3095  -45.7074 C.3       13 UNK        -0.1800 
     77 C          -1.3281  -25.5901  -45.9325 C.2       13 UNK         0.5000 
     78 O          -1.0954  -26.7916  -45.7934 O.2       13 UNK        -0.5000 
     79 N          -2.2375  -25.1044  -46.7861 N.am      14 UNK        -0.5000 
     80 CA         -3.0603  -25.9158  -47.6841 C.3       14 UNK         0.1400 
     81 CB         -2.4449  -25.8753  -49.0941 C.3       14 UNK        -0.1800 
     82 C          -4.5288  -25.4531  -47.6897 C.2       14 UNK         0.5000 
     83 O          -5.2606  -25.7895  -48.6205 O.2       14 UNK        -0.5000 
     84 N          -4.9344  -24.6622  -46.6827 N.am      15 UNK        -0.5000 
     85 CA         -6.2733  -24.0801  -46.5004 C.3       15 UNK         0.1400 
     86 CB         -7.2777  -25.1836  -46.1078 C.3       15 UNK        -0.1800 
     87 C          -6.7652  -23.2350  -47.7017 C.2       15 UNK         0.5000 
     88 O          -7.9693  -23.1705  -47.9541 O.2       15 UNK        -0.5000 
     89 N          -5.8174  -22.6353  -48.4387 N.am      16 UNK        -0.5000 
     90 CA         -5.9734  -21.8817  -49.6879 C.3       16 UNK         0.1400 
     91 CB         -6.8905  -20.6561  -49.4914 C.3       16 UNK        -0.1800 
     92 C          -6.4074  -22.7369  -50.9001 C.2       16 UNK         0.5000 
     93 O          -6.7118  -22.1677  -51.9493 O.2       16 UNK        -0.5000 
     94 N          -6.4210  -24.0730  -50.7677 N.am      17 UNK        -0.5000 
     95 CA         -6.8265  -24.9967  -51.8308 C.3       17 UNK         0.1400 
     96 CB         -7.1752  -26.3638  -51.2240 C.3       17 UNK        -0.1800 
     97 C          -5.7524  -25.1476  -52.9217 C.2       17 UNK         0.5000 
     98 O          -6.0938  -25.3413  -54.0897 O.2       17 UNK        -0.5000 
     99 N          -4.4745  -25.0265  -52.5356 N.am      18 UNK        -0.5000 
    100 CA        -3.3187  -25.0496  -53.4319 C.3       18 UNK         0.1400 
    101 CB        -2.0732  -25.4946  -52.6455 C.3       18 UNK        -0.1800 
    102 C         -3.1285  -23.6804  -54.1116 C.2       18 UNK         0.5000 
    103 O         -2.1236  -23.0053  -53.8834 O.2       18 UNK        -0.5000 
    104 N         -4.1079  -23.2831  -54.9334 N.am      19 UNK        -0.5000 
    105 CA        -4.1645  -21.9961  -55.6335 C.3       19 UNK         0.1400 
    106 CB        -5.4826  -21.9058  -56.4153 C.3       19 UNK        -0.1800 
    107 C         -2.9628  -21.7339  -56.5621 C.2       19 UNK         0.5000 
    108 O         -2.5431  -20.5849  -56.6993 O.2       19 UNK        -0.5000 
    109 N         -2.4014  -22.8055  -57.1392 N.am      20 UNK        -0.5000 
    110 CA        -1.1908  -22.7751  -57.9622 C.3       20 UNK         0.1400 
    111 CB        -1.0104  -24.1432  -58.6374 C.3       20 UNK        -0.1800 
    112 C          0.0774  -22.3918  -57.1724 C.2       20 UNK         0.5000 
    113 O          0.9856  -21.7918  -57.7488 O.2       20 UNK        -0.5000 
    114 N          0.1149  -22.7319  -55.8763 N.am      21 UNK        -0.5000 
    115 CA         1.1745  -22.3327  -54.9508 C.3       21 UNK         0.1400 
    116 CB         1.3238  -23.3968  -53.8510 C.3       21 UNK        -0.1800 
    117 C          0.8791  -20.9540  -54.3365 C.2       21 UNK         0.5000 
    118 O          1.8002  -20.1532  -54.1724 O.2       21 UNK        -0.5000 
    119 N         -0.3964  -20.7099  -54.0070 N.am      22 UNK        -0.5000 
    120 CA        -0.8927  -19.4573  -53.4216 C.3       22 UNK         0.1400 
    121 C         -0.7976  -18.2255  -54.3663 C.2       22 UNK         0.5000 
    122 N         -1.0754  -18.3718  -55.6557 N.am      22 UNK        -0.7600 
    123 O         -0.4609  -17.1292  -53.9283 O.2       22 UNK        -0.5000 
    124 C124       -2.3293  -19.6314  -52.8610 C.3       23 UNK        -0.0398 
    125 S125       -2.5701  -18.7296  -51.2985 S.3       23 UNK        -0.2404 
    126 C126       -3.6883  -17.3962  -51.8260 C.3       23 UNK        -0.0205 
    127 H127       -1.6386  -10.3638  -42.2374 H         1 UNK         0.0600 
    128 H128       -2.6473  -11.7331  -42.7071 H         1 UNK         0.0600 
    129 H129       -3.2593  -10.0854  -42.8844 H         1 UNK         0.0600 
    130 H130       -2.0653  -12.6070  -44.6529 H         1 UNK         0.3000 
    131 H131       -1.3360  -10.9897  -46.9624 H         1 UNK         0.0600 
    132 H132       -1.1594  -14.0319  -46.9758 H         1 UNK         0.0800 
    133 H133       -2.7304  -13.3052  -46.8427 H         1 UNK         0.0800 
    134 H134       -3.7194  -12.4982  -50.3160 H         1 UNK         0.0800 
    135 H135       -4.1101  -12.4205  -48.6197 H         1 UNK         0.0800 
    136 H136       -3.0650  -14.7679  -51.3443 H         1 UNK         0.1150 
    137 H137       -5.1531  -18.1130  -49.6742 H         1 UNK         0.1150 
    138 H138       -4.9571  -14.4197  -47.5081 H         1 UNK         0.1150 
    139 H139       -6.6557  -16.2998  -46.9510 H         1 UNK         0.0800 
    140 H140       -6.4414  -17.8657  -47.6831 H         1 UNK         0.0800 
    141 H141       -2.5508  -18.2432  -46.0794 H         1 UNK         0.0800 
    142 H142       -3.1110  -17.7971  -47.6463 H         1 UNK         0.0800 
    143 H143       -4.5121  -19.9378  -47.6916 H         1 UNK         0.0600 
    144 H144       -1.7851  -19.6664  -48.0975 H         1 UNK         0.3000 
    145 H145       -0.5240  -22.8694  -48.3462 H         1 UNK         0.0600 
    146 H146        0.0256  -22.5773  -50.6738 H         1 UNK         0.0600 
    147 H147       -1.7234  -22.7219  -50.6118 H         1 UNK         0.0600 
    148 H148       -0.9801  -21.1439  -50.8177 H         1 UNK         0.0600 
    149 H149        0.5928  -20.4219  -49.2178 H         1 UNK         0.3000 
    150 H150        2.2647  -19.4443  -47.8326 H         1 UNK         0.0600 
    151 H151        0.2992  -18.0472  -48.3920 H         1 UNK         0.0600 
    152 H152        1.2976  -17.1778  -47.2479 H         1 UNK         0.0600 
    153 H153       -0.1788  -17.9608  -46.7041 H         1 UNK         0.0600 
    154 H154        1.4957  -18.8216  -45.0430 H         1 UNK         0.3000 
    155 H155        3.5872  -20.8303  -43.5024 H         1 UNK         0.0600 
    156 H156        5.0922  -18.2312  -44.0853 H         1 UNK         0.0600 
    157 H157        5.7319  -19.8566  -44.2816 H         1 UNK         0.0600 
    158 H158        5.3167  -19.2655  -42.6816 H         1 UNK         0.0600 
    159 H159        2.6943  -17.9760  -43.3142 H         1 UNK         0.3000 
    160 H160       -0.1728  -18.9178  -41.4909 H         1 UNK         0.0600 
    161 H161        2.3121  -17.6707  -40.2210 H         1 UNK         0.0600 
    162 H162        1.2971  -18.9335  -39.5456 H         1 UNK         0.0600 
    163 H163        0.6544  -17.3083  -39.7334 H         1 UNK         0.0600 
    164 H164        0.9810  -16.3570  -42.0245 H         1 UNK         0.3000 
    165 H165        0.1730  -15.9122  -45.2238 H         1 UNK         0.0600 
    166 H166       -2.0023  -14.5099  -44.7348 H         1 UNK         0.0600 
    167 H167       -2.4229  -15.8204  -43.6454 H         1 UNK         0.0600 
    168 H168       -2.1646  -16.1355  -45.3550 H         1 UNK         0.0600 
    169 H169        1.2168  -14.4171  -44.0221 H         1 UNK         0.3000 
    170 H170        0.7692  -12.0617  -42.6580 H         1 UNK         0.0600 
    171 H171       -0.3413  -12.0474  -40.4776 H         1 UNK         0.0600 
    172 H172        0.7390  -13.2862  -39.8568 H         1 UNK         0.0600 
    173 H173        1.3636  -11.6881  -40.2630 H         1 UNK         0.0600 
    174 H174        2.8843  -12.7433  -42.8231 H         1 UNK         0.3000 
    175 H175        4.9786  -13.7869  -41.5839 H         1 UNK         0.0600 
    176 H176        4.4380  -16.8024  -41.7293 H         1 UNK         0.0600 
    177 H177        6.0318  -16.0545  -41.6518 H         1 UNK         0.0600 
    178 H178        4.9195  -15.8979  -40.3022 H         1 UNK         0.0600 
    179 H179        5.3250  -13.9159  -43.7655 H         1 UNK         0.3000 
    180 H180        5.7528  -15.0618  -45.6983 H         1 UNK         0.0600 
    181 H181        3.4952  -16.8350  -46.7489 H         1 UNK         0.0600 
    182 H182        5.0974  -17.3424  -46.2521 H         1 UNK         0.0600 
    183 H183        4.9053  -16.3407  -47.6788 H         1 UNK         0.0600 
    184 H184        4.7821  -13.3212  -46.6414 H         1 UNK         0.3000 
    185 H185        3.0837  -11.7340  -46.9742 H         1 UNK         0.0600 
    186 H186        4.0107  -12.7449  -49.0744 H         1 UNK         0.0600 
    187 H187        2.4062  -13.3069  -49.5267 H         1 UNK         0.0600 
    188 H188        2.7523  -11.5792  -49.4477 H         1 UNK         0.0600 
    189 H189        0.5744  -12.2897  -48.2725 H         1 UNK         0.3000 
    190 H190       -1.8495  -20.5887  -45.3653 H         1 UNK         0.3000 
    191 H191       -3.7656  -21.7472  -43.3965 H         1 UNK         0.0600 
    192 H192       -1.8113  -21.5930  -41.8560 H         1 UNK         0.0600 
    193 H193       -2.2114  -20.0240  -42.5426 H         1 UNK         0.0600 
    194 H194       -0.8288  -20.9263  -43.1563 H         1 UNK         0.0600 
    195 H195       -0.7692  -22.4757  -45.2676 H         1 UNK         0.3000 
    196 H196       -0.3756  -25.0316  -44.1076 H         1 UNK         0.0600 
    197 H197        0.7653  -23.8573  -46.6951 H         1 UNK         0.0600 
    198 H198        1.4364  -23.6406  -45.0818 H         1 UNK         0.0600 
    199 H199        1.4091  -25.2364  -45.8165 H         1 UNK         0.0600 
    200 H200       -2.3648  -24.1017  -46.8653 H         1 UNK         0.3000 
    201 H201       -3.0775  -26.9536  -47.3464 H         1 UNK         0.0600 
    202 H202       -2.4605  -24.8653  -49.5033 H         1 UNK         0.0600 
    203 H203       -2.9915  -26.5211  -49.7821 H         1 UNK         0.0600 
    204 H204       -1.4100  -26.2172  -49.0846 H         1 UNK         0.0600 
    205 H205       -4.2625  -24.4423  -45.9614 H         1 UNK         0.3000 
    206 H206       -6.1972  -23.3940  -45.6568 H         1 UNK         0.0600 
    207 H207       -6.9199  -25.7560  -45.2520 H         1 UNK         0.0600 
    208 H208       -8.2419  -24.7570  -45.8292 H         1 UNK         0.0600 
    209 H209       -7.4523  -25.8804  -46.9283 H         1 UNK         0.0600 
    210 H210       -4.8509  -22.7602  -48.1446 H         1 UNK         0.3000 
    211 H211       -4.9773  -21.5076  -49.9286 H         1 UNK         0.0600 
    212 H212       -6.8063  -19.9679  -50.3333 H         1 UNK         0.0600 
    213 H213       -6.6334  -20.1022  -48.5903 H         1 UNK         0.0600 
    214 H214       -7.9390  -20.9446  -49.4138 H         1 UNK         0.0600 
    215 H215       -6.1398  -24.4922  -49.8866 H         1 UNK         0.3000 
    216 H216       -7.7281  -24.6011  -52.3033 H         1 UNK         0.0600 
    217 H217       -6.2981  -26.8547  -50.8014 H         1 UNK         0.0600 
    218 H218       -7.5869  -27.0308  -51.9824 H         1 UNK         0.0600 
    219 H219       -7.9203  -26.2684  -50.4339 H         1 UNK         0.0600 
    220 H220       -4.2905  -24.8396  -51.5614 H         1 UNK         0.3000 
    221 H221       -3.4902  -25.7862  -54.2197 H         1 UNK         0.0600 
    222 H222       -2.2194  -26.4772  -52.1974 H         1 UNK         0.0600 
    223 H223       -1.8236  -24.7939  -51.8494 H         1 UNK         0.0600 
    224 H224       -1.2043  -25.5654  -53.3009 H         1 UNK         0.0600 
    225 H225       -4.9139  -23.8913  -55.0282 H         1 UNK         0.3000 
    226 H226       -4.1662  -21.2125  -54.8739 H         1 UNK         0.0600 
    227 H227       -5.5585  -22.6913  -57.1683 H         1 UNK         0.0600 
    228 H228       -6.3415  -21.9945  -55.7495 H         1 UNK         0.0600 
    229 H229       -5.5682  -20.9473  -56.9291 H         1 UNK         0.0600 
    230 H230       -2.8157  -23.7105  -56.9715 H         1 UNK         0.3000 
    231 H231       -1.3326  -22.0242  -58.7424 H         1 UNK         0.0600 
    232 H232       -0.8858  -24.9410  -57.9041 H         1 UNK         0.0600 
    233 H233       -0.1293  -24.1480  -59.2805 H         1 UNK         0.0600 
    234 H234       -1.8684  -24.3912  -59.2625 H         1 UNK         0.0600 
    235 H235       -0.6949  -23.1760  -55.4636 H         1 UNK         0.3000 
    236 H236        2.1240  -22.2698  -55.4869 H         1 UNK         0.0600 
    237 H237        1.5456  -24.3754  -54.2768 H         1 UNK         0.0600 
    238 H238        2.1410  -23.1432  -53.1747 H         1 UNK         0.0600 
    239 H239        0.4204  -23.4910  -53.2480 H         1 UNK         0.0600 
    240 H240       -1.0741  -21.4572  -54.1222 H         1 UNK         0.3000 
    241 H241       -0.2243  -19.2515  -52.5828 H         1 UNK         0.0600 
    242 H242       -1.0049  -17.5756  -56.2685 H         1 UNK         0.3800 
    243 H243       -1.4328  -19.2516  -56.0209 H         1 UNK         0.3800 
    244 H244       -2.5282  -20.6788  -52.6324 H         1 UNK         0.0800 
    245 H245       -3.0891  -19.3505  -53.5925 H         1 UNK         0.0800 
    246 H246       -4.5886  -17.8235  -52.2700 H         1 UNK         0.0800 
    247 H247       -3.2025  -16.8008  -52.6008 H         1 UNK         0.0800 
@<TRIPOS>BOND
     1    1    2 1    
     2    1  127 1    
     3    1  128 1    
     4    1  129 1    
     5    2    3 2    
     6    2    4 am   BACKBONE|DICT|INTERRES
     7    4    5 1    
     8    4  130 1    
     9    5    6 1    
    10    5   65 1    
    11    5  131 1    
    12    6    7 1    
    13    6  132 1    
    14    6  133 1    
    15    7    8 1    
    16    8    9 1    
    17    8  134 1    
    18    8  135 1    
    19    9   10 ar   
    20    9   14 ar   
    21   10   11 ar   
    22   10  136 1    
    23   11   12 ar   
    24   11  126 1    
    25   12   13 ar   
    26   12  137 1    
    27   13   14 ar   
    28   13   15 1    
    29   14  138 1    
    30   15   16 1    
    31   15  139 1    
    32   15  140 1    
    33   16   17 1    
    34   17   18 1    
    35   17  141 1    
    36   17  142 1    
    37   18   19 1    
    38   18   67 1    
    39   18  143 1    
    40   19   20 am   BACKBONE|DICT|INTERRES
    41   19  144 1    
    42   20   21 2    
    43   20   22 1    
    44   22   23 1    
    45   22   24 1    
    46   22  145 1    
    47   23  146 1    
    48   23  147 1    
    49   23  148 1    
    50   24   25 am   BACKBONE|DICT|INTERRES
    51   24  149 1    
    52   25   26 2    
    53   25   27 1    
    54   27   28 1    
    55   27   29 1    
    56   27  150 1    
    57   28  151 1    
    58   28  152 1    
    59   28  153 1    
    60   29   30 am   BACKBONE|DICT|INTERRES
    61   29  154 1    
    62   30   31 2    
    63   30   32 1    
    64   32   33 1    
    65   32   34 1    
    66   32  155 1    
    67   33  156 1    
    68   33  157 1    
    69   33  158 1    
    70   34   35 am   BACKBONE|DICT|INTERRES
    71   34  159 1    
    72   35   36 2    
    73   35   37 1    
    74   37   38 1    
    75   37   39 1    
    76   37  160 1    
    77   38  161 1    
    78   38  162 1    
    79   38  163 1    
    80   39   40 am   BACKBONE|DICT|INTERRES
    81   39  164 1    
    82   40   41 2    
    83   40   42 1    
    84   42   43 1    
    85   42   44 1    
    86   42  165 1    
    87   43  166 1    
    88   43  167 1    
    89   43  168 1    
    90   44   45 am   BACKBONE|DICT|INTERRES
    91   44  169 1    
    92   45   46 2    
    93   45   47 1    
    94   47   48 1    
    95   47   49 1    
    96   47  170 1    
    97   48  171 1    
    98   48  172 1    
    99   48  173 1    
   100   49   50 am   BACKBONE|DICT|INTERRES
   101   49  174 1    
   102   50   51 2    
   103   50   52 1    
   104   52   53 1    
   105   52   54 1    
   106   52  175 1    
   107   53  176 1    
   108   53  177 1    
   109   53  178 1    
   110   54   55 am   BACKBONE|DICT|INTERRES
   111   54  179 1    
   112   55   56 2    
   113   55   57 1    
   114   57   58 1    
   115   57   59 1    
   116   57  180 1    
   117   58  181 1    
   118   58  182 1    
   119   58  183 1    
   120   59   60 am   BACKBONE|DICT|INTERRES
   121   59  184 1    
   122   60   61 2    
   123   60   62 1    
   124   62   63 1    
   125   62   64 1    
   126   62  185 1    
   127   63  186 1    
   128   63  187 1    
   129   63  188 1    
   130   64   65 am   BACKBONE|DICT|INTERRES
   131   64  189 1    
   132   65   66 2    
   133   67   68 2    
   134   67   69 am   BACKBONE|DICT|INTERRES
   135   69   70 1    
   136   69  190 1    
   137   70   71 1    
   138   70   72 1    
   139   70  191 1    
   140   71  192 1    
   141   71  193 1    
   142   71  194 1    
   143   72   73 2    
   144   72   74 am   BACKBONE|DICT|INTERRES
   145   74   75 1    
   146   74  195 1    
   147   75   76 1    
   148   75   77 1    
   149   75  196 1    
   150   76  197 1    
   151   76  198 1    
   152   76  199 1    
   153   77   78 2    
   154   77   79 am   BACKBONE|DICT|INTERRES
   155   79   80 1    
   156   79  200 1    
   157   80   81 1    
   158   80   82 1    
   159   80  201 1    
   160   81  202 1    
   161   81  203 1    
   162   81  204 1    
   163   82   83 2    
   164   82   84 am   BACKBONE|DICT|INTERRES
   165   84   85 1    
   166   84  205 1    
   167   85   86 1    
   168   85   87 1    
   169   85  206 1    
   170   86  207 1    
   171   86  208 1    
   172   86  209 1    
   173   87   88 2    
   174   87   89 am   BACKBONE|DICT|INTERRES
   175   89   90 1    
   176   89  210 1    
   177   90   91 1    
   178   90   92 1    
   179   90  211 1    
   180   91  212 1    
   181   91  213 1    
   182   91  214 1    
   183   92   93 2    
   184   92   94 am   BACKBONE|DICT|INTERRES
   185   94   95 1    
   186   94  215 1    
   187   95   96 1    
   188   95   97 1    
   189   95  216 1    
   190   96  217 1    
   191   96  218 1    
   192   96  219 1    
   193   97   98 2    
   194   97   99 am   BACKBONE|DICT|INTERRES
   195   99  100 1    
   196   99  220 1    
   197  100  101 1    
   198  100  102 1    
   199  100  221 1    
   200  101  222 1    
   201  101  223 1    
   202  101  224 1    
   203  102  103 2    
   204  102  104 am   BACKBONE|DICT|INTERRES
   205  104  105 1    
   206  104  225 1    
   207  105  106 1    
   208  105  107 1    
   209  105  226 1    
   210  106  227 1    
   211  106  228 1    
   212  106  229 1    
   213  107  108 2    
   214  107  109 am   BACKBONE|DICT|INTERRES
   215  109  110 1    
   216  109  230 1    
   217  110  111 1    
   218  110  112 1    
   219  110  231 1    
   220  111  232 1    
   221  111  233 1    
   222  111  234 1    
   223  112  113 2    
   224  112  114 am   BACKBONE|DICT|INTERRES
   225  114  115 1    
   226  114  235 1    
   227  115  116 1    
   228  115  117 1    
   229  115  236 1    
   230  116  237 1    
   231  116  238 1    
   232  116  239 1    
   233  117  118 2    
   234  117  119 am   BACKBONE|DICT|INTERRES
   235  119  120 1    
   236  119  240 1    
   237  120  121 1    
   238  120  124 1    
   239  120  241 1    
   240  121  122 am   BACKBONE|DICT|INTERRES
   241  121  123 2    
   242  122  242 1    
   243  122  243 1    
   244  124  125 1    
   245  124  244 1    
   246  124  245 1    
   247  125  126 1    
   248  126  246 1    
   249  126  247 1    
@<TRIPOS>SUBSTRUCTURE
     1 UNK         1 GROUP             0       ****    0 ROOT    
