@<TRIPOS>MOLECULE
3R540
247   249    1
SMALL
USER_CHARGES


@<TRIPOS>ATOM
      1 CA         -2.0461  -16.8657  -47.4953 C.3       0 UNK        -0.1800 
      2 C          -1.4651  -15.5418  -47.9598 C.2       0 UNK         0.5000 
      3 O          -2.2211  -14.6597  -48.3674 O.2       0 UNK        -0.5000 
      4 N          -0.1314  -15.4072  -47.9310 N.am      1 UNK        -0.5000 
      5 CA          0.5849  -14.2236  -48.4278 C.3       1 UNK         0.1400 
      6 C6          2.1200  -14.4201  -48.5344 C.3       23 UNK        -0.0398 
      7 S7          2.7141  -15.9373  -49.3567 S.3       23 UNK        -0.2404 
      8 C8          1.8088  -15.9916  -50.9404 C.3       23 UNK        -0.0205 
      9 C9          0.7589  -17.0924  -50.9268 C.ar      23 UNK        -0.0193 
     10 C10        -0.6032  -16.7952  -51.0403 C.ar      23 UNK        -0.1150 
     11 C11        -1.5591  -17.8137  -50.9561 C.ar      23 UNK        -0.0193 
     12 C12        -1.1409  -19.1323  -50.7652 C.ar      23 UNK        -0.1150 
     13 C13         0.2168  -19.4445  -50.6763 C.ar      23 UNK        -0.0193 
     14 C14         1.1611  -18.4224  -50.7757 C.ar      23 UNK        -0.1150 
     15 C15         0.6584  -20.8823  -50.4524 C.3       23 UNK        -0.0205 
     16 S16         1.6261  -21.1161  -48.9216 S.3       23 UNK        -0.2404 
     17 C17         0.6036  -20.3238  -47.6322 C.3       23 UNK        -0.0398 
     18 CA         -0.4034  -21.2925  -46.9625 C.3       11 UNK         0.1400 
     19 N          -0.5025  -21.0580  -45.5198 N.am      11 UNK        -0.5000 
     20 C          -1.2438  -21.7724  -44.6614 C.2       10 UNK         0.5000 
     21 O          -1.9096  -22.7557  -44.9915 O.2       10 UNK        -0.5000 
     22 CA         -1.2950  -21.2798  -43.2044 C.3       10 UNK         0.1400 
     23 CB         -0.3557  -22.1242  -42.3312 C.3       10 UNK        -0.1800 
     24 N          -0.9736  -19.8572  -43.0375 N.am      10 UNK        -0.5000 
     25 C          -1.6691  -18.8359  -43.5619 C.2       9 UNK         0.5000 
     26 O          -2.6526  -18.9829  -44.2874 O.2       9 UNK        -0.5000 
     27 CA         -1.1572  -17.4163  -43.2576 C.3       9 UNK         0.1400 
     28 CB         -1.5439  -16.9893  -41.8339 C.3       9 UNK        -0.1800 
     29 N           0.2892  -17.2910  -43.4226 N.am      9 UNK        -0.5000 
     30 C           0.9397  -17.3929  -44.5899 C.2       8 UNK         0.5000 
     31 O           0.3941  -17.6056  -45.6713 O.2       8 UNK        -0.5000 
     32 CA          2.4702  -17.2759  -44.5344 C.3       8 UNK         0.1400 
     33 CB          2.9066  -15.8047  -44.4538 C.3       8 UNK        -0.1800 
     34 N           3.0245  -18.0266  -43.4087 N.am      8 UNK        -0.5000 
     35 C           3.0420  -19.3657  -43.3332 C.2       7 UNK         0.5000 
     36 O           2.6516  -20.1095  -44.2337 O.2       7 UNK        -0.5000 
     37 CA          3.5556  -19.9746  -42.0152 C.3       7 UNK         0.1400 
     38 CB          5.0839  -20.1248  -42.0481 C.3       7 UNK        -0.1800 
     39 N           3.1721  -19.1908  -40.8391 N.am      7 UNK        -0.5000 
     40 C           1.9124  -19.0469  -40.4035 C.2       6 UNK         0.5000 
     41 O           0.9385  -19.5681  -40.9421 O.2       6 UNK        -0.5000 
     42 CA          1.6997  -18.1247  -39.1912 C.3       6 UNK         0.1400 
     43 CB          1.9379  -18.8882  -37.8800 C.3       6 UNK        -0.1800 
     44 N           2.5491  -16.9323  -39.2253 N.am      6 UNK        -0.5000 
     45 C           2.4754  -15.9798  -40.1629 C.2       5 UNK         0.5000 
     46 O           1.7064  -16.0202  -41.1266 O.2       5 UNK        -0.5000 
     47 CA          3.4480  -14.8061  -40.0205 C.3       5 UNK         0.1400 
     48 CB          4.7075  -15.0291  -40.8734 C.3       5 UNK        -0.1800 
     49 N           2.7696  -13.5911  -40.4535 N.am      5 UNK        -0.5000 
     50 C           2.8799  -12.3980  -39.8592 C.2       4 UNK         0.5000 
     51 O           3.6414  -12.1751  -38.9166 O.2       4 UNK        -0.5000 
     52 CA          2.0009  -11.2501  -40.3951 C.3       4 UNK         0.1400 
     53 CB          2.8369  -10.3021  -41.2700 C.3       4 UNK        -0.1800 
     54 N           0.8296  -11.6770  -41.1638 N.am      4 UNK        -0.5000 
     55 C          -0.2327  -12.3448  -40.6899 C.2       3 UNK         0.5000 
     56 O          -0.3237  -12.7387  -39.5269 O.2       3 UNK        -0.5000 
     57 CA         -1.4025  -12.5891  -41.6693 C.3       3 UNK         0.1400 
     58 CB         -2.6739  -11.8726  -41.1857 C.3       3 UNK        -0.1800 
     59 N          -1.1069  -12.1420  -43.0348 N.am      3 UNK        -0.5000 
     60 C          -0.4275  -12.8587  -43.9366 C.2       2 UNK         0.5000 
     61 O          -0.0287  -14.0089  -43.7435 O.2       2 UNK        -0.5000 
     62 CA         -0.0904  -12.1464  -45.2521 C.3       2 UNK         0.1400 
     63 CB          1.1354  -11.2299  -45.0626 C.3       2 UNK        -0.1800 
     64 N           0.1838  -13.1624  -46.2586 N.am      2 UNK        -0.5000 
     65 C           0.2943  -12.9691  -47.5775 C.2       1 UNK         0.5000 
     66 O           0.1797  -11.8719  -48.1258 O.2       1 UNK        -0.5000 
     67 C          -1.7806  -21.2676  -47.6654 C.2       11 UNK         0.5000 
     68 O          -1.9786  -22.0289  -48.6110 O.2       11 UNK        -0.5000 
     69 N          -2.7212  -20.4598  -47.1427 N.am      12 UNK        -0.5000 
     70 CA         -4.1178  -20.3701  -47.5825 C.3       12 UNK         0.1400 
     71 CB         -4.8443  -19.2992  -46.7538 C.3       12 UNK        -0.1800 
     72 C          -4.8993  -21.6932  -47.4695 C.2       12 UNK         0.5000 
     73 O          -5.8166  -21.9192  -48.2595 O.2       12 UNK        -0.5000 
     74 N          -4.5441  -22.5230  -46.4804 N.am      13 UNK        -0.5000 
     75 CA         -5.1492  -23.8315  -46.2428 C.3       13 UNK         0.1400 
     76 CB         -5.2730  -24.0541  -44.7271 C.3       13 UNK        -0.1800 
     77 C          -4.3241  -24.9592  -46.8842 C.2       13 UNK         0.5000 
     78 O          -4.9028  -25.9532  -47.3240 O.2       13 UNK        -0.5000 
     79 N          -2.9949  -24.7956  -46.8998 N.am      14 UNK        -0.5000 
     80 CA         -2.0312  -25.7649  -47.4077 C.3       14 UNK         0.1400 
     81 CB         -0.7125  -25.6025  -46.6249 C.3       14 UNK        -0.1800 
     82 C          -1.8632  -25.6602  -48.9383 C.2       14 UNK         0.5000 
     83 O          -2.7005  -26.1713  -49.6830 O.2       14 UNK        -0.5000 
     84 N          -0.7572  -25.0510  -49.3854 N.am      15 UNK        -0.5000 
     85 CA         -0.2732  -25.0807  -50.7674 C.3       15 UNK         0.1400 
     86 CB          1.2147  -24.6966  -50.7762 C.3       15 UNK        -0.1800 
     87 C          -1.0686  -24.2298  -51.7767 C.2       15 UNK         0.5000 
     88 O          -0.7868  -24.3280  -52.9715 O.2       15 UNK        -0.5000 
     89 N          -2.0404  -23.4268  -51.3150 N.am      16 UNK        -0.5000 
     90 CA         -2.8660  -22.5272  -52.1317 C.3       16 UNK         0.1400 
     91 CB         -3.9528  -21.8891  -51.2639 C.3       16 UNK        -0.1800 
     92 C          -3.5431  -23.1770  -53.3506 C.2       16 UNK         0.5000 
     93 O          -3.7040  -22.5110  -54.3728 O.2       16 UNK        -0.5000 
     94 N          -3.9015  -24.4626  -53.2353 N.am      17 UNK        -0.5000 
     95 CA         -4.4987  -25.2723  -54.2997 C.3       17 UNK         0.1400 
     96 CB         -4.9072  -26.6331  -53.7162 C.3       17 UNK        -0.1800 
     97 C          -3.5884  -25.4638  -55.5312 C.2       17 UNK         0.5000 
     98 O          -4.1028  -25.6807  -56.6286 O.2       17 UNK        -0.5000 
     99 N          -2.2653  -25.3628  -55.3394 N.am      18 UNK        -0.5000 
    100 CA        -1.2659  -25.3823  -56.4096 C.3       18 UNK         0.1400 
    101 CB         0.0237  -26.0215  -55.8686 C.3       18 UNK        -0.1800 
    102 C         -0.9809  -23.9740  -56.9730 C.2       18 UNK         0.5000 
    103 O         -0.2704  -23.8616  -57.9734 O.2       18 UNK        -0.5000 
    104 N         -1.5196  -22.9335  -56.3249 N.am      19 UNK        -0.5000 
    105 CA        -1.3932  -21.5296  -56.6946 C.3       19 UNK         0.1400 
    106 CB        -0.8613  -20.7450  -55.4757 C.3       19 UNK        -0.1800 
    107 C         -2.7512  -21.0288  -57.2264 C.2       19 UNK         0.5000 
    108 O         -3.3092  -21.6419  -58.1383 O.2       19 UNK        -0.5000 
    109 N         -3.2555  -19.9206  -56.6703 N.am      20 UNK        -0.5000 
    110 CA        -4.4661  -19.2251  -57.1122 C.3       20 UNK         0.1400 
    111 CB        -4.3025  -17.7317  -56.7793 C.3       20 UNK        -0.1800 
    112 C         -5.7746  -19.7762  -56.5063 C.2       20 UNK         0.5000 
    113 O         -6.8322  -19.2043  -56.7739 O.2       20 UNK        -0.5000 
    114 N         -5.6941  -20.8329  -55.6811 N.am      21 UNK        -0.5000 
    115 CA        -6.7816  -21.4074  -54.8729 C.3       21 UNK         0.1400 
    116 CB        -7.9236  -21.9567  -55.7530 C.3       21 UNK        -0.1800 
    117 C         -7.2667  -20.4466  -53.7642 C.2       21 UNK         0.5000 
    118 O         -8.4226  -20.5045  -53.3440 O.2       21 UNK        -0.5000 
    119 N         -6.3493  -19.5931  -53.2978 N.am      22 UNK        -0.5000 
    120 CA        -6.5070  -18.5773  -52.2454 C.3       22 UNK         0.1400 
    121 C         -6.5363  -19.1254  -50.7831 C.2       22 UNK         0.5000 
    122 N         -6.7924  -20.4078  -50.5623 N.am      22 UNK        -0.7600 
    123 O         -6.3243  -18.3791  -49.8321 O.2       22 UNK        -0.5000 
    124 C124       -5.4796  -17.4281  -52.4514 C.3       23 UNK        -0.0398 
    125 S125       -3.7453  -17.9862  -52.6388 S.3       23 UNK        -0.2404 
    126 C126       -3.0443  -17.4962  -51.0345 C.3       23 UNK        -0.0205 
    127 H127       -1.3478  -17.6842  -47.6593 H         1 UNK         0.0600 
    128 H128       -2.9511  -17.0868  -48.0586 H         1 UNK         0.0600 
    129 H129       -2.2957  -16.8240  -46.4353 H         1 UNK         0.0600 
    130 H130        0.4362  -16.1700  -47.5848 H         1 UNK         0.3000 
    131 H131        0.2028  -14.0179  -49.4292 H         1 UNK         0.0600 
    132 H132        2.5715  -14.4153  -47.5412 H         1 UNK         0.0800 
    133 H133        2.5623  -13.5721  -49.0606 H         1 UNK         0.0800 
    134 H134        1.3702  -15.0206  -51.1709 H         1 UNK         0.0800 
    135 H135        2.5202  -16.1993  -51.7408 H         1 UNK         0.0800 
    136 H136       -0.9216  -15.7698  -51.1643 H         1 UNK         0.1150 
    137 H137       -1.8766  -19.9156  -50.6826 H         1 UNK         0.1150 
    138 H138        2.2129  -18.6580  -50.6917 H         1 UNK         0.1150 
    139 H139       -0.2018  -21.5487  -50.4288 H         1 UNK         0.0800 
    140 H140        1.2627  -21.2009  -51.3026 H         1 UNK         0.0800 
    141 H141        0.1229  -19.4224  -48.0111 H         1 UNK         0.0800 
    142 H142        1.3169  -19.9623  -46.8897 H         1 UNK         0.0800 
    143 H143       -0.0185  -22.3082  -47.0630 H         1 UNK         0.0600 
    144 H144        0.0079  -20.2650  -45.1557 H         1 UNK         0.3000 
    145 H145       -2.3170  -21.4302  -42.8512 H         1 UNK         0.0600 
    146 H146       -0.5649  -23.1891  -42.4427 H         1 UNK         0.0600 
    147 H147        0.6899  -21.9635  -42.5973 H         1 UNK         0.0600 
    148 H148       -0.4753  -21.8815  -41.2754 H         1 UNK         0.0600 
    149 H149       -0.1953  -19.6479  -42.4157 H         1 UNK         0.3000 
    150 H150       -1.6319  -16.7276  -43.9595 H         1 UNK         0.0600 
    151 H151       -1.1960  -15.9792  -41.6201 H         1 UNK         0.0600 
    152 H152       -1.1143  -17.6521  -41.0824 H         1 UNK         0.0600 
    153 H153       -2.6266  -16.9991  -41.7033 H         1 UNK         0.0600 
    154 H154        0.8195  -17.0478  -42.5921 H         1 UNK         0.3000 
    155 H155        2.8715  -17.6968  -45.4590 H         1 UNK         0.0600 
    156 H156        2.5142  -15.2374  -45.2975 H         1 UNK         0.0600 
    157 H157        3.9923  -15.7120  -44.4750 H         1 UNK         0.0600 
    158 H158        2.5435  -15.3210  -43.5470 H         1 UNK         0.0600 
    159 H159        3.3202  -17.4923  -42.6060 H         1 UNK         0.3000 
    160 H160        3.1164  -20.9697  -41.9169 H         1 UNK         0.0600 
    161 H161        5.3987  -20.7214  -42.9053 H         1 UNK         0.0600 
    162 H162        5.4502  -20.6269  -41.1524 H         1 UNK         0.0600 
    163 H163        5.5834  -19.1577  -42.1198 H         1 UNK         0.0600 
    164 H164        3.9129  -18.7243  -40.3372 H         1 UNK         0.3000 
    165 H165        0.6591  -17.7939  -39.2078 H         1 UNK         0.0600 
    166 H166        1.7044  -18.2679  -37.0145 H         1 UNK         0.0600 
    167 H167        1.3031  -19.7737  -37.8238 H         1 UNK         0.0600 
    168 H168        2.9728  -19.2197  -37.7870 H         1 UNK         0.0600 
    169 H169        3.2125  -16.8307  -38.4705 H         1 UNK         0.3000 
    170 H170        3.7354  -14.7243  -38.9699 H         1 UNK         0.0600 
    171 H171        5.4134  -14.2073  -40.7514 H         1 UNK         0.0600 
    172 H172        5.2224  -15.9454  -40.5822 H         1 UNK         0.0600 
    173 H173        4.4685  -15.1070  -41.9341 H         1 UNK         0.0600 
    174 H174        2.0799  -13.7227  -41.1822 H         1 UNK         0.3000 
    175 H175        1.6421  -10.6892  -39.5296 H         1 UNK         0.0600 
    176 H176        3.2022  -10.8020  -42.1681 H         1 UNK         0.0600 
    177 H177        2.2551   -9.4341  -41.5809 H         1 UNK         0.0600 
    178 H178        3.7057   -9.9297  -40.7255 H         1 UNK         0.0600 
    179 H179        0.8092  -11.3989  -42.1323 H         1 UNK         0.3000 
    180 H180       -1.6027  -13.6617  -41.6778 H         1 UNK         0.0600 
    181 H181       -3.5160  -12.0744  -41.8480 H         1 UNK         0.0600 
    182 H182       -2.5341  -10.7919  -41.1386 H         1 UNK         0.0600 
    183 H183       -2.9601  -12.2104  -40.1888 H         1 UNK         0.0600 
    184 H184       -1.4018  -11.2048  -43.2706 H         1 UNK         0.3000 
    185 H185       -0.9539  -11.5576  -45.5680 H         1 UNK         0.0600 
    186 H186        2.0155  -11.7971  -44.7561 H         1 UNK         0.0600 
    187 H187        1.3857  -10.6983  -45.9804 H         1 UNK         0.0600 
    188 H188        0.9491  -10.4731  -44.3000 H         1 UNK         0.0600 
    189 H189        0.2480  -14.1005  -45.8816 H         1 UNK         0.3000 
    190 H190       -2.4820  -19.9072  -46.3277 H         1 UNK         0.3000 
    191 H191       -4.1215  -20.0559  -48.6269 H         1 UNK         0.0600 
    192 H192       -4.9098  -19.5810  -45.7022 H         1 UNK         0.0600 
    193 H193       -5.8628  -19.1532  -47.1161 H         1 UNK         0.0600 
    194 H194       -4.3459  -18.3347  -46.8053 H         1 UNK         0.0600 
    195 H195       -3.7584  -22.2752  -45.8918 H         1 UNK         0.3000 
    196 H196       -6.1537  -23.8654  -46.6702 H         1 UNK         0.0600 
    197 H197       -5.7358  -25.0178  -44.5109 H         1 UNK         0.0600 
    198 H198       -5.8930  -23.2851  -44.2661 H         1 UNK         0.0600 
    199 H199       -4.2997  -24.0393  -44.2348 H         1 UNK         0.0600 
    200 H200       -2.6095  -23.9592  -46.4771 H         1 UNK         0.3000 
    201 H201       -2.4024  -26.7714  -47.2032 H         1 UNK         0.0600 
    202 H202       -0.8651  -25.8079  -45.5650 H         1 UNK         0.0600 
    203 H203       -0.3059  -24.5949  -46.7033 H         1 UNK         0.0600 
    204 H204        0.0468  -26.3010  -46.9794 H         1 UNK         0.0600 
    205 H205       -0.1384  -24.6308  -48.7085 H         1 UNK         0.3000 
    206 H206       -0.3461  -26.1122  -51.1186 H         1 UNK         0.0600 
    207 H207        1.6280  -24.7351  -51.7850 H         1 UNK         0.0600 
    208 H208        1.3721  -23.6886  -50.3964 H         1 UNK         0.0600 
    209 H209        1.8018  -25.3803  -50.1628 H         1 UNK         0.0600 
    210 H210       -2.1706  -23.3639  -50.3115 H         1 UNK         0.3000 
    211 H211       -2.2112  -21.7365  -52.5014 H         1 UNK         0.0600 
    212 H212       -4.6240  -22.6355  -50.8373 H         1 UNK         0.0600 
    213 H213       -4.5514  -21.2002  -51.8573 H         1 UNK         0.0600 
    214 H214       -3.5357  -21.3133  -50.4454 H         1 UNK         0.0600 
    215 H215       -3.7191  -24.9293  -52.3579 H         1 UNK         0.3000 
    216 H216       -5.4010  -24.7598  -54.6398 H         1 UNK         0.0600 
    217 H217       -5.3816  -27.2579  -54.4741 H         1 UNK         0.0600 
    218 H218       -5.6214  -26.5147  -52.9009 H         1 UNK         0.0600 
    219 H219       -4.0453  -27.1797  -53.3314 H         1 UNK         0.0600 
    220 H220       -1.9132  -25.1460  -54.4117 H         1 UNK         0.3000 
    221 H221       -1.6253  -25.9993  -57.2357 H         1 UNK         0.0600 
    222 H222        0.4690  -25.4223  -55.0738 H         1 UNK         0.0600 
    223 H223       -0.1660  -27.0188  -55.4714 H         1 UNK         0.0600 
    224 H224        0.7699  -26.1233  -56.6575 H         1 UNK         0.0600 
    225 H225       -2.1568  -23.1198  -55.5599 H         1 UNK         0.3000 
    226 H226       -0.6742  -21.4115  -57.5073 H         1 UNK         0.0600 
    227 H227        0.0832  -21.1637  -55.1274 H         1 UNK         0.0600 
    228 H228       -0.6706  -19.7010  -55.7276 H         1 UNK         0.0600 
    229 H229       -1.5564  -20.7674  -54.6362 H         1 UNK         0.0600 
    230 H230       -2.7473  -19.4918  -55.9104 H         1 UNK         0.3000 
    231 H231       -4.5532  -19.3191  -58.1967 H         1 UNK         0.0600 
    232 H232       -4.2373  -17.5641  -55.7037 H         1 UNK         0.0600 
    233 H233       -3.4029  -17.3210  -57.2381 H         1 UNK         0.0600 
    234 H234       -5.1460  -17.1484  -57.1509 H         1 UNK         0.0600 
    235 H235       -4.7823  -21.2486  -55.5170 H         1 UNK         0.3000 
    236 H236       -6.3501  -22.2610  -54.3502 H         1 UNK         0.0600 
    237 H237       -8.4879  -21.1598  -56.2373 H         1 UNK         0.0600 
    238 H238       -7.5388  -22.6177  -56.5296 H         1 UNK         0.0600 
    239 H239       -8.6295  -22.5354  -55.1563 H         1 UNK         0.0600 
    240 H240       -5.4228  -19.6414  -53.6954 H         1 UNK         0.3000 
    241 H241       -7.4952  -18.1348  -52.3818 H         1 UNK         0.0600 
    242 H242       -6.7319  -20.7866  -49.6242 H         1 UNK         0.3800 
    243 H243       -7.0438  -21.0118  -51.3265 H         1 UNK         0.3800 
    244 H244       -5.7367  -16.8914  -53.3655 H         1 UNK         0.0800 
    245 H245       -5.5536  -16.6822  -51.6584 H         1 UNK         0.0800 
    246 H246       -3.2145  -16.4309  -50.8704 H         1 UNK         0.0800 
    247 H247       -3.5707  -18.0221  -50.2370 H         1 UNK         0.0800 
@<TRIPOS>BOND
     1    1    2 1    
     2    1  127 1    
     3    1  128 1    
     4    1  129 1    
     5    2    3 2    
     6    2    4 am   BACKBONE|DICT|INTERRES
     7    4    5 1    
     8    4  130 1    
     9    5    6 1    
    10    5   65 1    
    11    5  131 1    
    12    6    7 1    
    13    6  132 1    
    14    6  133 1    
    15    7    8 1    
    16    8    9 1    
    17    8  134 1    
    18    8  135 1    
    19    9   10 ar   
    20    9   14 ar   
    21   10   11 ar   
    22   10  136 1    
    23   11   12 ar   
    24   11  126 1    
    25   12   13 ar   
    26   12  137 1    
    27   13   14 ar   
    28   13   15 1    
    29   14  138 1    
    30   15   16 1    
    31   15  139 1    
    32   15  140 1    
    33   16   17 1    
    34   17   18 1    
    35   17  141 1    
    36   17  142 1    
    37   18   19 1    
    38   18   67 1    
    39   18  143 1    
    40   19   20 am   BACKBONE|DICT|INTERRES
    41   19  144 1    
    42   20   21 2    
    43   20   22 1    
    44   22   23 1    
    45   22   24 1    
    46   22  145 1    
    47   23  146 1    
    48   23  147 1    
    49   23  148 1    
    50   24   25 am   BACKBONE|DICT|INTERRES
    51   24  149 1    
    52   25   26 2    
    53   25   27 1    
    54   27   28 1    
    55   27   29 1    
    56   27  150 1    
    57   28  151 1    
    58   28  152 1    
    59   28  153 1    
    60   29   30 am   BACKBONE|DICT|INTERRES
    61   29  154 1    
    62   30   31 2    
    63   30   32 1    
    64   32   33 1    
    65   32   34 1    
    66   32  155 1    
    67   33  156 1    
    68   33  157 1    
    69   33  158 1    
    70   34   35 am   BACKBONE|DICT|INTERRES
    71   34  159 1    
    72   35   36 2    
    73   35   37 1    
    74   37   38 1    
    75   37   39 1    
    76   37  160 1    
    77   38  161 1    
    78   38  162 1    
    79   38  163 1    
    80   39   40 am   BACKBONE|DICT|INTERRES
    81   39  164 1    
    82   40   41 2    
    83   40   42 1    
    84   42   43 1    
    85   42   44 1    
    86   42  165 1    
    87   43  166 1    
    88   43  167 1    
    89   43  168 1    
    90   44   45 am   BACKBONE|DICT|INTERRES
    91   44  169 1    
    92   45   46 2    
    93   45   47 1    
    94   47   48 1    
    95   47   49 1    
    96   47  170 1    
    97   48  171 1    
    98   48  172 1    
    99   48  173 1    
   100   49   50 am   BACKBONE|DICT|INTERRES
   101   49  174 1    
   102   50   51 2    
   103   50   52 1    
   104   52   53 1    
   105   52   54 1    
   106   52  175 1    
   107   53  176 1    
   108   53  177 1    
   109   53  178 1    
   110   54   55 am   BACKBONE|DICT|INTERRES
   111   54  179 1    
   112   55   56 2    
   113   55   57 1    
   114   57   58 1    
   115   57   59 1    
   116   57  180 1    
   117   58  181 1    
   118   58  182 1    
   119   58  183 1    
   120   59   60 am   BACKBONE|DICT|INTERRES
   121   59  184 1    
   122   60   61 2    
   123   60   62 1    
   124   62   63 1    
   125   62   64 1    
   126   62  185 1    
   127   63  186 1    
   128   63  187 1    
   129   63  188 1    
   130   64   65 am   BACKBONE|DICT|INTERRES
   131   64  189 1    
   132   65   66 2    
   133   67   68 2    
   134   67   69 am   BACKBONE|DICT|INTERRES
   135   69   70 1    
   136   69  190 1    
   137   70   71 1    
   138   70   72 1    
   139   70  191 1    
   140   71  192 1    
   141   71  193 1    
   142   71  194 1    
   143   72   73 2    
   144   72   74 am   BACKBONE|DICT|INTERRES
   145   74   75 1    
   146   74  195 1    
   147   75   76 1    
   148   75   77 1    
   149   75  196 1    
   150   76  197 1    
   151   76  198 1    
   152   76  199 1    
   153   77   78 2    
   154   77   79 am   BACKBONE|DICT|INTERRES
   155   79   80 1    
   156   79  200 1    
   157   80   81 1    
   158   80   82 1    
   159   80  201 1    
   160   81  202 1    
   161   81  203 1    
   162   81  204 1    
   163   82   83 2    
   164   82   84 am   BACKBONE|DICT|INTERRES
   165   84   85 1    
   166   84  205 1    
   167   85   86 1    
   168   85   87 1    
   169   85  206 1    
   170   86  207 1    
   171   86  208 1    
   172   86  209 1    
   173   87   88 2    
   174   87   89 am   BACKBONE|DICT|INTERRES
   175   89   90 1    
   176   89  210 1    
   177   90   91 1    
   178   90   92 1    
   179   90  211 1    
   180   91  212 1    
   181   91  213 1    
   182   91  214 1    
   183   92   93 2    
   184   92   94 am   BACKBONE|DICT|INTERRES
   185   94   95 1    
   186   94  215 1    
   187   95   96 1    
   188   95   97 1    
   189   95  216 1    
   190   96  217 1    
   191   96  218 1    
   192   96  219 1    
   193   97   98 2    
   194   97   99 am   BACKBONE|DICT|INTERRES
   195   99  100 1    
   196   99  220 1    
   197  100  101 1    
   198  100  102 1    
   199  100  221 1    
   200  101  222 1    
   201  101  223 1    
   202  101  224 1    
   203  102  103 2    
   204  102  104 am   BACKBONE|DICT|INTERRES
   205  104  105 1    
   206  104  225 1    
   207  105  106 1    
   208  105  107 1    
   209  105  226 1    
   210  106  227 1    
   211  106  228 1    
   212  106  229 1    
   213  107  108 2    
   214  107  109 am   BACKBONE|DICT|INTERRES
   215  109  110 1    
   216  109  230 1    
   217  110  111 1    
   218  110  112 1    
   219  110  231 1    
   220  111  232 1    
   221  111  233 1    
   222  111  234 1    
   223  112  113 2    
   224  112  114 am   BACKBONE|DICT|INTERRES
   225  114  115 1    
   226  114  235 1    
   227  115  116 1    
   228  115  117 1    
   229  115  236 1    
   230  116  237 1    
   231  116  238 1    
   232  116  239 1    
   233  117  118 2    
   234  117  119 am   BACKBONE|DICT|INTERRES
   235  119  120 1    
   236  119  240 1    
   237  120  121 1    
   238  120  124 1    
   239  120  241 1    
   240  121  122 am   BACKBONE|DICT|INTERRES
   241  121  123 2    
   242  122  242 1    
   243  122  243 1    
   244  124  125 1    
   245  124  244 1    
   246  124  245 1    
   247  125  126 1    
   248  126  246 1    
   249  126  247 1    
@<TRIPOS>SUBSTRUCTURE
     1 UNK         1 GROUP             0       ****    0 ROOT    
