@<TRIPOS>MOLECULE
3R540
247   249    1
SMALL
USER_CHARGES


@<TRIPOS>ATOM
      1 CA          5.0765  -15.6584  -46.9668 C.3       0 UNK        -0.1800 
      2 C           6.3655  -15.1356  -47.5994 C.2       0 UNK         0.5000 
      3 O           7.4136  -15.1789  -46.9580 O.2       0 UNK        -0.5000 
      4 N           6.3472  -14.6474  -48.8463 N.am      1 UNK        -0.5000 
      5 CA          5.1679  -14.4700  -49.6997 C.3       1 UNK         0.1400 
      6 C6          5.5239  -14.5321  -51.2062 C.3       23 UNK        -0.0398 
      7 S7          6.1978  -16.1532  -51.7050 S.3       23 UNK        -0.2404 
      8 C8          4.7055  -17.0079  -52.3104 C.3       23 UNK        -0.0205 
      9 C9          3.7628  -17.3723  -51.1730 C.ar      23 UNK        -0.0193 
     10 C10         2.5867  -16.6437  -50.9599 C.ar      23 UNK        -0.1150 
     11 C11         1.7415  -16.9669  -49.8939 C.ar      23 UNK        -0.0193 
     12 C12         2.0687  -18.0333  -49.0551 C.ar      23 UNK        -0.1150 
     13 C13         3.2251  -18.7841  -49.2716 C.ar      23 UNK        -0.0193 
     14 C14         4.0730  -18.4433  -50.3286 C.ar      23 UNK        -0.1150 
     15 C15         3.5549  -19.9643  -48.3700 C.3       23 UNK        -0.0205 
     16 S16         2.9824  -21.5340  -49.0898 S.3       23 UNK        -0.2404 
     17 C17         1.1730  -21.4277  -48.8613 C.3       23 UNK        -0.0398 
     18 CA          0.6291  -22.6206  -48.0460 C.3       11 UNK         0.1400 
     19 N           1.1440  -22.6375  -46.6722 N.am      11 UNK        -0.5000 
     20 C           1.1310  -23.7170  -45.8793 C.2       10 UNK         0.5000 
     21 O           0.6672  -24.8060  -46.2155 O.2       10 UNK        -0.5000 
     22 CA          1.6829  -23.5309  -44.4541 C.3       10 UNK         0.1400 
     23 CB          3.2190  -23.5367  -44.4613 C.3       10 UNK        -0.1800 
     24 N           1.2032  -22.3055  -43.8111 N.am      10 UNK        -0.5000 
     25 C          -0.0849  -22.0344  -43.5587 C.2       9 UNK         0.5000 
     26 O          -1.0057  -22.7993  -43.8388 O.2       9 UNK        -0.5000 
     27 CA         -0.4168  -20.6816  -42.9067 C.3       9 UNK         0.1400 
     28 CB         -0.6233  -20.8498  -41.3944 C.3       9 UNK        -0.1800 
     29 N           0.5755  -19.6317  -43.1349 N.am      9 UNK        -0.5000 
     30 C           0.8974  -19.0967  -44.3190 C.2       8 UNK         0.5000 
     31 O           0.4792  -19.5225  -45.3987 O.2       8 UNK        -0.5000 
     32 CA          1.8295  -17.8694  -44.2599 C.3       8 UNK         0.1400 
     33 CB          2.0105  -17.1886  -45.6249 C.3       8 UNK        -0.1800 
     34 N           1.3280  -16.8730  -43.3139 N.am      8 UNK        -0.5000 
     35 C           1.5949  -16.8345  -42.0025 C.2       7 UNK         0.5000 
     36 O           2.2668  -17.6885  -41.4234 O.2       7 UNK        -0.5000 
     37 CA          0.9809  -15.6766  -41.2032 C.3       7 UNK         0.1400 
     38 CB          1.6820  -14.3526  -41.5408 C.3       7 UNK        -0.1800 
     39 N          -0.4458  -15.5511  -41.4940 N.am      7 UNK        -0.5000 
     40 C          -1.4313  -15.7876  -40.6174 C.2       6 UNK         0.5000 
     41 O          -1.2432  -16.1098  -39.4436 O.2       6 UNK        -0.5000 
     42 CA         -2.8795  -15.6400  -41.1294 C.3       6 UNK         0.1400 
     43 CB         -3.4242  -14.2416  -40.8003 C.3       6 UNK        -0.1800 
     44 N          -3.0137  -15.8714  -42.5676 N.am      6 UNK        -0.5000 
     45 C          -2.8145  -17.0481  -43.1760 C.2       5 UNK         0.5000 
     46 O          -2.5918  -18.0957  -42.5711 O.2       5 UNK        -0.5000 
     47 CA         -2.8542  -17.0598  -44.7175 C.3       5 UNK         0.1400 
     48 CB         -4.1960  -17.6311  -45.2007 C.3       5 UNK        -0.1800 
     49 N          -2.6346  -15.7563  -45.3594 N.am      5 UNK        -0.5000 
     50 C          -1.5548  -14.9766  -45.2169 C.2       4 UNK         0.5000 
     51 O          -0.6129  -15.2543  -44.4715 O.2       4 UNK        -0.5000 
     52 CA         -1.5531  -13.6729  -46.0374 C.3       4 UNK         0.1400 
     53 CB         -2.5529  -12.6470  -45.4666 C.3       4 UNK        -0.1800 
     54 N          -0.2088  -13.1037  -46.1939 N.am      4 UNK        -0.5000 
     55 C           0.5631  -12.4887  -45.2826 C.2       3 UNK         0.5000 
     56 O           0.2005  -12.2064  -44.1404 O.2       3 UNK        -0.5000 
     57 CA          1.9999  -12.1296  -45.7202 C.3       3 UNK         0.1400 
     58 CB          3.0329  -12.9345  -44.9149 C.3       3 UNK        -0.1800 
     59 N           2.2404  -12.3615  -47.1482 N.am      3 UNK        -0.5000 
     60 C           1.9589  -11.4876  -48.1241 C.2       2 UNK         0.5000 
     61 O           1.4589  -10.3814  -47.9157 O.2       2 UNK        -0.5000 
     62 CA          2.2446  -11.9376  -49.5750 C.3       2 UNK         0.1400 
     63 CB          2.7117  -10.7728  -50.4732 C.3       2 UNK        -0.1800 
     64 N           3.1506  -13.0912  -49.6956 N.am      2 UNK        -0.5000 
     65 C           4.4528  -13.1427  -49.3757 C.2       1 UNK         0.5000 
     66 O           5.0784  -12.2094  -48.8683 O.2       1 UNK        -0.5000 
     67 C          -0.9117  -22.6512  -48.0764 C.2       11 UNK         0.5000 
     68 O          -1.4875  -23.2205  -49.0054 O.2       11 UNK        -0.5000 
     69 N          -1.5493  -22.0727  -47.0489 N.am      12 UNK        -0.5000 
     70 CA         -2.9967  -22.1114  -46.8513 C.3       12 UNK         0.1400 
     71 CB         -3.3986  -21.0856  -45.7835 C.3       12 UNK        -0.1800 
     72 C          -3.4823  -23.5250  -46.4863 C.2       12 UNK         0.5000 
     73 O          -4.4496  -24.0037  -47.0767 O.2       12 UNK        -0.5000 
     74 N          -2.7706  -24.1865  -45.5618 N.am      13 UNK        -0.5000 
     75 CA         -3.0106  -25.5684  -45.1403 C.3       13 UNK         0.1400 
     76 CB         -2.1385  -25.8881  -43.9167 C.3       13 UNK        -0.1800 
     77 C          -2.7613  -26.5888  -46.2656 C.2       13 UNK         0.5000 
     78 O          -3.5198  -27.5506  -46.3920 O.2       13 UNK        -0.5000 
     79 N          -1.7279  -26.3426  -47.0834 N.am      14 UNK        -0.5000 
     80 CA         -1.4172  -27.1150  -48.2888 C.3       14 UNK         0.1400 
     81 CB          0.0112  -26.7789  -48.7441 C.3       14 UNK        -0.1800 
     82 C          -2.4102  -26.8765  -49.4450 C.2       14 UNK         0.5000 
     83 O          -2.4374  -27.6774  -50.3801 O.2       14 UNK        -0.5000 
     84 N          -3.1876  -25.7848  -49.3661 N.am      15 UNK        -0.5000 
     85 CA         -4.1461  -25.2913  -50.3572 C.3       15 UNK         0.1400 
     86 CB         -5.3392  -26.2588  -50.4920 C.3       15 UNK        -0.1800 
     87 C          -3.4566  -24.9705  -51.6982 C.2       15 UNK         0.5000 
     88 O          -3.8939  -25.4348  -52.7531 O.2       15 UNK        -0.5000 
     89 N          -2.3716  -24.1845  -51.6187 N.am      16 UNK        -0.5000 
     90 CA         -1.4441  -23.8622  -52.7110 C.3       16 UNK         0.1400 
     91 CB         -0.3408  -22.9449  -52.1629 C.3       16 UNK        -0.1800 
     92 C          -2.0804  -23.2389  -53.9715 C.2       16 UNK         0.5000 
     93 O          -1.5327  -23.3972  -55.0632 O.2       16 UNK        -0.5000 
     94 N          -3.2249  -22.5679  -53.8049 N.am      17 UNK        -0.5000 
     95 CA         -4.0644  -22.0454  -54.8814 C.3       17 UNK         0.1400 
     96 CB         -3.8075  -20.5381  -55.0596 C.3       17 UNK        -0.1800 
     97 C          -5.5391  -22.3882  -54.6032 C.2       17 UNK         0.5000 
     98 O          -6.4213  -21.5580  -54.8269 O.2       17 UNK        -0.5000 
     99 N          -5.7793  -23.6065  -54.0931 N.am      18 UNK        -0.5000 
    100 CA        -7.0783  -24.1490  -53.6873 C.3       18 UNK         0.1400 
    101 CB        -7.9741  -24.3970  -54.9227 C.3       18 UNK        -0.1800 
    102 C         -7.7247  -23.2756  -52.5913 C.2       18 UNK         0.5000 
    103 O         -7.0899  -23.0368  -51.5631 O.2       18 UNK        -0.5000 
    104 N         -8.9487  -22.7889  -52.8304 N.am      19 UNK        -0.5000 
    105 CA        -9.6774  -21.8827  -51.9404 C.3       19 UNK         0.1400 
    106 CB       -11.1520  -21.8496  -52.3713 C.3       19 UNK        -0.1800 
    107 C         -9.0965  -20.4532  -51.8976 C.2       19 UNK         0.5000 
    108 O         -9.3965  -19.7133  -50.9605 O.2       19 UNK        -0.5000 
    109 N         -8.2794  -20.0863  -52.8948 N.am      20 UNK        -0.5000 
    110 CA        -7.6423  -18.7748  -53.0271 C.3       20 UNK         0.1400 
    111 CB        -7.6926  -18.3474  -54.5048 C.3       20 UNK        -0.1800 
    112 C         -6.1996  -18.7654  -52.4808 C.2       20 UNK         0.5000 
    113 O         -5.4350  -17.8573  -52.8122 O.2       20 UNK        -0.5000 
    114 N         -5.8356  -19.7657  -51.6641 N.am      21 UNK        -0.5000 
    115 CA        -4.5192  -19.9443  -51.0471 C.3       21 UNK         0.1400 
    116 CB        -4.3963  -21.3966  -50.5576 C.3       21 UNK        -0.1800 
    117 C         -4.2278  -18.9167  -49.9316 C.2       21 UNK         0.5000 
    118 O         -4.1233  -19.2810  -48.7601 O.2       21 UNK        -0.5000 
    119 N         -4.0933  -17.6481  -50.3331 N.am      22 UNK        -0.5000 
    120 CA        -3.6505  -16.4991  -49.5226 C.3       22 UNK         0.1400 
    121 C         -4.6765  -15.9965  -48.4625 C.2       22 UNK         0.5000 
    122 N         -5.9306  -16.4270  -48.4954 N.am      22 UNK        -0.7600 
    123 O         -4.3364  -15.1849  -47.6046 O.2       22 UNK        -0.5000 
    124 C124       -2.2297  -16.6935  -48.9199 C.3       23 UNK        -0.0398 
    125 S125       -0.9812  -17.1522  -50.1718 S.3       23 UNK        -0.2404 
    126 C126        0.4639  -16.1881  -49.6353 C.3       23 UNK        -0.0205 
    127 H127        4.2947  -14.9008  -46.9806 H         1 UNK         0.0600 
    128 H128        5.2462  -15.9380  -45.9268 H         1 UNK         0.0600 
    129 H129        4.7200  -16.5431  -47.4952 H         1 UNK         0.0600 
    130 H130        7.2085  -14.2913  -49.2341 H         1 UNK         0.3000 
    131 H131        4.4664  -15.2762  -49.4900 H         1 UNK         0.0600 
    132 H132        4.6524  -14.3150  -51.8265 H         1 UNK         0.0800 
    133 H133        6.2629  -13.7680  -51.4540 H         1 UNK         0.0800 
    134 H134        4.2009  -16.3904  -53.0552 H         1 UNK         0.0800 
    135 H135        5.0089  -17.9189  -52.8284 H         1 UNK         0.0800 
    136 H136        2.3326  -15.8263  -51.6199 H         1 UNK         0.1150 
    137 H137        1.4023  -18.2876  -48.2437 H         1 UNK         0.1150 
    138 H138        4.9754  -19.0142  -50.4972 H         1 UNK         0.1150 
    139 H139        4.6342  -20.0176  -48.2202 H         1 UNK         0.0800 
    140 H140        3.1164  -19.8368  -47.3798 H         1 UNK         0.0800 
    141 H141        0.7219  -21.3938  -49.8539 H         1 UNK         0.0800 
    142 H142        0.9013  -20.4922  -48.3732 H         1 UNK         0.0800 
    143 H143        0.9665  -23.5343  -48.5399 H         1 UNK         0.0600 
    144 H144        1.5031  -21.7662  -46.3092 H         1 UNK         0.3000 
    145 H145        1.3408  -24.3773  -43.8547 H         1 UNK         0.0600 
    146 H146        3.6181  -23.4959  -43.4477 H         1 UNK         0.0600 
    147 H147        3.6245  -22.6899  -45.0166 H         1 UNK         0.0600 
    148 H148        3.6031  -24.4468  -44.9241 H         1 UNK         0.0600 
    149 H149        1.8970  -21.6224  -43.5461 H         1 UNK         0.3000 
    150 H150       -1.3571  -20.3413  -43.3431 H         1 UNK         0.0600 
    151 H151       -1.3813  -21.6057  -41.1845 H         1 UNK         0.0600 
    152 H152       -0.9613  -19.9186  -40.9385 H         1 UNK         0.0600 
    153 H153        0.2961  -21.1561  -40.8941 H         1 UNK         0.0600 
    154 H154        0.9865  -19.2121  -42.3101 H         1 UNK         0.3000 
    155 H155        2.8106  -18.2176  -43.9305 H         1 UNK         0.0600 
    156 H156        2.5593  -17.8389  -46.3022 H         1 UNK         0.0600 
    157 H157        2.5861  -16.2694  -45.5333 H         1 UNK         0.0600 
    158 H158        1.0548  -16.9396  -46.0880 H         1 UNK         0.0600 
    159 H159        0.6993  -16.1766  -43.7106 H         1 UNK         0.3000 
    160 H160        1.1464  -15.8834  -40.1440 H         1 UNK         0.0600 
    161 H161        1.5240  -14.0735  -42.5822 H         1 UNK         0.0600 
    162 H162        2.7578  -14.4217  -41.3749 H         1 UNK         0.0600 
    163 H163        1.3062  -13.5398  -40.9193 H         1 UNK         0.0600 
    164 H164       -0.6901  -15.3231  -42.4518 H         1 UNK         0.3000 
    165 H165       -3.4914  -16.3793  -40.6083 H         1 UNK         0.0600 
    166 H166       -4.4710  -14.1470  -41.0898 H         1 UNK         0.0600 
    167 H167       -3.3649  -14.0412  -39.7297 H         1 UNK         0.0600 
    168 H168       -2.8609  -13.4601  -41.3123 H         1 UNK         0.0600 
    169 H169       -3.2017  -15.0645  -43.1433 H         1 UNK         0.3000 
    170 H170       -2.0567  -17.7286  -45.0485 H         1 UNK         0.0600 
    171 H171       -5.0137  -16.9276  -45.0405 H         1 UNK         0.0600 
    172 H172       -4.1615  -17.8715  -46.2628 H         1 UNK         0.0600 
    173 H173       -4.4503  -18.5512  -44.6734 H         1 UNK         0.0600 
    174 H174       -3.3561  -15.4618  -46.0144 H         1 UNK         0.3000 
    175 H175       -1.8818  -13.9220  -47.0461 H         1 UNK         0.0600 
    176 H176       -2.3735  -12.4406  -44.4112 H         1 UNK         0.0600 
    177 H177       -2.5021  -11.7023  -46.0081 H         1 UNK         0.0600 
    178 H178       -3.5765  -13.0132  -45.5533 H         1 UNK         0.0600 
    179 H179        0.2220  -13.2774  -47.0886 H         1 UNK         0.3000 
    180 H180        2.1543  -11.0711  -45.5001 H         1 UNK         0.0600 
    181 H181        4.0488  -12.7285  -45.2530 H         1 UNK         0.0600 
    182 H182        2.8611  -14.0075  -44.9947 H         1 UNK         0.0600 
    183 H183        2.9885  -12.6726  -43.8574 H         1 UNK         0.0600 
    184 H184        2.6572  -13.2438  -47.4013 H         1 UNK         0.3000 
    185 H185        1.2842  -12.2766  -49.9660 H         1 UNK         0.0600 
    186 H186        2.8908  -11.1091  -51.4944 H         1 UNK         0.0600 
    187 H187        1.9568   -9.9871  -50.5215 H         1 UNK         0.0600 
    188 H188        3.6305  -10.3171  -50.1034 H         1 UNK         0.0600 
    189 H189        2.7300  -13.9137  -50.1032 H         1 UNK         0.3000 
    190 H190       -1.0007  -21.6312  -46.3249 H         1 UNK         0.3000 
    191 H191       -3.4741  -21.8217  -47.7882 H         1 UNK         0.0600 
    192 H192       -3.0008  -20.1008  -46.0265 H         1 UNK         0.0600 
    193 H193       -3.0389  -21.3589  -44.7923 H         1 UNK         0.0600 
    194 H194       -4.4837  -20.9949  -45.7249 H         1 UNK         0.0600 
    195 H195       -2.0174  -23.6977  -45.0822 H         1 UNK         0.3000 
    196 H196       -4.0582  -25.6501  -44.8437 H         1 UNK         0.0600 
    197 H197       -2.3688  -25.2222  -43.0848 H         1 UNK         0.0600 
    198 H198       -1.0764  -25.7849  -44.1422 H         1 UNK         0.0600 
    199 H199       -2.3053  -26.9094  -43.5724 H         1 UNK         0.0600 
    200 H200       -1.0983  -25.5785  -46.8601 H         1 UNK         0.3000 
    201 H201       -1.4546  -28.1765  -48.0358 H         1 UNK         0.0600 
    202 H202        0.7369  -26.9877  -47.9580 H         1 UNK         0.0600 
    203 H203        0.1055  -25.7285  -49.0201 H         1 UNK         0.0600 
    204 H204        0.2957  -27.3726  -49.6137 H         1 UNK         0.0600 
    205 H205       -3.0714  -25.1917  -48.5552 H         1 UNK         0.3000 
    206 H206       -4.5315  -24.3472  -49.9697 H         1 UNK         0.0600 
    207 H207       -5.0491  -27.2061  -50.9472 H         1 UNK         0.0600 
    208 H208       -5.7799  -26.4751  -49.5187 H         1 UNK         0.0600 
    209 H209       -6.1232  -25.8233  -51.1101 H         1 UNK         0.0600 
    210 H210       -2.0896  -23.8629  -50.6951 H         1 UNK         0.3000 
    211 H211       -0.9817  -24.8012  -53.0212 H         1 UNK         0.0600 
    212 H212       -0.7535  -22.0106  -51.7802 H         1 UNK         0.0600 
    213 H213        0.3843  -22.6923  -52.9377 H         1 UNK         0.0600 
    214 H214        0.2070  -23.4284  -51.3537 H         1 UNK         0.0600 
    215 H215       -3.6081  -22.5087  -52.8734 H         1 UNK         0.3000 
    216 H216       -3.8181  -22.5430  -55.8215 H         1 UNK         0.0600 
    217 H217       -4.4031  -20.1310  -55.8775 H         1 UNK         0.0600 
    218 H218       -2.7608  -20.3434  -55.2935 H         1 UNK         0.0600 
    219 H219       -4.0579  -19.9778  -54.1608 H         1 UNK         0.0600 
    220 H220       -4.9873  -24.2101  -53.8926 H         1 UNK         0.3000 
    221 H221       -6.8786  -25.1181  -53.2298 H         1 UNK         0.0600 
    222 H222       -8.2322  -23.4734  -55.4418 H         1 UNK         0.0600 
    223 H223       -7.4706  -25.0449  -55.6403 H         1 UNK         0.0600 
    224 H224       -8.9028  -24.8960  -54.6434 H         1 UNK         0.0600 
    225 H225       -9.3954  -23.0169  -53.7068 H         1 UNK         0.3000 
    226 H226       -9.6271  -22.2851  -50.9264 H         1 UNK         0.0600 
    227 H227      -11.5961  -22.8446  -52.3364 H         1 UNK         0.0600 
    228 H228      -11.7390  -21.2107  -51.7101 H         1 UNK         0.0600 
    229 H229      -11.2661  -21.4650  -53.3856 H         1 UNK         0.0600 
    230 H230       -8.0227  -20.7686  -53.5996 H         1 UNK         0.3000 
    231 H231       -8.2005  -18.0333  -52.4524 H         1 UNK         0.0600 
    232 H232       -7.3212  -17.3301  -54.6332 H         1 UNK         0.0600 
    233 H233       -8.7135  -18.3674  -54.8866 H         1 UNK         0.0600 
    234 H234       -7.0862  -18.9985  -55.1348 H         1 UNK         0.0600 
    235 H235       -6.5276  -20.4680  -51.4429 H         1 UNK         0.3000 
    236 H236       -3.7589  -19.7975  -51.8165 H         1 UNK         0.0600 
    237 H237       -5.1068  -21.6166  -49.7596 H         1 UNK         0.0600 
    238 H238       -4.5825  -22.1011  -51.3654 H         1 UNK         0.0600 
    239 H239       -3.3940  -21.5948  -50.1770 H         1 UNK         0.0600 
    240 H240       -4.2886  -17.4516  -51.3105 H         1 UNK         0.3000 
    241 H241       -3.5793  -15.6733  -50.2309 H         1 UNK         0.0600 
    242 H242       -6.2205  -17.1019  -49.1838 H         1 UNK         0.3800 
    243 H243       -6.5886  -16.0886  -47.8119 H         1 UNK         0.3800 
    244 H244       -1.9077  -15.7730  -48.4358 H         1 UNK         0.0800 
    245 H245       -2.2383  -17.4588  -48.1422 H         1 UNK         0.0800 
    246 H246        0.4005  -15.9669  -48.5688 H         1 UNK         0.0800 
    247 H247        0.4720  -15.2296  -50.1558 H         1 UNK         0.0800 
@<TRIPOS>BOND
     1    1    2 1    
     2    1  127 1    
     3    1  128 1    
     4    1  129 1    
     5    2    3 2    
     6    2    4 am   BACKBONE|DICT|INTERRES
     7    4    5 1    
     8    4  130 1    
     9    5    6 1    
    10    5   65 1    
    11    5  131 1    
    12    6    7 1    
    13    6  132 1    
    14    6  133 1    
    15    7    8 1    
    16    8    9 1    
    17    8  134 1    
    18    8  135 1    
    19    9   10 ar   
    20    9   14 ar   
    21   10   11 ar   
    22   10  136 1    
    23   11   12 ar   
    24   11  126 1    
    25   12   13 ar   
    26   12  137 1    
    27   13   14 ar   
    28   13   15 1    
    29   14  138 1    
    30   15   16 1    
    31   15  139 1    
    32   15  140 1    
    33   16   17 1    
    34   17   18 1    
    35   17  141 1    
    36   17  142 1    
    37   18   19 1    
    38   18   67 1    
    39   18  143 1    
    40   19   20 am   BACKBONE|DICT|INTERRES
    41   19  144 1    
    42   20   21 2    
    43   20   22 1    
    44   22   23 1    
    45   22   24 1    
    46   22  145 1    
    47   23  146 1    
    48   23  147 1    
    49   23  148 1    
    50   24   25 am   BACKBONE|DICT|INTERRES
    51   24  149 1    
    52   25   26 2    
    53   25   27 1    
    54   27   28 1    
    55   27   29 1    
    56   27  150 1    
    57   28  151 1    
    58   28  152 1    
    59   28  153 1    
    60   29   30 am   BACKBONE|DICT|INTERRES
    61   29  154 1    
    62   30   31 2    
    63   30   32 1    
    64   32   33 1    
    65   32   34 1    
    66   32  155 1    
    67   33  156 1    
    68   33  157 1    
    69   33  158 1    
    70   34   35 am   BACKBONE|DICT|INTERRES
    71   34  159 1    
    72   35   36 2    
    73   35   37 1    
    74   37   38 1    
    75   37   39 1    
    76   37  160 1    
    77   38  161 1    
    78   38  162 1    
    79   38  163 1    
    80   39   40 am   BACKBONE|DICT|INTERRES
    81   39  164 1    
    82   40   41 2    
    83   40   42 1    
    84   42   43 1    
    85   42   44 1    
    86   42  165 1    
    87   43  166 1    
    88   43  167 1    
    89   43  168 1    
    90   44   45 am   BACKBONE|DICT|INTERRES
    91   44  169 1    
    92   45   46 2    
    93   45   47 1    
    94   47   48 1    
    95   47   49 1    
    96   47  170 1    
    97   48  171 1    
    98   48  172 1    
    99   48  173 1    
   100   49   50 am   BACKBONE|DICT|INTERRES
   101   49  174 1    
   102   50   51 2    
   103   50   52 1    
   104   52   53 1    
   105   52   54 1    
   106   52  175 1    
   107   53  176 1    
   108   53  177 1    
   109   53  178 1    
   110   54   55 am   BACKBONE|DICT|INTERRES
   111   54  179 1    
   112   55   56 2    
   113   55   57 1    
   114   57   58 1    
   115   57   59 1    
   116   57  180 1    
   117   58  181 1    
   118   58  182 1    
   119   58  183 1    
   120   59   60 am   BACKBONE|DICT|INTERRES
   121   59  184 1    
   122   60   61 2    
   123   60   62 1    
   124   62   63 1    
   125   62   64 1    
   126   62  185 1    
   127   63  186 1    
   128   63  187 1    
   129   63  188 1    
   130   64   65 am   BACKBONE|DICT|INTERRES
   131   64  189 1    
   132   65   66 2    
   133   67   68 2    
   134   67   69 am   BACKBONE|DICT|INTERRES
   135   69   70 1    
   136   69  190 1    
   137   70   71 1    
   138   70   72 1    
   139   70  191 1    
   140   71  192 1    
   141   71  193 1    
   142   71  194 1    
   143   72   73 2    
   144   72   74 am   BACKBONE|DICT|INTERRES
   145   74   75 1    
   146   74  195 1    
   147   75   76 1    
   148   75   77 1    
   149   75  196 1    
   150   76  197 1    
   151   76  198 1    
   152   76  199 1    
   153   77   78 2    
   154   77   79 am   BACKBONE|DICT|INTERRES
   155   79   80 1    
   156   79  200 1    
   157   80   81 1    
   158   80   82 1    
   159   80  201 1    
   160   81  202 1    
   161   81  203 1    
   162   81  204 1    
   163   82   83 2    
   164   82   84 am   BACKBONE|DICT|INTERRES
   165   84   85 1    
   166   84  205 1    
   167   85   86 1    
   168   85   87 1    
   169   85  206 1    
   170   86  207 1    
   171   86  208 1    
   172   86  209 1    
   173   87   88 2    
   174   87   89 am   BACKBONE|DICT|INTERRES
   175   89   90 1    
   176   89  210 1    
   177   90   91 1    
   178   90   92 1    
   179   90  211 1    
   180   91  212 1    
   181   91  213 1    
   182   91  214 1    
   183   92   93 2    
   184   92   94 am   BACKBONE|DICT|INTERRES
   185   94   95 1    
   186   94  215 1    
   187   95   96 1    
   188   95   97 1    
   189   95  216 1    
   190   96  217 1    
   191   96  218 1    
   192   96  219 1    
   193   97   98 2    
   194   97   99 am   BACKBONE|DICT|INTERRES
   195   99  100 1    
   196   99  220 1    
   197  100  101 1    
   198  100  102 1    
   199  100  221 1    
   200  101  222 1    
   201  101  223 1    
   202  101  224 1    
   203  102  103 2    
   204  102  104 am   BACKBONE|DICT|INTERRES
   205  104  105 1    
   206  104  225 1    
   207  105  106 1    
   208  105  107 1    
   209  105  226 1    
   210  106  227 1    
   211  106  228 1    
   212  106  229 1    
   213  107  108 2    
   214  107  109 am   BACKBONE|DICT|INTERRES
   215  109  110 1    
   216  109  230 1    
   217  110  111 1    
   218  110  112 1    
   219  110  231 1    
   220  111  232 1    
   221  111  233 1    
   222  111  234 1    
   223  112  113 2    
   224  112  114 am   BACKBONE|DICT|INTERRES
   225  114  115 1    
   226  114  235 1    
   227  115  116 1    
   228  115  117 1    
   229  115  236 1    
   230  116  237 1    
   231  116  238 1    
   232  116  239 1    
   233  117  118 2    
   234  117  119 am   BACKBONE|DICT|INTERRES
   235  119  120 1    
   236  119  240 1    
   237  120  121 1    
   238  120  124 1    
   239  120  241 1    
   240  121  122 am   BACKBONE|DICT|INTERRES
   241  121  123 2    
   242  122  242 1    
   243  122  243 1    
   244  124  125 1    
   245  124  244 1    
   246  124  245 1    
   247  125  126 1    
   248  126  246 1    
   249  126  247 1    
@<TRIPOS>SUBSTRUCTURE
     1 UNK         1 GROUP             0       ****    0 ROOT    
