@<TRIPOS>MOLECULE
3R540
247   249    1
SMALL
USER_CHARGES


@<TRIPOS>ATOM
      1 CA          2.9980  -16.5769  -47.4523 C.3       0 UNK        -0.1800 
      2 C           2.1159  -15.7921  -48.4100 C.2       0 UNK         0.5000 
      3 O           2.3416  -14.5969  -48.6062 O.2       0 UNK        -0.5000 
      4 N           1.1082  -16.4571  -48.9901 N.am      1 UNK        -0.5000 
      5 CA          0.1254  -15.9578  -49.9639 C.3       1 UNK         0.1400 
      6 C6          0.7408  -15.4576  -51.3012 C.3       23 UNK        -0.0398 
      7 S7          1.8246  -16.6630  -52.1375 S.3       23 UNK        -0.2404 
      8 C8          0.6397  -17.6418  -53.1172 C.3       23 UNK        -0.0205 
      9 C9          0.0322  -18.7617  -52.2883 C.ar      23 UNK        -0.0193 
     10 C10        -1.3123  -18.7252  -51.9086 C.ar      23 UNK        -0.1150 
     11 C11        -1.8469  -19.7326  -51.1000 C.ar      23 UNK        -0.0193 
     12 C12        -1.0385  -20.8010  -50.7054 C.ar      23 UNK        -0.1150 
     13 C13         0.2980  -20.8648  -51.1075 C.ar      23 UNK        -0.0193 
     14 C14         0.8276  -19.8416  -51.8957 C.ar      23 UNK        -0.1150 
     15 C15         1.1720  -22.0382  -50.6977 C.3       23 UNK        -0.0205 
     16 S16         2.3360  -21.6151  -49.3587 S.3       23 UNK        -0.2404 
     17 C17         1.2419  -21.1931  -47.9580 C.3       23 UNK        -0.0398 
     18 CA          0.9084  -22.4142  -47.0653 C.3       11 UNK         0.1400 
     19 N           0.6969  -22.0359  -45.6637 N.am      11 UNK        -0.5000 
     20 C           0.5667  -22.9099  -44.6550 C.2       10 UNK         0.5000 
     21 O           0.6614  -24.1274  -44.7935 O.2       10 UNK        -0.5000 
     22 CA          0.2138  -22.3423  -43.2699 C.3       10 UNK         0.1400 
     23 CB          1.4678  -21.8162  -42.5568 C.3       10 UNK        -0.1800 
     24 N          -0.8095  -21.2984  -43.3370 N.am      10 UNK        -0.5000 
     25 C          -2.0644  -21.5019  -43.7642 C.2       9 UNK         0.5000 
     26 O          -2.5001  -22.6063  -44.0873 O.2       9 UNK        -0.5000 
     27 CA         -2.9755  -20.2677  -43.8959 C.3       9 UNK         0.1400 
     28 CB         -3.6139  -19.9185  -42.5440 C.3       9 UNK        -0.1800 
     29 N          -2.2843  -19.0952  -44.4346 N.am      9 UNK        -0.5000 
     30 C          -1.7231  -19.0333  -45.6515 C.2       8 UNK         0.5000 
     31 O          -1.7432  -19.9603  -46.4616 O.2       8 UNK        -0.5000 
     32 CA         -0.9426  -17.7477  -45.9852 C.3       8 UNK         0.1400 
     33 CB         -1.8821  -16.5611  -46.2453 C.3       8 UNK        -0.1800 
     34 N          -0.0085  -17.3856  -44.9222 N.am      8 UNK        -0.5000 
     35 C           1.0178  -18.1417  -44.5107 C.2       7 UNK         0.5000 
     36 O           1.3397  -19.2065  -45.0380 O.2       7 UNK        -0.5000 
     37 CA          1.7796  -17.6430  -43.2712 C.3       7 UNK         0.1400 
     38 CB          2.8167  -16.5770  -43.6525 C.3       7 UNK        -0.1800 
     39 N           0.8750  -17.1077  -42.2523 N.am      7 UNK        -0.5000 
     40 C           0.0341  -17.8561  -41.5241 C.2       6 UNK         0.5000 
     41 O          -0.0542  -19.0782  -41.6252 O.2       6 UNK        -0.5000 
     42 CA         -0.8881  -17.1112  -40.5433 C.3       6 UNK         0.1400 
     43 CB         -0.1507  -16.8049  -39.2313 C.3       6 UNK        -0.1800 
     44 N          -1.4178  -15.8692  -41.1047 N.am      6 UNK        -0.5000 
     45 C          -2.2710  -15.8076  -42.1366 C.2       5 UNK         0.5000 
     46 O          -2.7239  -16.7952  -42.7135 O.2       5 UNK        -0.5000 
     47 CA         -2.6327  -14.4000  -42.6420 C.3       5 UNK         0.1400 
     48 CB         -3.7853  -13.8065  -41.8187 C.3       5 UNK        -0.1800 
     49 N          -1.4937  -13.4769  -42.6287 N.am      5 UNK        -0.5000 
     50 C          -0.3841  -13.6461  -43.3576 C.2       4 UNK         0.5000 
     51 O          -0.1853  -14.6202  -44.0895 O.2       4 UNK        -0.5000 
     52 CA          0.6955  -12.5667  -43.2444 C.3       4 UNK         0.1400 
     53 CB          1.7516  -12.9421  -42.1912 C.3       4 UNK        -0.1800 
     54 N           1.3026  -12.4537  -44.5605 N.am      4 UNK        -0.5000 
     55 C           1.9408  -11.3898  -45.0542 C.2       3 UNK         0.5000 
     56 O           2.2282  -10.3896  -44.3954 O.2       3 UNK        -0.5000 
     57 CA          2.2777  -11.4446  -46.5569 C.3       3 UNK         0.1400 
     58 CB          3.6497  -12.1008  -46.7752 C.3       3 UNK        -0.1800 
     59 N           1.2683  -12.1627  -47.3456 N.am      3 UNK        -0.5000 
     60 C           0.0003  -11.7466  -47.5203 C.2       2 UNK         0.5000 
     61 O          -0.4318  -10.6986  -47.0386 O.2       2 UNK        -0.5000 
     62 CA         -0.9522  -12.6220  -48.3607 C.3       2 UNK         0.1400 
     63 CB         -1.6611  -11.8065  -49.4602 C.3       2 UNK        -0.1800 
     64 N          -0.2656  -13.7634  -48.9562 N.am      2 UNK        -0.5000 
     65 C          -0.8289  -14.8989  -49.3720 C.2       1 UNK         0.5000 
     66 O          -2.0383  -15.1223  -49.3147 O.2       1 UNK        -0.5000 
     67 C          -0.2875  -23.2120  -47.6266 C.2       11 UNK         0.5000 
     68 O          -0.0888  -24.2318  -48.2915 O.2       11 UNK        -0.5000 
     69 N          -1.5096  -22.7535  -47.3214 N.am      12 UNK        -0.5000 
     70 CA         -2.7614  -23.4130  -47.6913 C.3       12 UNK         0.1400 
     71 CB         -3.9443  -22.5024  -47.3412 C.3       12 UNK        -0.1800 
     72 C          -2.9206  -24.8085  -47.0593 C.2       12 UNK         0.5000 
     73 O          -3.3870  -25.7284  -47.7300 O.2       12 UNK        -0.5000 
     74 N          -2.5015  -24.9532  -45.7961 N.am      13 UNK        -0.5000 
     75 CA         -2.4545  -26.2319  -45.0897 C.3       13 UNK         0.1400 
     76 CB         -2.2471  -25.9787  -43.5885 C.3       13 UNK        -0.1800 
     77 C          -1.3658  -27.1719  -45.6424 C.2       13 UNK         0.5000 
     78 O          -1.6101  -28.3726  -45.7685 O.2       13 UNK        -0.5000 
     79 N          -0.1870  -26.6143  -45.9507 N.am      14 UNK        -0.5000 
     80 CA          0.9818  -27.3506  -46.4273 C.3       14 UNK         0.1400 
     81 CB          2.2331  -26.4660  -46.3130 C.3       14 UNK        -0.1800 
     82 C           0.8392  -27.8848  -47.8618 C.2       14 UNK         0.5000 
     83 O           1.2394  -29.0234  -48.1118 O.2       14 UNK        -0.5000 
     84 N           0.3085  -27.0648  -48.7797 N.am      15 UNK        -0.5000 
     85 CA          0.2623  -27.3927  -50.2064 C.3       15 UNK         0.1400 
     86 CB          1.5983  -27.0121  -50.8710 C.3       15 UNK        -0.1800 
     87 C          -0.9086  -26.7460  -50.9585 C.2       15 UNK         0.5000 
     88 O          -1.4891  -27.4078  -51.8202 O.2       15 UNK        -0.5000 
     89 N          -1.2168  -25.4750  -50.6577 N.am      16 UNK        -0.5000 
     90 CA         -2.1420  -24.6137  -51.4058 C.3       16 UNK         0.1400 
     91 CB         -3.6091  -25.0752  -51.2388 C.3       16 UNK        -0.1800 
     92 C          -1.6996  -24.4508  -52.8765 C.2       16 UNK         0.5000 
     93 O          -0.6455  -23.8598  -53.1171 O.2       16 UNK        -0.5000 
     94 N          -2.5040  -24.9658  -53.8189 N.am      17 UNK        -0.5000 
     95 CA         -2.3621  -24.9454  -55.2818 C.3       17 UNK         0.1400 
     96 CB         -1.0496  -25.6106  -55.7404 C.3       17 UNK        -0.1800 
     97 C          -2.5392  -23.5456  -55.8997 C.2       17 UNK         0.5000 
     98 O          -3.3549  -23.3805  -56.8081 O.2       17 UNK        -0.5000 
     99 N          -1.7982  -22.5634  -55.3808 N.am      18 UNK        -0.5000 
    100 CA        -1.9641  -21.1413  -55.6616 C.3       18 UNK         0.1400 
    101 CB        -0.6345  -20.4353  -55.3597 C.3       18 UNK        -0.1800 
    102 C         -3.1161  -20.5437  -54.8293 C.2       18 UNK         0.5000 
    103 O         -3.5767  -21.1621  -53.8655 O.2       18 UNK        -0.5000 
    104 N         -3.5513  -19.3409  -55.2158 N.am      19 UNK        -0.5000 
    105 CA        -4.5834  -18.5607  -54.5405 C.3       19 UNK         0.1400 
    106 CB        -5.8675  -18.5818  -55.3849 C.3       19 UNK        -0.1800 
    107 C         -4.0770  -17.1243  -54.3513 C.2       19 UNK         0.5000 
    108 O         -3.3106  -16.6326  -55.1838 O.2       19 UNK        -0.5000 
    109 N         -4.5281  -16.4807  -53.2712 N.am      20 UNK        -0.5000 
    110 CA        -4.2166  -15.1047  -52.8952 C.3       20 UNK         0.1400 
    111 CB        -2.7357  -14.9635  -52.4954 C.3       20 UNK        -0.1800 
    112 C         -5.2163  -14.6964  -51.8016 C.2       20 UNK         0.5000 
    113 O         -6.4003  -14.5659  -52.1170 O.2       20 UNK        -0.5000 
    114 N         -4.7598  -14.5334  -50.5506 N.am      21 UNK        -0.5000 
    115 CA        -5.6238  -14.3444  -49.3856 C.3       21 UNK         0.1400 
    116 CB        -4.8872  -13.5134  -48.3160 C.3       21 UNK        -0.1800 
    117 C         -6.0795  -15.7280  -48.8884 C.2       21 UNK         0.5000 
    118 O         -7.0820  -16.2464  -49.3812 O.2       21 UNK        -0.5000 
    119 N         -5.3117  -16.3168  -47.9622 N.am      22 UNK        -0.5000 
    120 CA        -5.4320  -17.7135  -47.4981 C.3       22 UNK         0.1400 
    121 C         -6.7534  -18.0621  -46.7454 C.2       22 UNK         0.5000 
    122 N         -7.4978  -17.0881  -46.2367 N.am      22 UNK        -0.7600 
    123 O         -7.0949  -19.2305  -46.5843 O.2       22 UNK        -0.5000 
    124 C124       -5.0816  -18.7329  -48.6203 C.3       23 UNK        -0.0398 
    125 S125       -3.3724  -18.4969  -49.2089 S.3       23 UNK        -0.2404 
    126 C126       -3.2817  -19.6420  -50.6108 C.3       23 UNK        -0.0205 
    127 H127        3.1350  -16.0125  -46.5311 H         1 UNK         0.0600 
    128 H128        2.5647  -17.5451  -47.2002 H         1 UNK         0.0600 
    129 H129        3.9779  -16.7443  -47.8987 H         1 UNK         0.0600 
    130 H130        1.0058  -17.4382  -48.7767 H         1 UNK         0.3000 
    131 H131       -0.5016  -16.8182  -50.1917 H         1 UNK         0.0600 
    132 H132       -0.0389  -15.1569  -51.9994 H         1 UNK         0.0800 
    133 H133        1.3387  -14.5609  -51.1325 H         1 UNK         0.0800 
    134 H134       -0.1326  -16.9961  -53.5383 H         1 UNK         0.0800 
    135 H135        1.1662  -18.0794  -53.9665 H         1 UNK         0.0800 
    136 H136       -1.9359  -17.8974  -52.2097 H         1 UNK         0.1150 
    137 H137       -1.4468  -21.5724  -50.0697 H         1 UNK         0.1150 
    138 H138        1.8658  -19.8791  -52.1948 H         1 UNK         0.1150 
    139 H139        0.5602  -22.8923  -50.4125 H         1 UNK         0.0800 
    140 H140        1.7458  -22.3697  -51.5644 H         1 UNK         0.0800 
    141 H141        0.3459  -20.6712  -48.2965 H         1 UNK         0.0800 
    142 H142        1.7929  -20.4557  -47.3734 H         1 UNK         0.0800 
    143 H143        1.7712  -23.0836  -47.0675 H         1 UNK         0.0600 
    144 H144        0.6387  -21.0427  -45.4602 H         1 UNK         0.3000 
    145 H145       -0.1906  -23.1619  -42.6724 H         1 UNK         0.0600 
    146 H146        1.2390  -21.5016  -41.5386 H         1 UNK         0.0600 
    147 H147        2.2329  -22.5908  -42.4920 H         1 UNK         0.0600 
    148 H148        1.9053  -20.9668  -43.0803 H         1 UNK         0.0600 
    149 H149       -0.5390  -20.3737  -43.0166 H         1 UNK         0.3000 
    150 H150       -3.7772  -20.5228  -44.5917 H         1 UNK         0.0600 
    151 H151       -4.1449  -20.7760  -42.1287 H         1 UNK         0.0600 
    152 H152       -4.3358  -19.1083  -42.6475 H         1 UNK         0.0600 
    153 H153       -2.8653  -19.6090  -41.8141 H         1 UNK         0.0600 
    154 H154       -2.2446  -18.2791  -43.8297 H         1 UNK         0.3000 
    155 H155       -0.3642  -17.9323  -46.8921 H         1 UNK         0.0600 
    156 H156       -1.3191  -15.6497  -46.4468 H         1 UNK         0.0600 
    157 H157       -2.5385  -16.3649  -45.3980 H         1 UNK         0.0600 
    158 H158       -2.5098  -16.7458  -47.1138 H         1 UNK         0.0600 
    159 H159       -0.1721  -16.4949  -44.4608 H         1 UNK         0.3000 
    160 H160        2.3122  -18.4931  -42.8401 H         1 UNK         0.0600 
    161 H161        2.3547  -15.7118  -44.1290 H         1 UNK         0.0600 
    162 H162        3.5506  -16.9850  -44.3482 H         1 UNK         0.0600 
    163 H163        3.3637  -16.2272  -42.7769 H         1 UNK         0.0600 
    164 H164        0.8508  -16.1054  -42.1440 H         1 UNK         0.3000 
    165 H165       -1.7312  -17.7671  -40.3158 H         1 UNK         0.0600 
    166 H166        0.6901  -16.1279  -39.3879 H         1 UNK         0.0600 
    167 H167       -0.8188  -16.3476  -38.5013 H         1 UNK         0.0600 
    168 H168        0.2423  -17.7184  -38.7828 H         1 UNK         0.0600 
    169 H169       -1.0946  -15.0057  -40.6945 H         1 UNK         0.3000 
    170 H170       -2.9697  -14.4990  -43.6761 H         1 UNK         0.0600 
    171 H171       -4.6519  -14.4692  -41.8269 H         1 UNK         0.0600 
    172 H172       -3.5005  -13.6513  -40.7774 H         1 UNK         0.0600 
    173 H173       -4.1077  -12.8479  -42.2256 H         1 UNK         0.0600 
    174 H174       -1.5840  -12.6555  -42.0480 H         1 UNK         0.3000 
    175 H175        0.2259  -11.6173  -42.9786 H         1 UNK         0.0600 
    176 H176        2.5143  -12.1682  -42.1043 H         1 UNK         0.0600 
    177 H177        1.2979  -13.0615  -41.2067 H         1 UNK         0.0600 
    178 H178        2.2543  -13.8770  -42.4388 H         1 UNK         0.0600 
    179 H179        1.0858  -13.2282  -45.1750 H         1 UNK         0.3000 
    180 H180        2.3264  -10.4177  -46.9248 H         1 UNK         0.0600 
    181 H181        3.6579  -13.1384  -46.4387 H         1 UNK         0.0600 
    182 H182        4.4288  -11.5705  -46.2262 H         1 UNK         0.0600 
    183 H183        3.9290  -12.0895  -47.8289 H         1 UNK         0.0600 
    184 H184        1.5804  -13.0372  -47.7530 H         1 UNK         0.3000 
    185 H185       -1.7054  -12.9999  -47.6668 H         1 UNK         0.0600 
    186 H186       -2.3893  -12.4118  -49.9997 H         1 UNK         0.0600 
    187 H187       -2.2027  -10.9596  -49.0375 H         1 UNK         0.0600 
    188 H188       -0.9486  -11.4142  -50.1864 H         1 UNK         0.0600 
    189 H189        0.7466  -13.7108  -49.0141 H         1 UNK         0.3000 
    190 H190       -1.5898  -21.8788  -46.8091 H         1 UNK         0.3000 
    191 H191       -2.7520  -23.5386  -48.7725 H         1 UNK         0.0600 
    192 H192       -3.8190  -21.5198  -47.7932 H         1 UNK         0.0600 
    193 H193       -4.8818  -22.9193  -47.7106 H         1 UNK         0.0600 
    194 H194       -4.0464  -22.3643  -46.2653 H         1 UNK         0.0600 
    195 H195       -2.2028  -24.1302  -45.2809 H         1 UNK         0.3000 
    196 H196       -3.4194  -26.7272  -45.2174 H         1 UNK         0.0600 
    197 H197       -2.2331  -26.9167  -43.0323 H         1 UNK         0.0600 
    198 H198       -3.0513  -25.3679  -43.1779 H         1 UNK         0.0600 
    199 H199       -1.3056  -25.4654  -43.3917 H         1 UNK         0.0600 
    200 H200       -0.0463  -25.6278  -45.7514 H         1 UNK         0.3000 
    201 H201        1.1238  -28.2109  -45.7696 H         1 UNK         0.0600 
    202 H202        2.4178  -26.1763  -45.2786 H         1 UNK         0.0600 
    203 H203        2.1368  -25.5554  -46.9051 H         1 UNK         0.0600 
    204 H204        3.1204  -26.9941  -46.6642 H         1 UNK         0.0600 
    205 H205        0.0091  -26.1348  -48.5001 H         1 UNK         0.3000 
    206 H206        0.1254  -28.4707  -50.3174 H         1 UNK         0.0600 
    207 H207        1.8165  -25.9502  -50.7491 H         1 UNK         0.0600 
    208 H208        2.4285  -27.5756  -50.4452 H         1 UNK         0.0600 
    209 H209        1.5793  -27.2234  -51.9410 H         1 UNK         0.0600 
    210 H210       -0.6848  -25.0101  -49.9285 H         1 UNK         0.3000 
    211 H211       -2.0612  -23.6199  -50.9683 H         1 UNK         0.0600 
    212 H212       -3.7799  -26.0787  -51.6287 H         1 UNK         0.0600 
    213 H213       -4.2931  -24.3972  -51.7511 H         1 UNK         0.0600 
    214 H214       -3.9038  -25.0829  -50.1918 H         1 UNK         0.0600 
    215 H215       -3.3423  -25.4234  -53.4897 H         1 UNK         0.3000 
    216 H216       -3.1811  -25.5588  -55.6606 H         1 UNK         0.0600 
    217 H217       -0.9561  -26.6174  -55.3332 H         1 UNK         0.0600 
    218 H218       -0.1707  -25.0430  -55.4342 H         1 UNK         0.0600 
    219 H219       -1.0180  -25.6941  -56.8273 H         1 UNK         0.0600 
    220 H220       -1.2066  -22.8041  -54.5904 H         1 UNK         0.3000 
    221 H221       -2.1999  -21.0060  -56.7193 H         1 UNK         0.0600 
    222 H222       -0.3100  -20.6324  -54.3390 H         1 UNK         0.0600 
    223 H223        0.1533  -20.7806  -56.0292 H         1 UNK         0.0600 
    224 H224       -0.7148  -19.3546  -55.4820 H         1 UNK         0.0600 
    225 H225       -3.0796  -18.8542  -55.9667 H         1 UNK         0.3000 
    226 H226       -4.8024  -18.9819  -53.5582 H         1 UNK         0.0600 
    227 H227       -6.2364  -19.5997  -55.5125 H         1 UNK         0.0600 
    228 H228       -6.6606  -18.0058  -54.9066 H         1 UNK         0.0600 
    229 H229       -5.7044  -18.1580  -56.3767 H         1 UNK         0.0600 
    230 H230       -5.2004  -16.9376  -52.6698 H         1 UNK         0.3000 
    231 H231       -4.4049  -14.4558  -53.7529 H         1 UNK         0.0600 
    232 H232       -2.5243  -13.9795  -52.0753 H         1 UNK         0.0600 
    233 H233       -2.0829  -15.0848  -53.3593 H         1 UNK         0.0600 
    234 H234       -2.4557  -15.7181  -51.7635 H         1 UNK         0.0600 
    235 H235       -3.7819  -14.7167  -50.3476 H         1 UNK         0.3000 
    236 H236       -6.5176  -13.7863  -49.6726 H         1 UNK         0.0600 
    237 H237       -5.5091  -13.3807  -47.4300 H         1 UNK         0.0600 
    238 H238       -3.9528  -13.9727  -47.9966 H         1 UNK         0.0600 
    239 H239       -4.6506  -12.5189  -48.6939 H         1 UNK         0.0600 
    240 H240       -4.4968  -15.8174  -47.6383 H         1 UNK         0.3000 
    241 H241       -4.6708  -17.8250  -46.7254 H         1 UNK         0.0600 
    242 H242       -7.2323  -16.1241  -46.3574 H         1 UNK         0.3800 
    243 H243       -8.3453  -17.3179  -45.7421 H         1 UNK         0.3800 
    244 H244       -5.1726  -19.7562  -48.2577 H         1 UNK         0.0800 
    245 H245       -5.7715  -18.6419  -49.4600 H         1 UNK         0.0800 
    246 H246       -3.6474  -20.6250  -50.3103 H         1 UNK         0.0800 
    247 H247       -3.9324  -19.2945  -51.4123 H         1 UNK         0.0800 
@<TRIPOS>BOND
     1    1    2 1    
     2    1  127 1    
     3    1  128 1    
     4    1  129 1    
     5    2    3 2    
     6    2    4 am   BACKBONE|DICT|INTERRES
     7    4    5 1    
     8    4  130 1    
     9    5    6 1    
    10    5   65 1    
    11    5  131 1    
    12    6    7 1    
    13    6  132 1    
    14    6  133 1    
    15    7    8 1    
    16    8    9 1    
    17    8  134 1    
    18    8  135 1    
    19    9   10 ar   
    20    9   14 ar   
    21   10   11 ar   
    22   10  136 1    
    23   11   12 ar   
    24   11  126 1    
    25   12   13 ar   
    26   12  137 1    
    27   13   14 ar   
    28   13   15 1    
    29   14  138 1    
    30   15   16 1    
    31   15  139 1    
    32   15  140 1    
    33   16   17 1    
    34   17   18 1    
    35   17  141 1    
    36   17  142 1    
    37   18   19 1    
    38   18   67 1    
    39   18  143 1    
    40   19   20 am   BACKBONE|DICT|INTERRES
    41   19  144 1    
    42   20   21 2    
    43   20   22 1    
    44   22   23 1    
    45   22   24 1    
    46   22  145 1    
    47   23  146 1    
    48   23  147 1    
    49   23  148 1    
    50   24   25 am   BACKBONE|DICT|INTERRES
    51   24  149 1    
    52   25   26 2    
    53   25   27 1    
    54   27   28 1    
    55   27   29 1    
    56   27  150 1    
    57   28  151 1    
    58   28  152 1    
    59   28  153 1    
    60   29   30 am   BACKBONE|DICT|INTERRES
    61   29  154 1    
    62   30   31 2    
    63   30   32 1    
    64   32   33 1    
    65   32   34 1    
    66   32  155 1    
    67   33  156 1    
    68   33  157 1    
    69   33  158 1    
    70   34   35 am   BACKBONE|DICT|INTERRES
    71   34  159 1    
    72   35   36 2    
    73   35   37 1    
    74   37   38 1    
    75   37   39 1    
    76   37  160 1    
    77   38  161 1    
    78   38  162 1    
    79   38  163 1    
    80   39   40 am   BACKBONE|DICT|INTERRES
    81   39  164 1    
    82   40   41 2    
    83   40   42 1    
    84   42   43 1    
    85   42   44 1    
    86   42  165 1    
    87   43  166 1    
    88   43  167 1    
    89   43  168 1    
    90   44   45 am   BACKBONE|DICT|INTERRES
    91   44  169 1    
    92   45   46 2    
    93   45   47 1    
    94   47   48 1    
    95   47   49 1    
    96   47  170 1    
    97   48  171 1    
    98   48  172 1    
    99   48  173 1    
   100   49   50 am   BACKBONE|DICT|INTERRES
   101   49  174 1    
   102   50   51 2    
   103   50   52 1    
   104   52   53 1    
   105   52   54 1    
   106   52  175 1    
   107   53  176 1    
   108   53  177 1    
   109   53  178 1    
   110   54   55 am   BACKBONE|DICT|INTERRES
   111   54  179 1    
   112   55   56 2    
   113   55   57 1    
   114   57   58 1    
   115   57   59 1    
   116   57  180 1    
   117   58  181 1    
   118   58  182 1    
   119   58  183 1    
   120   59   60 am   BACKBONE|DICT|INTERRES
   121   59  184 1    
   122   60   61 2    
   123   60   62 1    
   124   62   63 1    
   125   62   64 1    
   126   62  185 1    
   127   63  186 1    
   128   63  187 1    
   129   63  188 1    
   130   64   65 am   BACKBONE|DICT|INTERRES
   131   64  189 1    
   132   65   66 2    
   133   67   68 2    
   134   67   69 am   BACKBONE|DICT|INTERRES
   135   69   70 1    
   136   69  190 1    
   137   70   71 1    
   138   70   72 1    
   139   70  191 1    
   140   71  192 1    
   141   71  193 1    
   142   71  194 1    
   143   72   73 2    
   144   72   74 am   BACKBONE|DICT|INTERRES
   145   74   75 1    
   146   74  195 1    
   147   75   76 1    
   148   75   77 1    
   149   75  196 1    
   150   76  197 1    
   151   76  198 1    
   152   76  199 1    
   153   77   78 2    
   154   77   79 am   BACKBONE|DICT|INTERRES
   155   79   80 1    
   156   79  200 1    
   157   80   81 1    
   158   80   82 1    
   159   80  201 1    
   160   81  202 1    
   161   81  203 1    
   162   81  204 1    
   163   82   83 2    
   164   82   84 am   BACKBONE|DICT|INTERRES
   165   84   85 1    
   166   84  205 1    
   167   85   86 1    
   168   85   87 1    
   169   85  206 1    
   170   86  207 1    
   171   86  208 1    
   172   86  209 1    
   173   87   88 2    
   174   87   89 am   BACKBONE|DICT|INTERRES
   175   89   90 1    
   176   89  210 1    
   177   90   91 1    
   178   90   92 1    
   179   90  211 1    
   180   91  212 1    
   181   91  213 1    
   182   91  214 1    
   183   92   93 2    
   184   92   94 am   BACKBONE|DICT|INTERRES
   185   94   95 1    
   186   94  215 1    
   187   95   96 1    
   188   95   97 1    
   189   95  216 1    
   190   96  217 1    
   191   96  218 1    
   192   96  219 1    
   193   97   98 2    
   194   97   99 am   BACKBONE|DICT|INTERRES
   195   99  100 1    
   196   99  220 1    
   197  100  101 1    
   198  100  102 1    
   199  100  221 1    
   200  101  222 1    
   201  101  223 1    
   202  101  224 1    
   203  102  103 2    
   204  102  104 am   BACKBONE|DICT|INTERRES
   205  104  105 1    
   206  104  225 1    
   207  105  106 1    
   208  105  107 1    
   209  105  226 1    
   210  106  227 1    
   211  106  228 1    
   212  106  229 1    
   213  107  108 2    
   214  107  109 am   BACKBONE|DICT|INTERRES
   215  109  110 1    
   216  109  230 1    
   217  110  111 1    
   218  110  112 1    
   219  110  231 1    
   220  111  232 1    
   221  111  233 1    
   222  111  234 1    
   223  112  113 2    
   224  112  114 am   BACKBONE|DICT|INTERRES
   225  114  115 1    
   226  114  235 1    
   227  115  116 1    
   228  115  117 1    
   229  115  236 1    
   230  116  237 1    
   231  116  238 1    
   232  116  239 1    
   233  117  118 2    
   234  117  119 am   BACKBONE|DICT|INTERRES
   235  119  120 1    
   236  119  240 1    
   237  120  121 1    
   238  120  124 1    
   239  120  241 1    
   240  121  122 am   BACKBONE|DICT|INTERRES
   241  121  123 2    
   242  122  242 1    
   243  122  243 1    
   244  124  125 1    
   245  124  244 1    
   246  124  245 1    
   247  125  126 1    
   248  126  246 1    
   249  126  247 1    
@<TRIPOS>SUBSTRUCTURE
     1 UNK         1 GROUP             0       ****    0 ROOT    
