@<TRIPOS>MOLECULE
3R540
247   249    1
SMALL
USER_CHARGES


@<TRIPOS>ATOM
      1 CA          0.9319   -7.7185  -49.4459 C.3       0 UNK        -0.1800 
      2 C           1.8602   -8.9243  -49.4083 C.2       0 UNK         0.5000 
      3 O           2.9163   -8.9039  -50.0404 O.2       0 UNK        -0.5000 
      4 N           1.4731   -9.9709  -48.6666 N.am      1 UNK        -0.5000 
      5 CA          2.2373  -11.2176  -48.5077 C.3       1 UNK         0.1400 
      6 C6          1.3076  -12.4023  -48.1250 C.3       23 UNK        -0.0398 
      7 S7          1.7734  -13.9580  -48.9518 S.3       23 UNK        -0.2404 
      8 C8          0.5185  -15.0870  -48.2761 C.3       23 UNK        -0.0205 
      9 C9          0.5804  -16.4471  -48.9522 C.ar      23 UNK        -0.0193 
     10 C10        -0.0322  -16.6270  -50.1946 C.ar      23 UNK        -0.1150 
     11 C11         0.0298  -17.8592  -50.8507 C.ar      23 UNK        -0.0193 
     12 C12         0.7096  -18.9217  -50.2459 C.ar      23 UNK        -0.1150 
     13 C13         1.3408  -18.7533  -49.0078 C.ar      23 UNK        -0.0193 
     14 C14         1.2639  -17.5148  -48.3602 C.ar      23 UNK        -0.1150 
     15 C15         2.1646  -19.8895  -48.4103 C.3       23 UNK        -0.0205 
     16 S16         1.4389  -20.5875  -46.8939 S.3       23 UNK        -0.2404 
     17 C17        -0.1751  -21.1809  -47.4915 C.3       23 UNK        -0.0398 
     18 CA         -0.6527  -22.4915  -46.8199 C.3       11 UNK         0.1400 
     19 N          -0.6835  -22.4298  -45.3461 N.am      11 UNK        -0.5000 
     20 C          -1.1114  -23.4068  -44.5246 C.2       10 UNK         0.5000 
     21 O          -1.5630  -24.4838  -44.9148 O.2       10 UNK        -0.5000 
     22 CA         -1.0925  -23.1191  -43.0167 C.3       10 UNK         0.1400 
     23 CB          0.3248  -23.2697  -42.4427 C.3       10 UNK        -0.1800 
     24 N          -1.6101  -21.7806  -42.7469 N.am      10 UNK        -0.5000 
     25 C          -2.9120  -21.4872  -42.6195 C.2       9 UNK         0.5000 
     26 O          -3.8024  -22.3370  -42.5911 O.2       9 UNK        -0.5000 
     27 CA         -3.2951  -19.9961  -42.5265 C.3       9 UNK         0.1400 
     28 CB         -3.3914  -19.5559  -41.0581 C.3       9 UNK        -0.1800 
     29 N          -2.3686  -19.1068  -43.2280 N.am      9 UNK        -0.5000 
     30 C          -2.1609  -19.0987  -44.5520 C.2       8 UNK         0.5000 
     31 O          -2.7651  -19.8211  -45.3453 O.2       8 UNK        -0.5000 
     32 CA         -1.0527  -18.1604  -45.0686 C.3       8 UNK         0.1400 
     33 CB         -1.6387  -16.7767  -45.3792 C.3       8 UNK        -0.1800 
     34 N           0.0980  -18.0079  -44.1702 N.am      8 UNK        -0.5000 
     35 C           0.8141  -18.9963  -43.6123 C.2       7 UNK         0.5000 
     36 O           0.5294  -20.1879  -43.7189 O.2       7 UNK        -0.5000 
     37 CA          2.0489  -18.6011  -42.7844 C.3       7 UNK         0.1400 
     38 CB          3.3276  -18.7736  -43.6190 C.3       7 UNK        -0.1800 
     39 N           1.9795  -17.2301  -42.2784 N.am      7 UNK        -0.5000 
     40 C           1.2636  -16.8435  -41.2130 C.2       6 UNK         0.5000 
     41 O           0.5943  -17.6138  -40.5240 O.2       6 UNK        -0.5000 
     42 CA          1.2919  -15.3417  -40.8674 C.3       6 UNK         0.1400 
     43 CB          2.4500  -15.0311  -39.9074 C.3       6 UNK        -0.1800 
     44 N           1.4197  -14.5018  -42.0589 N.am      6 UNK        -0.5000 
     45 C           0.4267  -14.2745  -42.9312 C.2       5 UNK         0.5000 
     46 O          -0.7278  -14.6664  -42.7658 O.2       5 UNK        -0.5000 
     47 CA          0.7917  -13.5190  -44.2252 C.3       5 UNK         0.1400 
     48 CB          0.5039  -12.0189  -44.0672 C.3       5 UNK        -0.1800 
     49 N           2.1873  -13.7230  -44.6334 N.am      5 UNK        -0.5000 
     50 C           2.6898  -14.9135  -45.0022 C.2       4 UNK         0.5000 
     51 O           1.9985  -15.9269  -45.0838 O.2       4 UNK        -0.5000 
     52 CA          4.2029  -15.0340  -45.2685 C.3       4 UNK         0.1400 
     53 CB          4.4914  -15.3507  -46.7426 C.3       4 UNK        -0.1800 
     54 N           4.9655  -13.8564  -44.8571 N.am      4 UNK        -0.5000 
     55 C           5.2403  -13.5443  -43.5823 C.2       3 UNK         0.5000 
     56 O           4.8901  -14.2356  -42.6249 O.2       3 UNK        -0.5000 
     57 CA          5.9889  -12.2198  -43.3294 C.3       3 UNK         0.1400 
     58 CB          7.5000  -12.4707  -43.2168 C.3       3 UNK        -0.1800 
     59 N           5.7480  -11.1940  -44.3499 N.am      3 UNK        -0.5000 
     60 C           4.5501  -10.6692  -44.6424 C.2       2 UNK         0.5000 
     61 O           3.5108  -11.0094  -44.0764 O.2       2 UNK        -0.5000 
     62 CA          4.4751   -9.6107  -45.7621 C.3       2 UNK         0.1400 
     63 CB          5.8282   -9.3008  -46.4422 C.3       2 UNK        -0.1800 
     64 N           3.4629   -9.9649  -46.7625 N.am      2 UNK        -0.5000 
     65 C           3.4266  -11.0702  -47.5252 C.2       1 UNK         0.5000 
     66 O           4.2861  -11.9506  -47.4784 O.2       1 UNK        -0.5000 
     67 C          -2.0142  -22.8756  -47.4285 C.2       11 UNK         0.5000 
     68 O          -2.0536  -23.6193  -48.4103 O.2       11 UNK        -0.5000 
     69 N          -3.0979  -22.3906  -46.8057 N.am      12 UNK        -0.5000 
     70 CA         -4.4936  -22.6865  -47.1215 C.3       12 UNK         0.1400 
     71 CB         -5.3900  -22.0455  -46.0522 C.3       12 UNK        -0.1800 
     72 C          -4.8146  -24.1870  -47.2549 C.2       12 UNK         0.5000 
     73 O          -5.6254  -24.5457  -48.1091 O.2       12 UNK        -0.5000 
     74 N          -4.1524  -25.0192  -46.4403 N.am      13 UNK        -0.5000 
     75 CA         -4.2665  -26.4744  -46.4580 C.3       13 UNK         0.1400 
     76 CB         -4.5137  -26.9734  -45.0257 C.3       13 UNK        -0.1800 
     77 C          -3.0058  -27.1313  -47.0440 C.2       13 UNK         0.5000 
     78 O          -3.1293  -28.0389  -47.8657 O.2       13 UNK        -0.5000 
     79 N          -1.8191  -26.6733  -46.6184 N.am      14 UNK        -0.5000 
     80 CA         -0.5240  -27.2846  -46.9315 C.3       14 UNK         0.1400 
     81 CB          0.5561  -26.6857  -46.0170 C.3       14 UNK        -0.1800 
     82 C          -0.1111  -27.1485  -48.4065 C.2       14 UNK         0.5000 
     83 O           0.4563  -28.0884  -48.9645 O.2       14 UNK        -0.5000 
     84 N          -0.4137  -25.9926  -49.0084 N.am      15 UNK        -0.5000 
     85 CA         -0.1882  -25.7036  -50.4264 C.3       15 UNK         0.1400 
     86 CB          0.5261  -24.3449  -50.5420 C.3       15 UNK        -0.1800 
     87 C          -1.5123  -25.6959  -51.2151 C.2       15 UNK         0.5000 
     88 O          -1.4902  -25.4591  -52.4232 O.2       15 UNK        -0.5000 
     89 N          -2.6366  -25.9216  -50.5147 N.am      16 UNK        -0.5000 
     90 CA         -4.0239  -25.8109  -50.9770 C.3       16 UNK         0.1400 
     91 CB         -4.3443  -26.8974  -52.0234 C.3       16 UNK        -0.1800 
     92 C          -4.3743  -24.3892  -51.4661 C.2       16 UNK         0.5000 
     93 O          -5.2166  -24.2333  -52.3523 O.2       16 UNK        -0.5000 
     94 N          -3.7183  -23.3698  -50.8881 N.am      17 UNK        -0.5000 
     95 CA         -3.7497  -21.9825  -51.3566 C.3       17 UNK         0.1400 
     96 CB         -2.7393  -21.1452  -50.5590 C.3       17 UNK        -0.1800 
     97 C          -5.1416  -21.3297  -51.3182 C.2       17 UNK         0.5000 
     98 O          -5.4058  -20.4469  -52.1312 O.2       17 UNK        -0.5000 
     99 N          -6.0121  -21.7877  -50.4089 N.am      18 UNK        -0.5000 
    100 CA        -7.3923  -21.3192  -50.2863 C.3       18 UNK         0.1400 
    101 CB        -7.9223  -21.6634  -48.8872 C.3       18 UNK        -0.1800 
    102 C         -8.3111  -21.9000  -51.3758 C.2       18 UNK         0.5000 
    103 O         -9.2366  -21.2157  -51.8122 O.2       18 UNK        -0.5000 
    104 N         -8.0335  -23.1381  -51.8071 N.am      19 UNK        -0.5000 
    105 CA        -8.7542  -23.8166  -52.8844 C.3       19 UNK         0.1400 
    106 CB        -8.5852  -25.3366  -52.7347 C.3       19 UNK        -0.1800 
    107 C         -8.2659  -23.3440  -54.2634 C.2       19 UNK         0.5000 
    108 O         -9.0804  -23.1252  -55.1605 O.2       19 UNK        -0.5000 
    109 N         -6.9439  -23.1721  -54.3947 N.am      20 UNK        -0.5000 
    110 CA        -6.2781  -22.6796  -55.6002 C.3       20 UNK         0.1400 
    111 CB        -4.7906  -23.0596  -55.5228 C.3       20 UNK        -0.1800 
    112 C         -6.4227  -21.1589  -55.8055 C.2       20 UNK         0.5000 
    113 O         -6.1343  -20.6752  -56.9008 O.2       20 UNK        -0.5000 
    114 N         -6.8017  -20.4280  -54.7450 N.am      21 UNK        -0.5000 
    115 CA        -6.8560  -18.9622  -54.6426 C.3       21 UNK         0.1400 
    116 CB        -8.0026  -18.4012  -55.5083 C.3       21 UNK        -0.1800 
    117 C         -5.4896  -18.3036  -54.9427 C.2       21 UNK         0.5000 
    118 O         -5.4303  -17.2541  -55.5859 O.2       21 UNK        -0.5000 
    119 N         -4.4161  -18.9793  -54.5096 N.am      22 UNK        -0.5000 
    120 CA        -3.0047  -18.7125  -54.8378 C.3       22 UNK         0.1400 
    121 C         -2.6413  -18.8305  -56.3543 C.2       22 UNK         0.5000 
    122 N         -3.4804  -19.4010  -57.2115 N.am      22 UNK        -0.7600 
    123 O         -1.5532  -18.4356  -56.7646 O.2       22 UNK        -0.5000 
    124 C124       -2.4720  -17.4037  -54.1885 C.3       23 UNK        -0.0398 
    125 S125       -2.3056  -17.5423  -52.3746 S.3       23 UNK        -0.2404 
    126 C126       -0.5453  -18.0091  -52.2537 C.3       23 UNK        -0.0205 
    127 H127        0.6185   -7.5184  -50.4705 H         1 UNK         0.0600 
    128 H128        1.4476   -6.8359  -49.0676 H         1 UNK         0.0600 
    129 H129        0.0379   -7.8751  -48.8418 H         1 UNK         0.0600 
    130 H130        0.5935   -9.9243  -48.1712 H         1 UNK         0.3000 
    131 H131        2.6789  -11.4369  -49.4825 H         1 UNK         0.0600 
    132 H132        0.2805  -12.1912  -48.4266 H         1 UNK         0.0800 
    133 H133        1.2715  -12.5597  -47.0472 H         1 UNK         0.0800 
    134 H134        0.6718  -15.1884  -47.2038 H         1 UNK         0.0800 
    135 H135       -0.4753  -14.6568  -48.4093 H         1 UNK         0.0800 
    136 H136       -0.5373  -15.7954  -50.6658 H         1 UNK         0.1150 
    137 H137        0.7841  -19.8698  -50.7598 H         1 UNK         0.1150 
    138 H138        1.7527  -17.3782  -47.4054 H         1 UNK         0.1150 
    139 H139        2.3057  -20.6910  -49.1371 H         1 UNK         0.0800 
    140 H140        3.1623  -19.5154  -48.1766 H         1 UNK         0.0800 
    141 H141       -0.1028  -21.3307  -48.5704 H         1 UNK         0.0800 
    142 H142       -0.9047  -20.3828  -47.3517 H         1 UNK         0.0800 
    143 H143        0.0518  -23.2822  -47.0848 H         1 UNK         0.0600 
    144 H144       -0.3026  -21.5866  -44.9280 H         1 UNK         0.3000 
    145 H145       -1.7279  -23.8580  -42.5235 H         1 UNK         0.0600 
    146 H146        0.3416  -23.0551  -41.3741 H         1 UNK         0.0600 
    147 H147        0.6876  -24.2897  -42.5755 H         1 UNK         0.0600 
    148 H148        1.0400  -22.6064  -42.9288 H         1 UNK         0.0600 
    149 H149       -0.9401  -21.0226  -42.8342 H         1 UNK         0.3000 
    150 H150       -4.2795  -19.8818  -42.9852 H         1 UNK         0.0600 
    151 H151       -4.0907  -20.1853  -40.5060 H         1 UNK         0.0600 
    152 H152       -3.7466  -18.5284  -40.9764 H         1 UNK         0.0600 
    153 H153       -2.4251  -19.6184  -40.5558 H         1 UNK         0.0600 
    154 H154       -1.8092  -18.4903  -42.6562 H         1 UNK         0.3000 
    155 H155       -0.6690  -18.5749  -45.9999 H         1 UNK         0.0600 
    156 H156       -2.0661  -16.3127  -44.4898 H         1 UNK         0.0600 
    157 H157       -2.4297  -16.8466  -46.1269 H         1 UNK         0.0600 
    158 H158       -0.8783  -16.1050  -45.7726 H         1 UNK         0.0600 
    159 H159        0.4737  -17.0716  -44.0901 H         1 UNK         0.3000 
    160 H160        2.1072  -19.2840  -41.9341 H         1 UNK         0.0600 
    161 H161        3.3115  -18.1602  -44.5199 H         1 UNK         0.0600 
    162 H162        3.4434  -19.8103  -43.9381 H         1 UNK         0.0600 
    163 H163        4.2155  -18.5086  -43.0449 H         1 UNK         0.0600 
    164 H164        2.4657  -16.5278  -42.8156 H         1 UNK         0.3000 
    165 H165        0.3550  -15.0955  -40.3630 H         1 UNK         0.0600 
    166 H166        2.4462  -13.9818  -39.6116 H         1 UNK         0.0600 
    167 H167        2.3720  -15.6258  -38.9963 H         1 UNK         0.0600 
    168 H168        3.4185  -15.2482  -40.3600 H         1 UNK         0.0600 
    169 H169        2.3411  -14.1412  -42.2660 H         1 UNK         0.3000 
    170 H170        0.1525  -13.9028  -45.0227 H         1 UNK         0.0600 
    171 H171       -0.5561  -11.8456  -43.8780 H         1 UNK         0.0600 
    172 H172        1.0571  -11.5905  -43.2308 H         1 UNK         0.0600 
    173 H173        0.7694  -11.4609  -44.9647 H         1 UNK         0.0600 
    174 H174        2.8049  -12.9225  -44.5527 H         1 UNK         0.3000 
    175 H175        4.5541  -15.8849  -44.6810 H         1 UNK         0.0600 
    176 H176        4.1949  -14.5337  -47.3973 H         1 UNK         0.0600 
    177 H177        5.5525  -15.5395  -46.9042 H         1 UNK         0.0600 
    178 H178        3.9510  -16.2409  -47.0667 H         1 UNK         0.0600 
    179 H179        5.2365  -13.2134  -45.5899 H         1 UNK         0.3000 
    180 H180        5.6357  -11.8254  -42.3744 H         1 UNK         0.0600 
    181 H181        7.9175  -12.8394  -44.1546 H         1 UNK         0.0600 
    182 H182        7.7167  -13.2125  -42.4468 H         1 UNK         0.0600 
    183 H183        8.0330  -11.5590  -42.9462 H         1 UNK         0.0600 
    184 H184        6.5526  -10.8770  -44.8709 H         1 UNK         0.3000 
    185 H185        4.1289   -8.6928  -45.2852 H         1 UNK         0.0600 
    186 H186        6.5546   -8.9201  -45.7231 H         1 UNK         0.0600 
    187 H187        6.2608  -10.1786  -46.9234 H         1 UNK         0.0600 
    188 H188        5.7091   -8.5340  -47.2079 H         1 UNK         0.0600 
    189 H189        2.6974   -9.3133  -46.8559 H         1 UNK         0.3000 
    190 H190       -2.9484  -21.7258  -46.0530 H         1 UNK         0.3000 
    191 H191       -4.7114  -22.2148  -48.0783 H         1 UNK         0.0600 
    192 H192       -5.2920  -20.9597  -46.0545 H         1 UNK         0.0600 
    193 H193       -6.4414  -22.2790  -46.2229 H         1 UNK         0.0600 
    194 H194       -5.1369  -22.4018  -45.0531 H         1 UNK         0.0600 
    195 H195       -3.4651  -24.6286  -45.8062 H         1 UNK         0.3000 
    196 H196       -5.1161  -26.7830  -47.0710 H         1 UNK         0.0600 
    197 H197       -4.5947  -28.0608  -44.9983 H         1 UNK         0.0600 
    198 H198       -5.4429  -26.5681  -44.6248 H         1 UNK         0.0600 
    199 H199       -3.7061  -26.6854  -44.3513 H         1 UNK         0.0600 
    200 H200       -1.7935  -25.9056  -45.9496 H         1 UNK         0.3000 
    201 H201       -0.5993  -28.3510  -46.7087 H         1 UNK         0.0600 
    202 H202        0.3064  -26.8279  -44.9654 H         1 UNK         0.0600 
    203 H203        0.6827  -25.6164  -46.1890 H         1 UNK         0.0600 
    204 H204        1.5221  -27.1621  -46.1891 H         1 UNK         0.0600 
    205 H205       -0.9046  -25.2742  -48.4875 H         1 UNK         0.3000 
    206 H206        0.4523  -26.4628  -50.8793 H         1 UNK         0.0600 
    207 H207        1.4571  -24.3396  -49.9749 H         1 UNK         0.0600 
    208 H208        0.7782  -24.1229  -51.5796 H         1 UNK         0.0600 
    209 H209       -0.0930  -23.5263  -50.1759 H         1 UNK         0.0600 
    210 H210       -2.5248  -26.1281  -49.5329 H         1 UNK         0.3000 
    211 H211       -4.6521  -26.0007  -50.1067 H         1 UNK         0.0600 
    212 H212       -3.8130  -26.7281  -52.9604 H         1 UNK         0.0600 
    213 H213       -5.4102  -26.9169  -52.2526 H         1 UNK         0.0600 
    214 H214       -4.0746  -27.8881  -51.6576 H         1 UNK         0.0600 
    215 H215       -3.0642  -23.5795  -50.1407 H         1 UNK         0.3000 
    216 H216       -3.4265  -21.9897  -52.3993 H         1 UNK         0.0600 
    217 H217       -2.6715  -20.1339  -50.9594 H         1 UNK         0.0600 
    218 H218       -1.7398  -21.5775  -50.6047 H         1 UNK         0.0600 
    219 H219       -3.0248  -21.0566  -49.5114 H         1 UNK         0.0600 
    220 H220       -5.7311  -22.5525  -49.8130 H         1 UNK         0.3000 
    221 H221       -7.4036  -20.2320  -50.3918 H         1 UNK         0.0600 
    222 H222       -7.8604  -22.7328  -48.6812 H         1 UNK         0.0600 
    223 H223       -7.3581  -21.1359  -48.1189 H         1 UNK         0.0600 
    224 H224       -8.9665  -21.3668  -48.7793 H         1 UNK         0.0600 
    225 H225       -7.2169  -23.6103  -51.4445 H         1 UNK         0.3000 
    226 H226       -9.8187  -23.5854  -52.8034 H         1 UNK         0.0600 
    227 H227       -8.9634  -25.6819  -51.7724 H         1 UNK         0.0600 
    228 H228       -9.1377  -25.8676  -53.5109 H         1 UNK         0.0600 
    229 H229       -7.5404  -25.6387  -52.8119 H         1 UNK         0.0600 
    230 H230       -6.3400  -23.4389  -53.6203 H         1 UNK         0.3000 
    231 H231       -6.7158  -23.1744  -56.4695 H         1 UNK         0.0600 
    232 H232       -4.6634  -24.1377  -55.4218 H         1 UNK         0.0600 
    233 H233       -4.2989  -22.5853  -54.6729 H         1 UNK         0.0600 
    234 H234       -4.2582  -22.7522  -56.4239 H         1 UNK         0.0600 
    235 H235       -6.9550  -20.9214  -53.8766 H         1 UNK         0.3000 
    236 H236       -7.0842  -18.7331  -53.6007 H         1 UNK         0.0600 
    237 H237       -8.1306  -17.3310  -55.3418 H         1 UNK         0.0600 
    238 H238       -7.8158  -18.5469  -56.5726 H         1 UNK         0.0600 
    239 H239       -8.9500  -18.8824  -55.2651 H         1 UNK         0.0600 
    240 H240       -4.5913  -19.7793  -53.9132 H         1 UNK         0.3000 
    241 H241       -2.4537  -19.5390  -54.3879 H         1 UNK         0.0600 
    242 H242       -3.2109  -19.4746  -58.1795 H         1 UNK         0.3800 
    243 H243       -4.3930  -19.7397  -56.9263 H         1 UNK         0.3800 
    244 H244       -3.1316  -16.5657  -54.4148 H         1 UNK         0.0800 
    245 H245       -1.5013  -17.1202  -54.5966 H         1 UNK         0.0800 
    246 H246        0.0473  -17.3806  -52.9195 H         1 UNK         0.0800 
    247 H247       -0.4313  -19.0334  -52.6121 H         1 UNK         0.0800 
@<TRIPOS>BOND
     1    1    2 1    
     2    1  127 1    
     3    1  128 1    
     4    1  129 1    
     5    2    3 2    
     6    2    4 am   BACKBONE|DICT|INTERRES
     7    4    5 1    
     8    4  130 1    
     9    5    6 1    
    10    5   65 1    
    11    5  131 1    
    12    6    7 1    
    13    6  132 1    
    14    6  133 1    
    15    7    8 1    
    16    8    9 1    
    17    8  134 1    
    18    8  135 1    
    19    9   10 ar   
    20    9   14 ar   
    21   10   11 ar   
    22   10  136 1    
    23   11   12 ar   
    24   11  126 1    
    25   12   13 ar   
    26   12  137 1    
    27   13   14 ar   
    28   13   15 1    
    29   14  138 1    
    30   15   16 1    
    31   15  139 1    
    32   15  140 1    
    33   16   17 1    
    34   17   18 1    
    35   17  141 1    
    36   17  142 1    
    37   18   19 1    
    38   18   67 1    
    39   18  143 1    
    40   19   20 am   BACKBONE|DICT|INTERRES
    41   19  144 1    
    42   20   21 2    
    43   20   22 1    
    44   22   23 1    
    45   22   24 1    
    46   22  145 1    
    47   23  146 1    
    48   23  147 1    
    49   23  148 1    
    50   24   25 am   BACKBONE|DICT|INTERRES
    51   24  149 1    
    52   25   26 2    
    53   25   27 1    
    54   27   28 1    
    55   27   29 1    
    56   27  150 1    
    57   28  151 1    
    58   28  152 1    
    59   28  153 1    
    60   29   30 am   BACKBONE|DICT|INTERRES
    61   29  154 1    
    62   30   31 2    
    63   30   32 1    
    64   32   33 1    
    65   32   34 1    
    66   32  155 1    
    67   33  156 1    
    68   33  157 1    
    69   33  158 1    
    70   34   35 am   BACKBONE|DICT|INTERRES
    71   34  159 1    
    72   35   36 2    
    73   35   37 1    
    74   37   38 1    
    75   37   39 1    
    76   37  160 1    
    77   38  161 1    
    78   38  162 1    
    79   38  163 1    
    80   39   40 am   BACKBONE|DICT|INTERRES
    81   39  164 1    
    82   40   41 2    
    83   40   42 1    
    84   42   43 1    
    85   42   44 1    
    86   42  165 1    
    87   43  166 1    
    88   43  167 1    
    89   43  168 1    
    90   44   45 am   BACKBONE|DICT|INTERRES
    91   44  169 1    
    92   45   46 2    
    93   45   47 1    
    94   47   48 1    
    95   47   49 1    
    96   47  170 1    
    97   48  171 1    
    98   48  172 1    
    99   48  173 1    
   100   49   50 am   BACKBONE|DICT|INTERRES
   101   49  174 1    
   102   50   51 2    
   103   50   52 1    
   104   52   53 1    
   105   52   54 1    
   106   52  175 1    
   107   53  176 1    
   108   53  177 1    
   109   53  178 1    
   110   54   55 am   BACKBONE|DICT|INTERRES
   111   54  179 1    
   112   55   56 2    
   113   55   57 1    
   114   57   58 1    
   115   57   59 1    
   116   57  180 1    
   117   58  181 1    
   118   58  182 1    
   119   58  183 1    
   120   59   60 am   BACKBONE|DICT|INTERRES
   121   59  184 1    
   122   60   61 2    
   123   60   62 1    
   124   62   63 1    
   125   62   64 1    
   126   62  185 1    
   127   63  186 1    
   128   63  187 1    
   129   63  188 1    
   130   64   65 am   BACKBONE|DICT|INTERRES
   131   64  189 1    
   132   65   66 2    
   133   67   68 2    
   134   67   69 am   BACKBONE|DICT|INTERRES
   135   69   70 1    
   136   69  190 1    
   137   70   71 1    
   138   70   72 1    
   139   70  191 1    
   140   71  192 1    
   141   71  193 1    
   142   71  194 1    
   143   72   73 2    
   144   72   74 am   BACKBONE|DICT|INTERRES
   145   74   75 1    
   146   74  195 1    
   147   75   76 1    
   148   75   77 1    
   149   75  196 1    
   150   76  197 1    
   151   76  198 1    
   152   76  199 1    
   153   77   78 2    
   154   77   79 am   BACKBONE|DICT|INTERRES
   155   79   80 1    
   156   79  200 1    
   157   80   81 1    
   158   80   82 1    
   159   80  201 1    
   160   81  202 1    
   161   81  203 1    
   162   81  204 1    
   163   82   83 2    
   164   82   84 am   BACKBONE|DICT|INTERRES
   165   84   85 1    
   166   84  205 1    
   167   85   86 1    
   168   85   87 1    
   169   85  206 1    
   170   86  207 1    
   171   86  208 1    
   172   86  209 1    
   173   87   88 2    
   174   87   89 am   BACKBONE|DICT|INTERRES
   175   89   90 1    
   176   89  210 1    
   177   90   91 1    
   178   90   92 1    
   179   90  211 1    
   180   91  212 1    
   181   91  213 1    
   182   91  214 1    
   183   92   93 2    
   184   92   94 am   BACKBONE|DICT|INTERRES
   185   94   95 1    
   186   94  215 1    
   187   95   96 1    
   188   95   97 1    
   189   95  216 1    
   190   96  217 1    
   191   96  218 1    
   192   96  219 1    
   193   97   98 2    
   194   97   99 am   BACKBONE|DICT|INTERRES
   195   99  100 1    
   196   99  220 1    
   197  100  101 1    
   198  100  102 1    
   199  100  221 1    
   200  101  222 1    
   201  101  223 1    
   202  101  224 1    
   203  102  103 2    
   204  102  104 am   BACKBONE|DICT|INTERRES
   205  104  105 1    
   206  104  225 1    
   207  105  106 1    
   208  105  107 1    
   209  105  226 1    
   210  106  227 1    
   211  106  228 1    
   212  106  229 1    
   213  107  108 2    
   214  107  109 am   BACKBONE|DICT|INTERRES
   215  109  110 1    
   216  109  230 1    
   217  110  111 1    
   218  110  112 1    
   219  110  231 1    
   220  111  232 1    
   221  111  233 1    
   222  111  234 1    
   223  112  113 2    
   224  112  114 am   BACKBONE|DICT|INTERRES
   225  114  115 1    
   226  114  235 1    
   227  115  116 1    
   228  115  117 1    
   229  115  236 1    
   230  116  237 1    
   231  116  238 1    
   232  116  239 1    
   233  117  118 2    
   234  117  119 am   BACKBONE|DICT|INTERRES
   235  119  120 1    
   236  119  240 1    
   237  120  121 1    
   238  120  124 1    
   239  120  241 1    
   240  121  122 am   BACKBONE|DICT|INTERRES
   241  121  123 2    
   242  122  242 1    
   243  122  243 1    
   244  124  125 1    
   245  124  244 1    
   246  124  245 1    
   247  125  126 1    
   248  126  246 1    
   249  126  247 1    
@<TRIPOS>SUBSTRUCTURE
     1 UNK         1 GROUP             0       ****    0 ROOT    
