@<TRIPOS>MOLECULE
3R540
247   249    1
SMALL
USER_CHARGES


@<TRIPOS>ATOM
      1 CA          1.6698  -12.5202  -52.9670 C.3       0 UNK        -0.1800 
      2 C           1.3485  -12.4414  -51.4811 C.2       0 UNK         0.5000 
      3 O           1.1651  -11.3459  -50.9497 O.2       0 UNK        -0.5000 
      4 N           1.2874  -13.5968  -50.8103 N.am      1 UNK        -0.5000 
      5 CA          0.9259  -13.7237  -49.3975 C.3       1 UNK         0.1400 
      6 C6          1.3259  -15.1037  -48.8154 C.3       23 UNK        -0.0398 
      7 S7          3.1248  -15.3095  -48.5927 S.3       23 UNK        -0.2404 
      8 C8          3.6685  -16.0250  -50.1782 C.3       23 UNK        -0.0205 
      9 C9          3.0924  -17.4092  -50.4412 C.ar      23 UNK        -0.0193 
     10 C10         1.9976  -17.5647  -51.2961 C.ar      23 UNK        -0.1150 
     11 C11         1.4896  -18.8345  -51.5794 C.ar      23 UNK        -0.0193 
     12 C12         2.0920  -19.9591  -51.0066 C.ar      23 UNK        -0.1150 
     13 C13         3.1863  -19.8190  -50.1472 C.ar      23 UNK        -0.0193 
     14 C14         3.6811  -18.5405  -49.8683 C.ar      23 UNK        -0.1150 
     15 C15         3.8614  -21.0500  -49.5560 C.3       23 UNK        -0.0205 
     16 S16         3.7003  -21.1327  -47.7445 S.3       23 UNK        -0.2404 
     17 C17         1.9109  -21.4237  -47.5242 C.3       23 UNK        -0.0398 
     18 CA          1.5956  -22.5500  -46.4981 C.3       11 UNK         0.1400 
     19 N           2.2492  -22.3100  -45.2136 N.am      11 UNK        -0.5000 
     20 C           2.8409  -23.2201  -44.4335 C.2       10 UNK         0.5000 
     21 O           3.0282  -24.3921  -44.7672 O.2       10 UNK        -0.5000 
     22 CA          3.2651  -22.7304  -43.0319 C.3       10 UNK         0.1400 
     23 CB          4.3394  -23.6182  -42.3688 C.3       10 UNK        -0.1800 
     24 N           3.6464  -21.3135  -43.0125 N.am      10 UNK        -0.5000 
     25 C           4.7079  -20.7417  -43.6025 C.2       9 UNK         0.5000 
     26 O           5.5812  -21.3736  -44.1984 O.2       9 UNK        -0.5000 
     27 CA          4.8227  -19.2028  -43.5292 C.3       9 UNK         0.1400 
     28 CB          4.7573  -18.5883  -44.9379 C.3       9 UNK        -0.1800 
     29 N           3.7990  -18.5709  -42.6929 N.am      9 UNK        -0.5000 
     30 C           3.7904  -18.5549  -41.3535 C.2       8 UNK         0.5000 
     31 O           4.6902  -19.0295  -40.6598 O.2       8 UNK        -0.5000 
     32 CA          2.5492  -17.9416  -40.6735 C.3       8 UNK         0.1400 
     33 CB          2.7305  -16.4298  -40.4717 C.3       8 UNK        -0.1800 
     34 N           1.3030  -18.1921  -41.4047 N.am      8 UNK        -0.5000 
     35 C           0.7649  -19.4055  -41.6002 C.2       7 UNK         0.5000 
     36 O           1.2509  -20.4462  -41.1566 O.2       7 UNK        -0.5000 
     37 CA         -0.4906  -19.4798  -42.4909 C.3       7 UNK         0.1400 
     38 CB         -1.7496  -19.0868  -41.7048 C.3       7 UNK        -0.1800 
     39 N          -0.3790  -18.6566  -43.6963 N.am      7 UNK        -0.5000 
     40 C           0.5515  -18.8391  -44.6444 C.2       6 UNK         0.5000 
     41 O           1.3803  -19.7457  -44.6157 O.2       6 UNK        -0.5000 
     42 CA          0.6094  -17.8102  -45.7840 C.3       6 UNK         0.1400 
     43 CB         -0.4951  -18.0715  -46.8145 C.3       6 UNK        -0.1800 
     44 N           0.5042  -16.4413  -45.2892 N.am      6 UNK        -0.5000 
     45 C           1.3890  -15.8513  -44.4751 C.2       5 UNK         0.5000 
     46 O           2.4302  -16.3816  -44.0922 O.2       5 UNK        -0.5000 
     47 CA          1.0151  -14.4540  -43.9560 C.3       5 UNK         0.1400 
     48 CB          1.3435  -13.3736  -44.9978 C.3       5 UNK        -0.1800 
     49 N          -0.3980  -14.3732  -43.5827 N.am      5 UNK        -0.5000 
     50 C          -0.9404  -15.0099  -42.5350 C.2       4 UNK         0.5000 
     51 O          -0.2976  -15.7131  -41.7554 O.2       4 UNK        -0.5000 
     52 CA         -2.4607  -14.8582  -42.3436 C.3       4 UNK         0.1400 
     53 CB         -2.7836  -13.5606  -41.5879 C.3       4 UNK        -0.1800 
     54 N          -3.1953  -14.8776  -43.6096 N.am      4 UNK        -0.5000 
     55 C          -3.3309  -15.9618  -44.3860 C.2       3 UNK         0.5000 
     56 O          -2.8651  -17.0662  -44.1061 O.2       3 UNK        -0.5000 
     57 CA         -4.0672  -15.7612  -45.7261 C.3       3 UNK         0.1400 
     58 CB         -5.5887  -15.8101  -45.5208 C.3       3 UNK        -0.1800 
     59 N          -3.7145  -14.5187  -46.4238 N.am      3 UNK        -0.5000 
     60 C          -2.4686  -14.1764  -46.7743 C.2       2 UNK         0.5000 
     61 O          -1.4750  -14.8400  -46.4711 O.2       2 UNK        -0.5000 
     62 CA         -2.2905  -12.8535  -47.5448 C.3       2 UNK         0.1400 
     63 CB         -2.4484  -11.6553  -46.5953 C.3       2 UNK        -0.1800 
     64 N          -0.9557  -12.8025  -48.1406 N.am      2 UNK        -0.5000 
     65 C          -0.5891  -13.5120  -49.2142 C.2       1 UNK         0.5000 
     66 O          -1.3834  -14.0444  -49.9925 O.2       1 UNK        -0.5000 
     67 C           0.0804  -22.7326  -46.2259 C.2       11 UNK         0.5000 
     68 O          -0.2866  -23.2896  -45.1881 O.2       11 UNK        -0.5000 
     69 N          -0.7833  -22.2792  -47.1508 N.am      12 UNK        -0.5000 
     70 CA         -2.2553  -22.2903  -47.0662 C.3       12 UNK         0.1400 
     71 CB         -2.7478  -21.4137  -45.8934 C.3       12 UNK        -0.1800 
     72 C          -2.8896  -23.7027  -47.0534 C.2       12 UNK         0.5000 
     73 O          -4.0677  -23.8472  -46.7225 O.2       12 UNK        -0.5000 
     74 N          -2.1054  -24.7207  -47.4340 N.am      13 UNK        -0.5000 
     75 CA         -2.4153  -26.1451  -47.2883 C.3       13 UNK         0.1400 
     76 CB         -1.1296  -26.9474  -47.5438 C.3       13 UNK        -0.1800 
     77 C          -3.5605  -26.6703  -48.1761 C.2       13 UNK         0.5000 
     78 O          -4.0827  -27.7497  -47.8947 O.2       13 UNK        -0.5000 
     79 N          -3.9331  -25.9199  -49.2217 N.am      14 UNK        -0.5000 
     80 CA         -5.0288  -26.2655  -50.1317 C.3       14 UNK         0.1400 
     81 CB         -4.6395  -25.8588  -51.5638 C.3       14 UNK        -0.1800 
     82 C          -6.3549  -25.5993  -49.7179 C.2       14 UNK         0.5000 
     83 O          -7.3674  -25.8248  -50.3807 O.2       14 UNK        -0.5000 
     84 N          -6.3206  -24.7644  -48.6654 N.am      15 UNK        -0.5000 
     85 CA         -7.4035  -23.9191  -48.1479 C.3       15 UNK         0.1400 
     86 CB         -8.6169  -24.7605  -47.7010 C.3       15 UNK        -0.1800 
     87 C          -7.8002  -22.7628  -49.0919 C.2       15 UNK         0.5000 
     88 O          -8.7756  -22.0632  -48.8151 O.2       15 UNK        -0.5000 
     89 N          -7.0214  -22.5473  -50.1622 N.am      16 UNK        -0.5000 
     90 CA         -7.1350  -21.3980  -51.0608 C.3       16 UNK         0.1400 
     91 CB         -6.5050  -21.7575  -52.4127 C.3       16 UNK        -0.1800 
     92 C          -6.4935  -20.1388  -50.4435 C.2       16 UNK         0.5000 
     93 O          -6.8938  -19.0239  -50.7822 O.2       16 UNK        -0.5000 
     94 N          -5.5459  -20.3565  -49.5174 N.am      17 UNK        -0.5000 
     95 CA         -4.9541  -19.4448  -48.5330 C.3       17 UNK         0.1400 
     96 CB         -6.0205  -18.9538  -47.5395 C.3       17 UNK        -0.1800 
     97 C          -4.1362  -18.2723  -49.0983 C.2       17 UNK         0.5000 
     98 O          -3.0067  -18.0738  -48.6608 O.2       17 UNK        -0.5000 
     99 N          -4.7117  -17.5252  -50.0396 N.am      18 UNK        -0.5000 
    100 CA        -4.0864  -16.3994  -50.7311 C.3       18 UNK         0.1400 
    101 CB        -4.6916  -15.0929  -50.1920 C.3       18 UNK        -0.1800 
    102 C         -4.2636  -16.4950  -52.2574 C.2       18 UNK         0.5000 
    103 O         -3.5620  -15.7922  -52.9861 O.2       18 UNK        -0.5000 
    104 N         -5.1959  -17.3368  -52.7253 N.am      19 UNK        -0.5000 
    105 CA        -5.4674  -17.5603  -54.1411 C.3       19 UNK         0.1400 
    106 CB        -6.9710  -17.8255  -54.3150 C.3       19 UNK        -0.1800 
    107 C         -4.6536  -18.7518  -54.6681 C.2       19 UNK         0.5000 
    108 O         -4.4653  -19.7332  -53.9452 O.2       19 UNK        -0.5000 
    109 N         -4.2471  -18.6634  -55.9422 N.am      20 UNK        -0.5000 
    110 CA        -3.5913  -19.7075  -56.7355 C.3       20 UNK         0.1400 
    111 CB        -4.6329  -20.7750  -57.1444 C.3       20 UNK        -0.1800 
    112 C         -2.3332  -20.2839  -56.0471 C.2       20 UNK         0.5000 
    113 O         -1.3941  -19.5334  -55.7775 O.2       20 UNK        -0.5000 
    114 N         -2.3368  -21.5957  -55.7795 N.am      21 UNK        -0.5000 
    115 CA        -1.2622  -22.3282  -55.1102 C.3       21 UNK         0.1400 
    116 CB        -1.3743  -23.8124  -55.4948 C.3       21 UNK        -0.1800 
    117 C         -1.2673  -22.1715  -53.5766 C.2       21 UNK         0.5000 
    118 O         -0.3213  -22.6297  -52.9327 O.2       21 UNK        -0.5000 
    119 N         -2.3156  -21.5538  -53.0118 N.am      22 UNK        -0.5000 
    120 CA        -2.5638  -21.3212  -51.5769 C.3       22 UNK         0.1400 
    121 C         -2.8002  -22.6264  -50.7662 C.2       22 UNK         0.5000 
    122 N         -1.8912  -23.5900  -50.8333 N.am      22 UNK        -0.7600 
    123 O         -3.8102  -22.7644  -50.0783 O.2       22 UNK        -0.5000 
    124 C124       -1.4906  -20.4335  -50.8910 C.3       23 UNK        -0.0398 
    125 S125       -1.2887  -18.8073  -51.6972 S.3       23 UNK        -0.2404 
    126 C126        0.3171  -18.9834  -52.5376 C.3       23 UNK        -0.0205 
    127 H127        1.8231  -13.5487  -53.2953 H         1 UNK         0.0600 
    128 H128        2.5761  -11.9555  -53.1856 H         1 UNK         0.0600 
    129 H129        0.8528  -12.0955  -53.5503 H         1 UNK         0.0600 
    130 H130        1.3989  -14.4638  -51.3119 H         1 UNK         0.3000 
    131 H131        1.4540  -12.9485  -48.8374 H         1 UNK         0.0600 
    132 H132        0.8930  -15.2294  -47.8222 H         1 UNK         0.0800 
    133 H133        0.9147  -15.9184  -49.4112 H         1 UNK         0.0800 
    134 H134        4.7575  -16.0896  -50.1687 H         1 UNK         0.0800 
    135 H135        3.4232  -15.3445  -50.9936 H         1 UNK         0.0800 
    136 H136        1.5419  -16.6980  -51.7527 H         1 UNK         0.1150 
    137 H137        1.7203  -20.9457  -51.2448 H         1 UNK         0.1150 
    138 H138        4.5330  -18.4278  -49.2121 H         1 UNK         0.1150 
    139 H139        3.4655  -21.9664  -49.9964 H         1 UNK         0.0800 
    140 H140        4.9217  -21.0245  -49.8106 H         1 UNK         0.0800 
    141 H141        1.4793  -21.6656  -48.4961 H         1 UNK         0.0800 
    142 H142        1.4678  -20.4778  -47.2142 H         1 UNK         0.0800 
    143 H143        1.9546  -23.4917  -46.9179 H         1 UNK         0.0600 
    144 H144        2.1041  -21.3736  -44.8402 H         1 UNK         0.3000 
    145 H145        2.3679  -22.7984  -42.4152 H         1 UNK         0.0600 
    146 H146        4.6163  -23.2353  -41.3866 H         1 UNK         0.0600 
    147 H147        3.9703  -24.6346  -42.2275 H         1 UNK         0.0600 
    148 H148        5.2446  -23.6839  -42.9727 H         1 UNK         0.0600 
    149 H149        2.9804  -20.7002  -42.5592 H         1 UNK         0.3000 
    150 H150        5.8026  -18.9731  -43.1063 H         1 UNK         0.0600 
    151 H151        5.5363  -18.9961  -45.5832 H         1 UNK         0.0600 
    152 H152        4.8967  -17.5077  -44.9054 H         1 UNK         0.0600 
    153 H153        3.7997  -18.7876  -45.4192 H         1 UNK         0.0600 
    154 H154        3.0509  -18.0946  -43.1866 H         1 UNK         0.3000 
    155 H155        2.4531  -18.4041  -39.6890 H         1 UNK         0.0600 
    156 H156        3.6374  -16.2169  -39.9044 H         1 UNK         0.0600 
    157 H157        1.8934  -16.0028  -39.9192 H         1 UNK         0.0600 
    158 H158        2.8066  -15.9028  -41.4229 H         1 UNK         0.0600 
    159 H159        0.8198  -17.3770  -41.7698 H         1 UNK         0.3000 
    160 H160       -0.6051  -20.5173  -42.8128 H         1 UNK         0.0600 
    161 H161       -1.7198  -18.0438  -41.3894 H         1 UNK         0.0600 
    162 H162       -1.8578  -19.6989  -40.8087 H         1 UNK         0.0600 
    163 H163       -2.6480  -19.2287  -42.3058 H         1 UNK         0.0600 
    164 H164       -1.0625  -17.9144  -43.8082 H         1 UNK         0.3000 
    165 H165        1.5746  -17.9135  -46.2845 H         1 UNK         0.0600 
    166 H166       -0.4062  -17.4020  -47.6698 H         1 UNK         0.0600 
    167 H167       -0.4536  -19.0908  -47.1976 H         1 UNK         0.0600 
    168 H168       -1.4860  -17.9254  -46.3840 H         1 UNK         0.0600 
    169 H169       -0.3128  -15.9113  -45.5872 H         1 UNK         0.3000 
    170 H170        1.6137  -14.2572  -43.0640 H         1 UNK         0.0600 
    171 H171        2.4027  -13.3951  -45.2577 H         1 UNK         0.0600 
    172 H172        0.7807  -13.5154  -45.9190 H         1 UNK         0.0600 
    173 H173        1.1214  -12.3767  -44.6169 H         1 UNK         0.0600 
    174 H174       -1.0068  -13.8725  -44.2119 H         1 UNK         0.3000 
    175 H175       -2.8043  -15.6989  -41.7370 H         1 UNK         0.0600 
    176 H176       -2.2616  -13.5270  -40.6306 H         1 UNK         0.0600 
    177 H177       -2.4867  -12.6775  -42.1551 H         1 UNK         0.0600 
    178 H178       -3.8504  -13.4822  -41.3778 H         1 UNK         0.0600 
    179 H179       -3.6040  -14.0079  -43.9179 H         1 UNK         0.3000 
    180 H180       -3.7826  -16.5908  -46.3762 H         1 UNK         0.0600 
    181 H181       -5.8840  -16.7123  -44.9836 H         1 UNK         0.0600 
    182 H182       -5.9453  -14.9561  -44.9438 H         1 UNK         0.0600 
    183 H183       -6.1147  -15.8138  -46.4758 H         1 UNK         0.0600 
    184 H184       -4.4814  -13.9143  -46.6806 H         1 UNK         0.3000 
    185 H185       -3.0454  -12.7949  -48.3317 H         1 UNK         0.0600 
    186 H186       -3.4453  -11.6299  -46.1537 H         1 UNK         0.0600 
    187 H187       -1.7274  -11.6893  -45.7772 H         1 UNK         0.0600 
    188 H188       -2.3078  -10.7131  -47.1254 H         1 UNK         0.0600 
    189 H189       -0.2352  -12.4012  -47.5598 H         1 UNK         0.3000 
    190 H190       -0.4083  -21.8657  -47.9912 H         1 UNK         0.3000 
    191 H191       -2.6057  -21.8137  -47.9791 H         1 UNK         0.0600 
    192 H192       -2.4735  -21.8336  -44.9256 H         1 UNK         0.0600 
    193 H193       -3.8338  -21.3150  -45.9032 H         1 UNK         0.0600 
    194 H194       -2.3332  -20.4073  -45.9497 H         1 UNK         0.0600 
    195 H195       -1.1583  -24.4995  -47.7008 H         1 UNK         0.3000 
    196 H196       -2.7169  -26.3105  -46.2519 H         1 UNK         0.0600 
    197 H197       -1.2989  -28.0162  -47.4057 H         1 UNK         0.0600 
    198 H198       -0.3381  -26.6556  -46.8530 H         1 UNK         0.0600 
    199 H199       -0.7605  -26.8025  -48.5600 H         1 UNK         0.0600 
    200 H200       -3.5296  -25.0007  -49.3334 H         1 UNK         0.3000 
    201 H201       -5.1922  -27.3452  -50.1277 H         1 UNK         0.0600 
    202 H202       -5.3709  -26.2279  -52.2837 H         1 UNK         0.0600 
    203 H203       -4.5903  -24.7771  -51.6829 H         1 UNK         0.0600 
    204 H204       -3.6717  -26.2735  -51.8459 H         1 UNK         0.0600 
    205 H205       -5.4358  -24.6484  -48.1838 H         1 UNK         0.3000 
    206 H206       -6.9952  -23.4415  -47.2560 H         1 UNK         0.0600 
    207 H207       -8.3127  -25.5715  -47.0394 H         1 UNK         0.0600 
    208 H208       -9.3343  -24.1487  -47.1530 H         1 UNK         0.0600 
    209 H209       -9.1463  -25.1968  -48.5482 H         1 UNK         0.0600 
    210 H210       -6.2262  -23.1551  -50.3018 H         1 UNK         0.3000 
    211 H211       -8.1925  -21.1832  -51.2281 H         1 UNK         0.0600 
    212 H212       -6.6463  -20.9510  -53.1312 H         1 UNK         0.0600 
    213 H213       -6.9672  -22.6488  -52.8372 H         1 UNK         0.0600 
    214 H214       -5.4354  -21.9459  -52.3295 H         1 UNK         0.0600 
    215 H215       -5.2420  -21.3185  -49.4227 H         1 UNK         0.3000 
    216 H216       -4.2528  -20.0579  -47.9686 H         1 UNK         0.0600 
    217 H217       -6.7450  -18.2900  -48.0126 H         1 UNK         0.0600 
    218 H218       -5.5572  -18.4087  -46.7182 H         1 UNK         0.0600 
    219 H219       -6.5672  -19.7898  -47.1028 H         1 UNK         0.0600 
    220 H220       -5.6475  -17.7946  -50.3315 H         1 UNK         0.3000 
    221 H221       -3.0110  -16.3879  -50.5400 H         1 UNK         0.0600 
    222 H222       -5.7642  -15.0381  -50.3810 H         1 UNK         0.0600 
    223 H223       -4.5348  -15.0046  -49.1179 H         1 UNK         0.0600 
    224 H224       -4.2264  -14.2247  -50.6605 H         1 UNK         0.0600 
    225 H225       -5.7045  -17.9317  -52.0846 H         1 UNK         0.3000 
    226 H226       -5.2102  -16.6686  -54.7168 H         1 UNK         0.0600 
    227 H227       -7.5611  -16.9707  -53.9842 H         1 UNK         0.0600 
    228 H228       -7.2193  -18.0066  -55.3615 H         1 UNK         0.0600 
    229 H229       -7.2970  -18.6955  -53.7441 H         1 UNK         0.0600 
    230 H230       -4.4252  -17.8014  -56.4378 H         1 UNK         0.3000 
    231 H231       -3.2387  -19.2266  -57.6490 H         1 UNK         0.0600 
    232 H232       -5.4599  -20.3192  -57.6890 H         1 UNK         0.0600 
    233 H233       -5.0564  -21.2892  -56.2805 H         1 UNK         0.0600 
    234 H234       -4.1960  -21.5253  -57.8046 H         1 UNK         0.0600 
    235 H235       -3.1581  -22.1298  -56.0236 H         1 UNK         0.3000 
    236 H236       -0.3024  -21.9530  -55.4713 H         1 UNK         0.0600 
    237 H237       -1.3185  -23.9459  -56.5754 H         1 UNK         0.0600 
    238 H238       -0.5625  -24.3942  -55.0561 H         1 UNK         0.0600 
    239 H239       -2.3130  -24.2477  -55.1494 H         1 UNK         0.0600 
    240 H240       -3.0283  -21.1665  -53.6211 H         1 UNK         0.3000 
    241 H241       -3.5005  -20.7650  -51.5389 H         1 UNK         0.0600 
    242 H242       -1.1093  -23.4553  -51.4706 H         1 UNK         0.3800 
    243 H243       -2.0004  -24.4696  -50.3647 H         1 UNK         0.3800 
    244 H244       -1.7680  -20.2415  -49.8538 H         1 UNK         0.0800 
    245 H245       -0.5334  -20.9500  -50.8499 H         1 UNK         0.0800 
    246 H246        0.3706  -19.9384  -53.0576 H         1 UNK         0.0800 
    247 H247        0.3825  -18.2212  -53.3154 H         1 UNK         0.0800 
@<TRIPOS>BOND
     1    1    2 1    
     2    1  127 1    
     3    1  128 1    
     4    1  129 1    
     5    2    3 2    
     6    2    4 am   BACKBONE|DICT|INTERRES
     7    4    5 1    
     8    4  130 1    
     9    5    6 1    
    10    5   65 1    
    11    5  131 1    
    12    6    7 1    
    13    6  132 1    
    14    6  133 1    
    15    7    8 1    
    16    8    9 1    
    17    8  134 1    
    18    8  135 1    
    19    9   10 ar   
    20    9   14 ar   
    21   10   11 ar   
    22   10  136 1    
    23   11   12 ar   
    24   11  126 1    
    25   12   13 ar   
    26   12  137 1    
    27   13   14 ar   
    28   13   15 1    
    29   14  138 1    
    30   15   16 1    
    31   15  139 1    
    32   15  140 1    
    33   16   17 1    
    34   17   18 1    
    35   17  141 1    
    36   17  142 1    
    37   18   19 1    
    38   18   67 1    
    39   18  143 1    
    40   19   20 am   BACKBONE|DICT|INTERRES
    41   19  144 1    
    42   20   21 2    
    43   20   22 1    
    44   22   23 1    
    45   22   24 1    
    46   22  145 1    
    47   23  146 1    
    48   23  147 1    
    49   23  148 1    
    50   24   25 am   BACKBONE|DICT|INTERRES
    51   24  149 1    
    52   25   26 2    
    53   25   27 1    
    54   27   28 1    
    55   27   29 1    
    56   27  150 1    
    57   28  151 1    
    58   28  152 1    
    59   28  153 1    
    60   29   30 am   BACKBONE|DICT|INTERRES
    61   29  154 1    
    62   30   31 2    
    63   30   32 1    
    64   32   33 1    
    65   32   34 1    
    66   32  155 1    
    67   33  156 1    
    68   33  157 1    
    69   33  158 1    
    70   34   35 am   BACKBONE|DICT|INTERRES
    71   34  159 1    
    72   35   36 2    
    73   35   37 1    
    74   37   38 1    
    75   37   39 1    
    76   37  160 1    
    77   38  161 1    
    78   38  162 1    
    79   38  163 1    
    80   39   40 am   BACKBONE|DICT|INTERRES
    81   39  164 1    
    82   40   41 2    
    83   40   42 1    
    84   42   43 1    
    85   42   44 1    
    86   42  165 1    
    87   43  166 1    
    88   43  167 1    
    89   43  168 1    
    90   44   45 am   BACKBONE|DICT|INTERRES
    91   44  169 1    
    92   45   46 2    
    93   45   47 1    
    94   47   48 1    
    95   47   49 1    
    96   47  170 1    
    97   48  171 1    
    98   48  172 1    
    99   48  173 1    
   100   49   50 am   BACKBONE|DICT|INTERRES
   101   49  174 1    
   102   50   51 2    
   103   50   52 1    
   104   52   53 1    
   105   52   54 1    
   106   52  175 1    
   107   53  176 1    
   108   53  177 1    
   109   53  178 1    
   110   54   55 am   BACKBONE|DICT|INTERRES
   111   54  179 1    
   112   55   56 2    
   113   55   57 1    
   114   57   58 1    
   115   57   59 1    
   116   57  180 1    
   117   58  181 1    
   118   58  182 1    
   119   58  183 1    
   120   59   60 am   BACKBONE|DICT|INTERRES
   121   59  184 1    
   122   60   61 2    
   123   60   62 1    
   124   62   63 1    
   125   62   64 1    
   126   62  185 1    
   127   63  186 1    
   128   63  187 1    
   129   63  188 1    
   130   64   65 am   BACKBONE|DICT|INTERRES
   131   64  189 1    
   132   65   66 2    
   133   67   68 2    
   134   67   69 am   BACKBONE|DICT|INTERRES
   135   69   70 1    
   136   69  190 1    
   137   70   71 1    
   138   70   72 1    
   139   70  191 1    
   140   71  192 1    
   141   71  193 1    
   142   71  194 1    
   143   72   73 2    
   144   72   74 am   BACKBONE|DICT|INTERRES
   145   74   75 1    
   146   74  195 1    
   147   75   76 1    
   148   75   77 1    
   149   75  196 1    
   150   76  197 1    
   151   76  198 1    
   152   76  199 1    
   153   77   78 2    
   154   77   79 am   BACKBONE|DICT|INTERRES
   155   79   80 1    
   156   79  200 1    
   157   80   81 1    
   158   80   82 1    
   159   80  201 1    
   160   81  202 1    
   161   81  203 1    
   162   81  204 1    
   163   82   83 2    
   164   82   84 am   BACKBONE|DICT|INTERRES
   165   84   85 1    
   166   84  205 1    
   167   85   86 1    
   168   85   87 1    
   169   85  206 1    
   170   86  207 1    
   171   86  208 1    
   172   86  209 1    
   173   87   88 2    
   174   87   89 am   BACKBONE|DICT|INTERRES
   175   89   90 1    
   176   89  210 1    
   177   90   91 1    
   178   90   92 1    
   179   90  211 1    
   180   91  212 1    
   181   91  213 1    
   182   91  214 1    
   183   92   93 2    
   184   92   94 am   BACKBONE|DICT|INTERRES
   185   94   95 1    
   186   94  215 1    
   187   95   96 1    
   188   95   97 1    
   189   95  216 1    
   190   96  217 1    
   191   96  218 1    
   192   96  219 1    
   193   97   98 2    
   194   97   99 am   BACKBONE|DICT|INTERRES
   195   99  100 1    
   196   99  220 1    
   197  100  101 1    
   198  100  102 1    
   199  100  221 1    
   200  101  222 1    
   201  101  223 1    
   202  101  224 1    
   203  102  103 2    
   204  102  104 am   BACKBONE|DICT|INTERRES
   205  104  105 1    
   206  104  225 1    
   207  105  106 1    
   208  105  107 1    
   209  105  226 1    
   210  106  227 1    
   211  106  228 1    
   212  106  229 1    
   213  107  108 2    
   214  107  109 am   BACKBONE|DICT|INTERRES
   215  109  110 1    
   216  109  230 1    
   217  110  111 1    
   218  110  112 1    
   219  110  231 1    
   220  111  232 1    
   221  111  233 1    
   222  111  234 1    
   223  112  113 2    
   224  112  114 am   BACKBONE|DICT|INTERRES
   225  114  115 1    
   226  114  235 1    
   227  115  116 1    
   228  115  117 1    
   229  115  236 1    
   230  116  237 1    
   231  116  238 1    
   232  116  239 1    
   233  117  118 2    
   234  117  119 am   BACKBONE|DICT|INTERRES
   235  119  120 1    
   236  119  240 1    
   237  120  121 1    
   238  120  124 1    
   239  120  241 1    
   240  121  122 am   BACKBONE|DICT|INTERRES
   241  121  123 2    
   242  122  242 1    
   243  122  243 1    
   244  124  125 1    
   245  124  244 1    
   246  124  245 1    
   247  125  126 1    
   248  126  246 1    
   249  126  247 1    
@<TRIPOS>SUBSTRUCTURE
     1 UNK         1 GROUP             0       ****    0 ROOT    
