@<TRIPOS>MOLECULE
3R540
247   249    1
SMALL
USER_CHARGES


@<TRIPOS>ATOM
      1 CA         -3.4346  -17.2518  -45.7133 C.3       0 UNK        -0.1800 
      2 C          -2.9971  -15.8043  -45.8927 C.2       0 UNK         0.5000 
      3 O          -3.5597  -14.9125  -45.2580 O.2       0 UNK        -0.5000 
      4 N          -2.0046  -15.5669  -46.7594 N.am      1 UNK        -0.5000 
      5 CA         -1.4269  -14.2479  -47.0301 C.3       1 UNK         0.1400 
      6 C6         -0.6584  -14.2124  -48.3768 C.3       23 UNK        -0.0398 
      7 S7         -1.7610  -13.9702  -49.8151 S.3       23 UNK        -0.2404 
      8 C8         -2.4728  -15.6187  -50.1252 C.3       23 UNK        -0.0205 
      9 C9         -1.5020  -16.5725  -50.8051 C.ar      23 UNK        -0.0193 
     10 C10        -1.5067  -16.7062  -52.1946 C.ar      23 UNK        -0.1150 
     11 C11        -0.6650  -17.6277  -52.8217 C.ar      23 UNK        -0.0193 
     12 C12         0.1842  -18.4219  -52.0444 C.ar      23 UNK        -0.1150 
     13 C13         0.2050  -18.3039  -50.6496 C.ar      23 UNK        -0.0193 
     14 C14        -0.6368  -17.3609  -50.0441 C.ar      23 UNK        -0.1150 
     15 C15         1.1329  -19.2349  -49.8588 C.3       23 UNK        -0.0205 
     16 S16         1.2844  -18.9370  -48.0588 S.3       23 UNK        -0.2404 
     17 C17        -0.3483  -19.4503  -47.4234 C.3       23 UNK        -0.0398 
     18 CA         -0.4128  -20.9261  -46.9754 C.3       11 UNK         0.1400 
     19 N           0.3982  -21.2148  -45.7885 N.am      11 UNK        -0.5000 
     20 C           0.5986  -22.4403  -45.2806 C.2       10 UNK         0.5000 
     21 O           0.0947  -23.4636  -45.7462 O.2       10 UNK        -0.5000 
     22 CA          1.4646  -22.5374  -44.0138 C.3       10 UNK         0.1400 
     23 CB          2.9454  -22.2781  -44.3302 C.3       10 UNK        -0.1800 
     24 N           1.0054  -21.6236  -42.9694 N.am      10 UNK        -0.5000 
     25 C          -0.1598  -21.7493  -42.3179 C.2       9 UNK         0.5000 
     26 O          -0.9332  -22.6941  -42.4776 O.2       9 UNK        -0.5000 
     27 CA         -0.5436  -20.6184  -41.3447 C.3       9 UNK         0.1400 
     28 CB          0.1095  -20.8378  -39.9721 C.3       9 UNK        -0.1800 
     29 N          -0.2022  -19.2849  -41.8435 N.am      9 UNK        -0.5000 
     30 C          -0.7115  -18.7372  -42.9571 C.2       8 UNK         0.5000 
     31 O          -1.5436  -19.2904  -43.6746 O.2       8 UNK        -0.5000 
     32 CA         -0.1534  -17.3658  -43.3742 C.3       8 UNK         0.1400 
     33 CB         -0.7710  -16.2420  -42.5301 C.3       8 UNK        -0.1800 
     34 N           1.3046  -17.3082  -43.2855 N.am      8 UNK        -0.5000 
     35 C           2.1367  -18.0976  -43.9792 C.2       7 UNK         0.5000 
     36 O           1.7623  -18.9471  -44.7845 O.2       7 UNK        -0.5000 
     37 CA          3.6351  -17.9694  -43.6678 C.3       7 UNK         0.1400 
     38 CB          4.2348  -16.7218  -44.3335 C.3       7 UNK        -0.1800 
     39 N           3.8855  -17.9472  -42.2265 N.am      7 UNK        -0.5000 
     40 C           3.6765  -18.9906  -41.4096 C.2       6 UNK         0.5000 
     41 O           3.2881  -20.0935  -41.7929 O.2       6 UNK        -0.5000 
     42 CA          3.9085  -18.7515  -39.9071 C.3       6 UNK         0.1400 
     43 CB          5.3886  -18.9526  -39.5496 C.3       6 UNK        -0.1800 
     44 N           3.4831  -17.4190  -39.4783 N.am      6 UNK        -0.5000 
     45 C           2.2090  -17.0034  -39.4448 C.2       5 UNK         0.5000 
     46 O           1.2473  -17.7096  -39.7487 O.2       5 UNK        -0.5000 
     47 CA          1.9870  -15.5271  -39.0647 C.3       5 UNK         0.1400 
     48 CB          2.0377  -15.3414  -37.5408 C.3       5 UNK        -0.1800 
     49 N           2.9559  -14.6284  -39.7035 N.am      5 UNK        -0.5000 
     50 C           3.0497  -14.4630  -41.0281 C.2       4 UNK         0.5000 
     51 O           2.3210  -15.0467  -41.8371 O.2       4 UNK        -0.5000 
     52 CA          4.1499  -13.5262  -41.5479 C.3       4 UNK         0.1400 
     53 CB          5.5253  -14.2182  -41.5137 C.3       4 UNK        -0.1800 
     54 N           3.7775  -13.1869  -42.9126 N.am      4 UNK        -0.5000 
     55 C           4.2773  -12.2392  -43.7102 C.2       3 UNK         0.5000 
     56 O           5.2329  -11.5192  -43.4198 O.2       3 UNK        -0.5000 
     57 CA          3.5416  -12.0511  -45.0533 C.3       3 UNK         0.1400 
     58 CB          4.1469  -12.9571  -46.1363 C.3       3 UNK        -0.1800 
     59 N           2.1094  -12.3429  -44.9304 N.am      3 UNK        -0.5000 
     60 C           1.2326  -11.5737  -44.2730 C.2       2 UNK         0.5000 
     61 O           1.5083  -10.4504  -43.8475 O.2       2 UNK        -0.5000 
     62 CA         -0.1698  -12.1731  -44.0314 C.3       2 UNK         0.1400 
     63 CB         -1.1346  -11.1782  -43.3611 C.3       2 UNK        -0.1800 
     64 N          -0.8062  -12.6929  -45.2432 N.am      2 UNK        -0.5000 
     65 C          -0.5190  -13.8501  -45.8511 C.2       1 UNK         0.5000 
     66 O           0.4111  -14.5880  -45.5182 O.2       1 UNK        -0.5000 
     67 C          -1.8851  -21.3478  -46.8132 C.2       11 UNK         0.5000 
     68 O          -2.4763  -21.7920  -47.7922 O.2       11 UNK        -0.5000 
     69 N          -2.4484  -21.2510  -45.6009 N.am      12 UNK        -0.5000 
     70 CA         -3.8122  -21.6925  -45.2911 C.3       12 UNK         0.1400 
     71 CB         -4.1415  -21.3511  -43.8304 C.3       12 UNK        -0.1800 
     72 C          -4.0667  -23.1893  -45.5722 C.2       12 UNK         0.5000 
     73 O          -5.2012  -23.5566  -45.8801 O.2       12 UNK        -0.5000 
     74 N          -3.0121  -24.0116  -45.4888 N.am      13 UNK        -0.5000 
     75 CA         -3.0310  -25.4221  -45.8626 C.3       13 UNK         0.1400 
     76 CB         -2.1795  -26.2197  -44.8614 C.3       13 UNK        -0.1800 
     77 C          -2.5170  -25.6243  -47.2988 C.2       13 UNK         0.5000 
     78 O          -3.1754  -26.3009  -48.0892 O.2       13 UNK        -0.5000 
     79 N          -1.3418  -25.0567  -47.6058 N.am      14 UNK        -0.5000 
     80 CA         -0.5983  -25.2995  -48.8450 C.3       14 UNK         0.1400 
     81 CB          0.8508  -24.8238  -48.6555 C.3       14 UNK        -0.1800 
     82 C          -1.2088  -24.6487  -50.0996 C.2       14 UNK         0.5000 
     83 O          -1.0123  -25.1664  -51.1990 O.2       14 UNK        -0.5000 
     84 N          -1.9165  -23.5303  -49.9209 N.am      15 UNK        -0.5000 
     85 CA         -2.5140  -22.7154  -50.9728 C.3       15 UNK         0.1400 
     86 CB         -1.6174  -21.4912  -51.2299 C.3       15 UNK        -0.1800 
     87 C          -3.9371  -22.3199  -50.5504 C.2       15 UNK         0.5000 
     88 O          -4.2918  -21.1416  -50.6049 O.2       15 UNK        -0.5000 
     89 N          -4.7173  -23.3102  -50.0945 N.am      16 UNK        -0.5000 
     90 CA         -6.0782  -23.1554  -49.5778 C.3       16 UNK         0.1400 
     91 CB         -6.6293  -24.5387  -49.1984 C.3       16 UNK        -0.1800 
     92 C          -7.0109  -22.4316  -50.5715 C.2       16 UNK         0.5000 
     93 O          -7.2833  -22.9636  -51.6484 O.2       16 UNK        -0.5000 
     94 N          -7.4382  -21.2190  -50.1900 N.am      17 UNK        -0.5000 
     95 CA         -8.2463  -20.2590  -50.9560 C.3       17 UNK         0.1400 
     96 CB         -9.6035  -20.8663  -51.3705 C.3       17 UNK        -0.1800 
     97 C          -7.5122  -19.5901  -52.1426 C.2       17 UNK         0.5000 
     98 O          -8.1575  -18.8760  -52.9127 O.2       17 UNK        -0.5000 
     99 N          -6.1876  -19.7835  -52.2456 N.am      18 UNK        -0.5000 
    100 CA        -5.2760  -19.2462  -53.2615 C.3       18 UNK         0.1400 
    101 CB        -5.0402  -17.7392  -53.0170 C.3       18 UNK        -0.1800 
    102 C         -5.7048  -19.5924  -54.7069 C.2       18 UNK         0.5000 
    103 O         -6.2467  -20.6767  -54.9364 O.2       18 UNK        -0.5000 
    104 N         -5.4358  -18.6847  -55.6583 N.am      19 UNK        -0.5000 
    105 CA        -5.7553  -18.7760  -57.0865 C.3       19 UNK         0.1400 
    106 CB        -7.2742  -18.5941  -57.3037 C.3       19 UNK        -0.1800 
    107 C         -5.1782  -20.0603  -57.7158 C.2       19 UNK         0.5000 
    108 O         -3.9565  -20.1973  -57.7893 O.2       19 UNK        -0.5000 
    109 N         -6.0467  -21.0012  -58.1083 N.am      20 UNK        -0.5000 
    110 CA        -5.6906  -22.3099  -58.6631 C.3       20 UNK         0.1400 
    111 CB        -6.9777  -23.0315  -59.0911 C.3       20 UNK        -0.1800 
    112 C         -4.8604  -23.2032  -57.7160 C.2       20 UNK         0.5000 
    113 O         -4.1853  -24.1153  -58.1945 O.2       20 UNK        -0.5000 
    114 N         -4.9027  -22.9266  -56.4042 N.am      21 UNK        -0.5000 
    115 CA        -4.1142  -23.6221  -55.3875 C.3       21 UNK         0.1400 
    116 CB        -4.7944  -23.4533  -54.0194 C.3       21 UNK        -0.1800 
    117 C         -2.6414  -23.1640  -55.3242 C.2       21 UNK         0.5000 
    118 O         -1.8602  -23.8093  -54.6248 O.2       21 UNK        -0.5000 
    119 N         -2.2736  -22.0806  -56.0239 N.am      22 UNK        -0.5000 
    120 CA        -0.9061  -21.5308  -56.0283 C.3       22 UNK         0.1400 
    121 C         -0.4209  -20.9658  -57.3927 C.2       22 UNK         0.5000 
    122 N         -1.2879  -20.6482  -58.3445 N.am      22 UNK        -0.7600 
    123 O          0.7820  -20.8395  -57.6057 O.2       22 UNK        -0.5000 
    124 C124       -0.6668  -20.5429  -54.8580 C.3       23 UNK        -0.0398 
    125 S125       -1.7891  -19.0982  -54.8802 S.3       23 UNK        -0.2404 
    126 C126       -0.6831  -17.7587  -54.3373 C.3       23 UNK        -0.0205 
    127 H127       -4.4683  -17.3731  -46.0366 H         1 UNK         0.0600 
    128 H128       -3.3728  -17.5347  -44.6628 H         1 UNK         0.0600 
    129 H129       -2.8179  -17.9418  -46.2879 H         1 UNK         0.0600 
    130 H130       -1.5462  -16.3419  -47.2108 H         1 UNK         0.3000 
    131 H131       -2.2422  -13.5228  -47.0862 H         1 UNK         0.0600 
    132 H132        0.0324  -13.3671  -48.3948 H         1 UNK         0.0800 
    133 H133       -0.0323  -15.0942  -48.5090 H         1 UNK         0.0800 
    134 H134       -2.8494  -16.0558  -49.2018 H         1 UNK         0.0800 
    135 H135       -3.3518  -15.4899  -50.7587 H         1 UNK         0.0800 
    136 H136       -2.1757  -16.0994  -52.7883 H         1 UNK         0.1150 
    137 H137        0.8267  -19.1437  -52.5286 H         1 UNK         0.1150 
    138 H138       -0.6429  -17.2379  -48.9747 H         1 UNK         0.1150 
    139 H139        0.8204  -20.2676  -50.0142 H         1 UNK         0.0800 
    140 H140        2.1343  -19.1562  -50.2844 H         1 UNK         0.0800 
    141 H141       -0.6011  -18.7962  -46.5877 H         1 UNK         0.0800 
    142 H142       -1.0962  -19.2667  -48.1954 H         1 UNK         0.0800 
    143 H143       -0.0089  -21.5344  -47.7873 H         1 UNK         0.0600 
    144 H144        0.8619  -20.4164  -45.3566 H         1 UNK         0.3000 
    145 H145        1.3792  -23.5567  -43.6316 H         1 UNK         0.0600 
    146 H146        3.5671  -22.4284  -43.4475 H         1 UNK         0.0600 
    147 H147        3.3044  -22.9605  -45.1015 H         1 UNK         0.0600 
    148 H148        3.1146  -21.2621  -44.6864 H         1 UNK         0.0600 
    149 H149        1.6126  -20.8419  -42.7478 H         1 UNK         0.3000 
    150 H150       -1.6272  -20.6523  -41.2139 H         1 UNK         0.0600 
    151 H151       -0.1465  -21.8185  -39.5693 H         1 UNK         0.0600 
    152 H152       -0.2274  -20.0922  -39.2517 H         1 UNK         0.0600 
    153 H153        1.1966  -20.7794  -40.0303 H         1 UNK         0.0600 
    154 H154        0.4571  -18.7471  -41.2895 H         1 UNK         0.3000 
    155 H155       -0.4261  -17.1964  -44.4178 H         1 UNK         0.0600 
    156 H156       -0.5118  -16.3388  -41.4754 H         1 UNK         0.0600 
    157 H157       -1.8589  -16.2475  -42.6075 H         1 UNK         0.0600 
    158 H158       -0.4262  -15.2664  -42.8689 H         1 UNK         0.0600 
    159 H159        1.6943  -16.6078  -42.6601 H         1 UNK         0.3000 
    160 H160        4.1379  -18.8456  -44.0831 H         1 UNK         0.0600 
    161 H161        3.7695  -15.8059  -43.9727 H         1 UNK         0.0600 
    162 H162        4.0906  -16.7540  -45.4142 H         1 UNK         0.0600 
    163 H163        5.3070  -16.6516  -44.1512 H         1 UNK         0.0600 
    164 H164        4.1636  -17.0665  -41.8235 H         1 UNK         0.3000 
    165 H165        3.3210  -19.4899  -39.3574 H         1 UNK         0.0600 
    166 H166        5.5510  -18.8589  -38.4757 H         1 UNK         0.0600 
    167 H167        5.7287  -19.9467  -39.8430 H         1 UNK         0.0600 
    168 H168        6.0283  -18.2253  -40.0512 H         1 UNK         0.0600 
    169 H169        4.2092  -16.7699  -39.2141 H         1 UNK         0.3000 
    170 H170        0.9893  -15.2453  -39.4084 H         1 UNK         0.0600 
    171 H171        1.3159  -15.9918  -37.0448 H         1 UNK         0.0600 
    172 H172        3.0232  -15.5760  -37.1365 H         1 UNK         0.0600 
    173 H173        1.7952  -14.3162  -37.2607 H         1 UNK         0.0600 
    174 H174        3.5805  -14.1217  -39.0926 H         1 UNK         0.3000 
    175 H175        4.1649  -12.6185  -40.9419 H         1 UNK         0.0600 
    176 H176        5.5394  -15.1198  -42.1260 H         1 UNK         0.0600 
    177 H177        6.3117  -13.5576  -41.8784 H         1 UNK         0.0600 
    178 H178        5.7956  -14.5061  -40.4973 H         1 UNK         0.0600 
    179 H179        2.9747  -13.7160  -43.2322 H         1 UNK         0.3000 
    180 H180        3.6637  -11.0113  -45.3639 H         1 UNK         0.0600 
    181 H181        4.0341  -14.0132  -45.8886 H         1 UNK         0.0600 
    182 H182        5.2126  -12.7599  -46.2593 H         1 UNK         0.0600 
    183 H183        3.6710  -12.7874  -47.1023 H         1 UNK         0.0600 
    184 H184        1.7867  -13.2512  -45.2517 H         1 UNK         0.3000 
    185 H185       -0.0295  -13.0030  -43.3367 H         1 UNK         0.0600 
    186 H186       -0.7316  -10.8158  -42.4145 H         1 UNK         0.0600 
    187 H187       -1.3216  -10.3101  -43.9943 H         1 UNK         0.0600 
    188 H188       -2.0942  -11.6471  -43.1416 H         1 UNK         0.0600 
    189 H189       -1.5708  -12.1392  -45.6020 H         1 UNK         0.3000 
    190 H190       -1.9317  -20.8062  -44.8472 H         1 UNK         0.3000 
    191 H191       -4.4906  -21.1257  -45.9320 H         1 UNK         0.0600 
    192 H192       -3.4545  -21.8400  -43.1394 H         1 UNK         0.0600 
    193 H193       -5.1518  -21.6699  -43.5710 H         1 UNK         0.0600 
    194 H194       -4.0870  -20.2767  -43.6549 H         1 UNK         0.0600 
    195 H195       -2.1103  -23.6170  -45.2526 H         1 UNK         0.3000 
    196 H196       -4.0503  -25.8112  -45.8139 H         1 UNK         0.0600 
    197 H197       -2.1627  -27.2792  -45.1197 H         1 UNK         0.0600 
    198 H198       -2.5828  -26.1372  -43.8520 H         1 UNK         0.0600 
    199 H199       -1.1465  -25.8702  -44.8356 H         1 UNK         0.0600 
    200 H200       -0.8599  -24.5056  -46.8985 H         1 UNK         0.3000 
    201 H201       -0.5778  -26.3779  -49.0161 H         1 UNK         0.0600 
    202 H202        1.3243  -25.3257  -47.8116 H         1 UNK         0.0600 
    203 H203        0.9007  -23.7493  -48.4764 H         1 UNK         0.0600 
    204 H204        1.4522  -25.0373  -49.5400 H         1 UNK         0.0600 
    205 H205       -2.0638  -23.1719  -48.9799 H         1 UNK         0.3000 
    206 H206       -2.5983  -23.2853  -51.8990 H         1 UNK         0.0600 
    207 H207       -0.6239  -21.7906  -51.5629 H         1 UNK         0.0600 
    208 H208       -2.0447  -20.8453  -51.9974 H         1 UNK         0.0600 
    209 H209       -1.5045  -20.8876  -50.3290 H         1 UNK         0.0600 
    210 H210       -4.3349  -24.2442  -50.0710 H         1 UNK         0.3000 
    211 H211       -6.0085  -22.5630  -48.6630 H         1 UNK         0.0600 
    212 H212       -6.6676  -25.2075  -50.0592 H         1 UNK         0.0600 
    213 H213       -7.6404  -24.4590  -48.7974 H         1 UNK         0.0600 
    214 H214       -6.0130  -25.0110  -48.4325 H         1 UNK         0.0600 
    215 H215       -7.1161  -20.8733  -49.2967 H         1 UNK         0.3000 
    216 H216       -8.4617  -19.4477  -50.2593 H         1 UNK         0.0600 
    217 H217      -10.2721  -20.0981  -51.7605 H         1 UNK         0.0600 
    218 H218      -10.1059  -21.3301  -50.5217 H         1 UNK         0.0600 
    219 H219       -9.4907  -21.6204  -52.1496 H         1 UNK         0.0600 
    220 H220       -5.7362  -20.3794  -51.5566 H         1 UNK         0.3000 
    221 H221       -4.3244  -19.7559  -53.1046 H         1 UNK         0.0600 
    222 H222       -5.9346  -17.1499  -53.2222 H         1 UNK         0.0600 
    223 H223       -4.7504  -17.5546  -51.9824 H         1 UNK         0.0600 
    224 H224       -4.2329  -17.3544  -53.6406 H         1 UNK         0.0600 
    225 H225       -4.9440  -17.8478  -55.3802 H         1 UNK         0.3000 
    226 H226       -5.2478  -17.9434  -57.5757 H         1 UNK         0.0600 
    227 H227       -7.6053  -17.6279  -56.9225 H         1 UNK         0.0600 
    228 H228       -7.5281  -18.6223  -58.3641 H         1 UNK         0.0600 
    229 H229       -7.8607  -19.3614  -56.7968 H         1 UNK         0.0600 
    230 H230       -7.0312  -20.8250  -57.9712 H         1 UNK         0.3000 
    231 H231       -5.0838  -22.1351  -59.5538 H         1 UNK         0.0600 
    232 H232       -6.7532  -23.9996  -59.5412 H         1 UNK         0.0600 
    233 H233       -7.5289  -22.4515  -59.8315 H         1 UNK         0.0600 
    234 H234       -7.6388  -23.2097  -58.2420 H         1 UNK         0.0600 
    235 H235       -5.4775  -22.1551  -56.0775 H         1 UNK         0.3000 
    236 H236       -4.1125  -24.6878  -55.6257 H         1 UNK         0.0600 
    237 H237       -5.8573  -23.6901  -54.0697 H         1 UNK         0.0600 
    238 H238       -4.3528  -24.1232  -53.2815 H         1 UNK         0.0600 
    239 H239       -4.6968  -22.4360  -53.6399 H         1 UNK         0.0600 
    240 H240       -2.9600  -21.5812  -56.5759 H         1 UNK         0.3000 
    241 H241       -0.2260  -22.3686  -55.8614 H         1 UNK         0.0600 
    242 H242       -0.9370  -20.3014  -59.2226 H         1 UNK         0.3800 
    243 H243       -2.2888  -20.6055  -58.1625 H         1 UNK         0.3800 
    244 H244       -0.8017  -21.0662  -53.9139 H         1 UNK         0.0800 
    245 H245        0.3723  -20.2109  -54.8578 H         1 UNK         0.0800 
    246 H246        0.3268  -17.9112  -54.7200 H         1 UNK         0.0800 
    247 H247       -1.0306  -16.8256  -54.7832 H         1 UNK         0.0800 
@<TRIPOS>BOND
     1    1    2 1    
     2    1  127 1    
     3    1  128 1    
     4    1  129 1    
     5    2    3 2    
     6    2    4 am   BACKBONE|DICT|INTERRES
     7    4    5 1    
     8    4  130 1    
     9    5    6 1    
    10    5   65 1    
    11    5  131 1    
    12    6    7 1    
    13    6  132 1    
    14    6  133 1    
    15    7    8 1    
    16    8    9 1    
    17    8  134 1    
    18    8  135 1    
    19    9   10 ar   
    20    9   14 ar   
    21   10   11 ar   
    22   10  136 1    
    23   11   12 ar   
    24   11  126 1    
    25   12   13 ar   
    26   12  137 1    
    27   13   14 ar   
    28   13   15 1    
    29   14  138 1    
    30   15   16 1    
    31   15  139 1    
    32   15  140 1    
    33   16   17 1    
    34   17   18 1    
    35   17  141 1    
    36   17  142 1    
    37   18   19 1    
    38   18   67 1    
    39   18  143 1    
    40   19   20 am   BACKBONE|DICT|INTERRES
    41   19  144 1    
    42   20   21 2    
    43   20   22 1    
    44   22   23 1    
    45   22   24 1    
    46   22  145 1    
    47   23  146 1    
    48   23  147 1    
    49   23  148 1    
    50   24   25 am   BACKBONE|DICT|INTERRES
    51   24  149 1    
    52   25   26 2    
    53   25   27 1    
    54   27   28 1    
    55   27   29 1    
    56   27  150 1    
    57   28  151 1    
    58   28  152 1    
    59   28  153 1    
    60   29   30 am   BACKBONE|DICT|INTERRES
    61   29  154 1    
    62   30   31 2    
    63   30   32 1    
    64   32   33 1    
    65   32   34 1    
    66   32  155 1    
    67   33  156 1    
    68   33  157 1    
    69   33  158 1    
    70   34   35 am   BACKBONE|DICT|INTERRES
    71   34  159 1    
    72   35   36 2    
    73   35   37 1    
    74   37   38 1    
    75   37   39 1    
    76   37  160 1    
    77   38  161 1    
    78   38  162 1    
    79   38  163 1    
    80   39   40 am   BACKBONE|DICT|INTERRES
    81   39  164 1    
    82   40   41 2    
    83   40   42 1    
    84   42   43 1    
    85   42   44 1    
    86   42  165 1    
    87   43  166 1    
    88   43  167 1    
    89   43  168 1    
    90   44   45 am   BACKBONE|DICT|INTERRES
    91   44  169 1    
    92   45   46 2    
    93   45   47 1    
    94   47   48 1    
    95   47   49 1    
    96   47  170 1    
    97   48  171 1    
    98   48  172 1    
    99   48  173 1    
   100   49   50 am   BACKBONE|DICT|INTERRES
   101   49  174 1    
   102   50   51 2    
   103   50   52 1    
   104   52   53 1    
   105   52   54 1    
   106   52  175 1    
   107   53  176 1    
   108   53  177 1    
   109   53  178 1    
   110   54   55 am   BACKBONE|DICT|INTERRES
   111   54  179 1    
   112   55   56 2    
   113   55   57 1    
   114   57   58 1    
   115   57   59 1    
   116   57  180 1    
   117   58  181 1    
   118   58  182 1    
   119   58  183 1    
   120   59   60 am   BACKBONE|DICT|INTERRES
   121   59  184 1    
   122   60   61 2    
   123   60   62 1    
   124   62   63 1    
   125   62   64 1    
   126   62  185 1    
   127   63  186 1    
   128   63  187 1    
   129   63  188 1    
   130   64   65 am   BACKBONE|DICT|INTERRES
   131   64  189 1    
   132   65   66 2    
   133   67   68 2    
   134   67   69 am   BACKBONE|DICT|INTERRES
   135   69   70 1    
   136   69  190 1    
   137   70   71 1    
   138   70   72 1    
   139   70  191 1    
   140   71  192 1    
   141   71  193 1    
   142   71  194 1    
   143   72   73 2    
   144   72   74 am   BACKBONE|DICT|INTERRES
   145   74   75 1    
   146   74  195 1    
   147   75   76 1    
   148   75   77 1    
   149   75  196 1    
   150   76  197 1    
   151   76  198 1    
   152   76  199 1    
   153   77   78 2    
   154   77   79 am   BACKBONE|DICT|INTERRES
   155   79   80 1    
   156   79  200 1    
   157   80   81 1    
   158   80   82 1    
   159   80  201 1    
   160   81  202 1    
   161   81  203 1    
   162   81  204 1    
   163   82   83 2    
   164   82   84 am   BACKBONE|DICT|INTERRES
   165   84   85 1    
   166   84  205 1    
   167   85   86 1    
   168   85   87 1    
   169   85  206 1    
   170   86  207 1    
   171   86  208 1    
   172   86  209 1    
   173   87   88 2    
   174   87   89 am   BACKBONE|DICT|INTERRES
   175   89   90 1    
   176   89  210 1    
   177   90   91 1    
   178   90   92 1    
   179   90  211 1    
   180   91  212 1    
   181   91  213 1    
   182   91  214 1    
   183   92   93 2    
   184   92   94 am   BACKBONE|DICT|INTERRES
   185   94   95 1    
   186   94  215 1    
   187   95   96 1    
   188   95   97 1    
   189   95  216 1    
   190   96  217 1    
   191   96  218 1    
   192   96  219 1    
   193   97   98 2    
   194   97   99 am   BACKBONE|DICT|INTERRES
   195   99  100 1    
   196   99  220 1    
   197  100  101 1    
   198  100  102 1    
   199  100  221 1    
   200  101  222 1    
   201  101  223 1    
   202  101  224 1    
   203  102  103 2    
   204  102  104 am   BACKBONE|DICT|INTERRES
   205  104  105 1    
   206  104  225 1    
   207  105  106 1    
   208  105  107 1    
   209  105  226 1    
   210  106  227 1    
   211  106  228 1    
   212  106  229 1    
   213  107  108 2    
   214  107  109 am   BACKBONE|DICT|INTERRES
   215  109  110 1    
   216  109  230 1    
   217  110  111 1    
   218  110  112 1    
   219  110  231 1    
   220  111  232 1    
   221  111  233 1    
   222  111  234 1    
   223  112  113 2    
   224  112  114 am   BACKBONE|DICT|INTERRES
   225  114  115 1    
   226  114  235 1    
   227  115  116 1    
   228  115  117 1    
   229  115  236 1    
   230  116  237 1    
   231  116  238 1    
   232  116  239 1    
   233  117  118 2    
   234  117  119 am   BACKBONE|DICT|INTERRES
   235  119  120 1    
   236  119  240 1    
   237  120  121 1    
   238  120  124 1    
   239  120  241 1    
   240  121  122 am   BACKBONE|DICT|INTERRES
   241  121  123 2    
   242  122  242 1    
   243  122  243 1    
   244  124  125 1    
   245  124  244 1    
   246  124  245 1    
   247  125  126 1    
   248  126  246 1    
   249  126  247 1    
@<TRIPOS>SUBSTRUCTURE
     1 UNK         1 GROUP             0       ****    0 ROOT    
