@<TRIPOS>MOLECULE
3R540
247   249    1
SMALL
USER_CHARGES


@<TRIPOS>ATOM
      1 CA          2.9188  -12.3757  -42.7842 C.3       0 UNK        -0.1800 
      2 C           2.1084  -11.6397  -43.8394 C.2       0 UNK         0.5000 
      3 O           2.2679  -10.4292  -43.9985 O.2       0 UNK        -0.5000 
      4 N           1.2500  -12.3645  -44.5687 N.am      1 UNK        -0.5000 
      5 CA          0.4974  -11.8386  -45.7127 C.3       1 UNK         0.1400 
      6 C6         -0.8466  -12.5745  -45.9495 C.3       23 UNK        -0.0398 
      7 S7         -0.7383  -14.3354  -46.4360 S.3       23 UNK        -0.2404 
      8 C8         -0.8640  -14.2183  -48.2511 C.3       23 UNK        -0.0205 
      9 C9         -1.5934  -15.4122  -48.8468 C.ar      23 UNK        -0.0193 
     10 C10        -2.9685  -15.3475  -49.0812 C.ar      23 UNK        -0.1150 
     11 C11        -3.6505  -16.4240  -49.6564 C.ar      23 UNK        -0.0193 
     12 C12        -2.9368  -17.5851  -49.9805 C.ar      23 UNK        -0.1150 
     13 C13        -1.5612  -17.6717  -49.7422 C.ar      23 UNK        -0.0193 
     14 C14        -0.8941  -16.5693  -49.1941 C.ar      23 UNK        -0.1150 
     15 C15        -0.8184  -18.9594  -50.1003 C.3       23 UNK        -0.0205 
     16 S16         0.5286  -19.3981  -48.9451 S.3       23 UNK        -0.2404 
     17 C17        -0.3672  -19.4539  -47.3565 C.3       23 UNK        -0.0398 
     18 CA         -0.2537  -20.8054  -46.6207 C.3       11 UNK         0.1400 
     19 N          -0.7173  -20.6794  -45.2404 N.am      11 UNK        -0.5000 
     20 C          -0.6493  -21.6295  -44.3000 C.2       10 UNK         0.5000 
     21 O          -0.1219  -22.7284  -44.4662 O.2       10 UNK        -0.5000 
     22 CA         -1.3455  -21.3094  -42.9668 C.3       10 UNK         0.1400 
     23 CB         -0.4641  -20.4102  -42.0851 C.3       10 UNK        -0.1800 
     24 N          -2.6479  -20.6733  -43.1755 N.am      10 UNK        -0.5000 
     25 C          -3.7091  -21.2850  -43.7218 C.2       9 UNK         0.5000 
     26 O          -3.7128  -22.4639  -44.0742 O.2       9 UNK        -0.5000 
     27 CA         -4.9651  -20.4237  -43.9441 C.3       9 UNK         0.1400 
     28 CB         -5.7931  -20.3295  -42.6540 C.3       9 UNK        -0.1800 
     29 N          -4.6494  -19.0755  -44.4180 N.am      9 UNK        -0.5000 
     30 C          -4.1216  -18.7982  -45.6190 C.2       8 UNK         0.5000 
     31 O          -3.8471  -19.6522  -46.4602 O.2       8 UNK        -0.5000 
     32 CA         -3.7947  -17.3200  -45.8978 C.3       8 UNK         0.1400 
     33 CB         -5.0619  -16.5570  -46.3094 C.3       8 UNK        -0.1800 
     34 N          -3.1779  -16.6441  -44.7538 N.am      8 UNK        -0.5000 
     35 C          -2.0244  -17.0140  -44.1860 C.2       7 UNK         0.5000 
     36 O          -1.3572  -17.9866  -44.5515 O.2       7 UNK        -0.5000 
     37 CA         -1.5592  -16.1916  -42.9801 C.3       7 UNK         0.1400 
     38 CB         -2.3171  -16.6150  -41.7078 C.3       7 UNK        -0.1800 
     39 N          -0.1329  -16.4275  -42.8195 N.am      7 UNK        -0.5000 
     40 C           0.7259  -15.6948  -42.1073 C.2       6 UNK         0.5000 
     41 O           0.4024  -14.7170  -41.4331 O.2       6 UNK        -0.5000 
     42 CA          2.2039  -16.1265  -42.1700 C.3       6 UNK         0.1400 
     43 CB          2.5303  -17.0798  -41.0105 C.3       6 UNK        -0.1800 
     44 N           2.5773  -16.7712  -43.4324 N.am      6 UNK        -0.5000 
     45 C           2.5825  -16.1731  -44.6304 C.2       5 UNK         0.5000 
     46 O           2.2682  -14.9964  -44.8155 O.2       5 UNK        -0.5000 
     47 CA          3.0756  -17.0224  -45.8126 C.3       5 UNK         0.1400 
     48 CB          2.3482  -16.6495  -47.1109 C.3       5 UNK        -0.1800 
     49 N           4.5085  -16.8094  -45.9854 N.am      5 UNK        -0.5000 
     50 C           5.4526  -17.3463  -45.1998 C.2       4 UNK         0.5000 
     51 O           5.2239  -18.2171  -44.3589 O.2       4 UNK        -0.5000 
     52 CA          6.8871  -16.8043  -45.3539 C.3       4 UNK         0.1400 
     53 CB          7.7043  -17.7008  -46.2964 C.3       4 UNK        -0.1800 
     54 N           6.9384  -15.4254  -45.8438 N.am      4 UNK        -0.5000 
     55 C           6.4801  -14.3484  -45.1899 C.2       3 UNK         0.5000 
     56 O           5.9968  -14.3869  -44.0581 O.2       3 UNK        -0.5000 
     57 CA          6.5641  -12.9973  -45.9280 C.3       3 UNK         0.1400 
     58 CB          7.7504  -12.9091  -46.9138 C.3       3 UNK        -0.1800 
     59 N           5.3100  -12.6421  -46.6020 N.am      3 UNK        -0.5000 
     60 C           4.6602  -13.3407  -47.5447 C.2       2 UNK         0.5000 
     61 O           4.9955  -14.4610  -47.9336 O.2       2 UNK        -0.5000 
     62 CA          3.4009  -12.6700  -48.1103 C.3       2 UNK         0.1400 
     63 CB          2.8682  -13.3329  -49.3971 C.3       2 UNK        -0.1800 
     64 N           2.3828  -12.6520  -47.0662 N.am      2 UNK        -0.5000 
     65 C           1.3771  -11.7712  -46.9796 C.2       1 UNK         0.5000 
     66 O           1.1485  -10.9089  -47.8291 O.2       1 UNK        -0.5000 
     67 C          -0.9927  -21.9359  -47.3633 C.2       11 UNK         0.5000 
     68 O          -0.3398  -22.8004  -47.9475 O.2       11 UNK        -0.5000 
     69 N          -2.3315  -21.9423  -47.2784 N.am      12 UNK        -0.5000 
     70 CA         -3.1919  -22.9688  -47.8641 C.3       12 UNK         0.1400 
     71 CB         -4.6663  -22.5795  -47.6860 C.3       12 UNK        -0.1800 
     72 C          -2.9271  -24.3746  -47.2986 C.2       12 UNK         0.5000 
     73 O          -2.9113  -25.3358  -48.0648 O.2       12 UNK        -0.5000 
     74 N          -2.6891  -24.4711  -45.9832 N.am      13 UNK        -0.5000 
     75 CA         -2.3095  -25.7113  -45.3074 C.3       13 UNK         0.1400 
     76 CB         -2.3698  -25.5131  -43.7853 C.3       13 UNK        -0.1800 
     77 C          -0.9231  -26.2214  -45.7425 C.2       13 UNK         0.5000 
     78 O          -0.7783  -27.4129  -46.0165 O.2       13 UNK        -0.5000 
     79 N           0.0603  -25.3135  -45.8205 N.am      14 UNK        -0.5000 
     80 CA          1.4361  -25.6066  -46.2271 C.3       14 UNK         0.1400 
     81 CB          2.3272  -24.3884  -45.9392 C.3       14 UNK        -0.1800 
     82 C           1.5540  -26.0307  -47.7024 C.2       14 UNK         0.5000 
     83 O           2.2613  -26.9929  -48.0036 O.2       14 UNK        -0.5000 
     84 N           0.8502  -25.3179  -48.5914 N.am      15 UNK        -0.5000 
     85 CA          0.8058  -25.5935  -50.0295 C.3       15 UNK         0.1400 
     86 CB          0.3780  -24.3127  -50.7620 C.3       15 UNK        -0.1800 
     87 C          -0.1236  -26.7670  -50.4015 C.2       15 UNK         0.5000 
     88 O          -0.0473  -27.2571  -51.5284 O.2       15 UNK        -0.5000 
     89 N          -0.9894  -27.1774  -49.4628 N.am      16 UNK        -0.5000 
     90 CA         -2.0363  -28.2015  -49.5734 C.3       16 UNK         0.1400 
     91 CB         -1.4381  -29.5852  -49.9018 C.3       16 UNK        -0.1800 
     92 C          -3.1979  -27.8110  -50.5159 C.2       16 UNK         0.5000 
     93 O          -3.9914  -28.6724  -50.8992 O.2       16 UNK        -0.5000 
     94 N          -3.2992  -26.5191  -50.8426 N.am      17 UNK        -0.5000 
     95 CA         -4.3419  -25.8815  -51.6337 C.3       17 UNK         0.1400 
     96 CB         -4.2255  -26.2783  -53.1175 C.3       17 UNK        -0.1800 
     97 C          -4.1804  -24.3652  -51.4692 C.2       17 UNK         0.5000 
     98 O          -3.0498  -23.8820  -51.3886 O.2       17 UNK        -0.5000 
     99 N          -5.3016  -23.6354  -51.4487 N.am      18 UNK        -0.5000 
    100 CA        -5.3286  -22.1701  -51.3591 C.3       18 UNK         0.1400 
    101 CB        -6.7035  -21.7381  -50.8322 C.3       18 UNK        -0.1800 
    102 C         -4.9925  -21.4657  -52.6923 C.2       18 UNK         0.5000 
    103 O         -4.7095  -20.2662  -52.6886 O.2       18 UNK        -0.5000 
    104 N         -5.0168  -22.2282  -53.7976 N.am      19 UNK        -0.5000 
    105 CA        -4.6552  -21.8416  -55.1649 C.3       19 UNK         0.1400 
    106 CB        -3.1399  -21.5481  -55.2449 C.3       19 UNK        -0.1800 
    107 C         -5.5273  -20.6965  -55.7248 C.2       19 UNK         0.5000 
    108 O         -6.6376  -20.4673  -55.2412 O.2       19 UNK        -0.5000 
    109 N         -5.0189  -19.9898  -56.7419 N.am      20 UNK        -0.5000 
    110 CA        -5.6838  -18.8488  -57.3791 C.3       20 UNK         0.1400 
    111 CB        -4.9292  -18.4971  -58.6709 C.3       20 UNK        -0.1800 
    112 C         -5.8037  -17.6085  -56.4680 C.2       20 UNK         0.5000 
    113 O         -6.5936  -16.7133  -56.7710 O.2       20 UNK        -0.5000 
    114 N         -5.0164  -17.5693  -55.3837 N.am      21 UNK        -0.5000 
    115 CA        -4.9960  -16.4908  -54.4000 C.3       21 UNK         0.1400 
    116 CB        -3.7633  -16.6571  -53.4972 C.3       21 UNK        -0.1800 
    117 C         -6.2856  -16.4163  -53.5620 C.2       21 UNK         0.5000 
    118 O         -6.7860  -15.3144  -53.3313 O.2       21 UNK        -0.5000 
    119 N         -6.7959  -17.5717  -53.1163 N.am      22 UNK        -0.5000 
    120 CA        -7.9579  -17.6617  -52.2142 C.3       22 UNK         0.1400 
    121 C         -8.7281  -19.0126  -52.2583 C.2       22 UNK         0.5000 
    122 N         -8.4548  -19.9291  -53.1771 N.am      22 UNK        -0.7600 
    123 O         -9.6357  -19.2302  -51.4602 O.2       22 UNK        -0.5000 
    124 C124       -7.6589  -17.1611  -50.7665 C.3       23 UNK        -0.0398 
    125 S125       -6.1105  -17.8029  -50.0318 S.3       23 UNK        -0.2404 
    126 C126       -5.1361  -16.2590  -49.9702 C.3       23 UNK        -0.0205 
    127 H127        3.6152  -11.6989  -42.2888 H         1 UNK         0.0600 
    128 H128        3.4984  -13.1795  -43.2378 H         1 UNK         0.0600 
    129 H129        2.2609  -12.7981  -42.0258 H         1 UNK         0.0600 
    130 H130        1.2393  -13.3748  -44.4578 H         1 UNK         0.3000 
    131 H131        0.2300  -10.8053  -45.4805 H         1 UNK         0.0600 
    132 H132       -1.4424  -12.0287  -46.6822 H         1 UNK         0.0800 
    133 H133       -1.4327  -12.5339  -45.0306 H         1 UNK         0.0800 
    134 H134        0.1392  -14.1482  -48.6712 H         1 UNK         0.0800 
    135 H135       -1.3776  -13.3020  -48.5438 H         1 UNK         0.0800 
    136 H136       -3.5072  -14.4442  -48.8311 H         1 UNK         0.1150 
    137 H137       -3.4464  -18.4225  -50.4359 H         1 UNK         0.1150 
    138 H138        0.1725  -16.6097  -49.0323 H         1 UNK         0.1150 
    139 H139       -1.5161  -19.7978  -50.1418 H         1 UNK         0.0800 
    140 H140       -0.4012  -18.8532  -51.1022 H         1 UNK         0.0800 
    141 H141       -1.4140  -19.1834  -47.4973 H         1 UNK         0.0800 
    142 H142        0.0532  -18.6668  -46.7318 H         1 UNK         0.0800 
    143 H143        0.8027  -21.0783  -46.5736 H         1 UNK         0.0600 
    144 H144       -1.1389  -19.7875  -44.9931 H         1 UNK         0.3000 
    145 H145       -1.5075  -22.2516  -42.4388 H         1 UNK         0.0600 
    146 H146       -0.9335  -20.2227  -41.1194 H         1 UNK         0.0600 
    147 H147        0.4999  -20.8821  -41.8910 H         1 UNK         0.0600 
    148 H148       -0.2665  -19.4463  -42.5536 H         1 UNK         0.0600 
    149 H149       -2.7172  -19.6923  -42.9538 H         1 UNK         0.3000 
    150 H150       -5.5747  -20.9157  -44.7051 H         1 UNK         0.0600 
    151 H151       -6.0563  -21.3224  -42.2866 H         1 UNK         0.0600 
    152 H152       -6.7250  -19.7895  -42.8225 H         1 UNK         0.0600 
    153 H153       -5.2477  -19.8190  -41.8592 H         1 UNK         0.0600 
    154 H154       -4.8372  -18.3119  -43.7857 H         1 UNK         0.3000 
    155 H155       -3.0860  -17.2884  -46.7282 H         1 UNK         0.0600 
    156 H156       -5.7756  -16.4831  -45.4883 H         1 UNK         0.0600 
    157 H157       -5.5667  -17.0591  -47.1347 H         1 UNK         0.0600 
    158 H158       -4.8226  -15.5462  -46.6397 H         1 UNK         0.0600 
    159 H159       -3.6641  -15.8352  -44.3957 H         1 UNK         0.3000 
    160 H160       -1.7277  -15.1329  -43.1879 H         1 UNK         0.0600 
    161 H161       -2.1450  -17.6652  -41.4688 H         1 UNK         0.0600 
    162 H162       -3.3923  -16.4747  -41.8239 H         1 UNK         0.0600 
    163 H163       -2.0084  -16.0234  -40.8460 H         1 UNK         0.0600 
    164 H164        0.2160  -17.1915  -43.3843 H         1 UNK         0.3000 
    165 H165        2.8182  -15.2321  -42.0572 H         1 UNK         0.0600 
    166 H166        3.5904  -17.3337  -40.9947 H         1 UNK         0.0600 
    167 H167        2.2926  -16.6218  -40.0494 H         1 UNK         0.0600 
    168 H168        1.9624  -18.0086  -41.0810 H         1 UNK         0.0600 
    169 H169        2.9241  -17.7183  -43.3678 H         1 UNK         0.3000 
    170 H170        2.8790  -18.0764  -45.6049 H         1 UNK         0.0600 
    171 H171        2.5430  -15.6180  -47.3938 H         1 UNK         0.0600 
    172 H172        2.6519  -17.2907  -47.9381 H         1 UNK         0.0600 
    173 H173        1.2703  -16.7468  -46.9891 H         1 UNK         0.0600 
    174 H174        4.7793  -16.0787  -46.6353 H         1 UNK         0.3000 
    175 H175        7.3540  -16.8271  -44.3671 H         1 UNK         0.0600 
    176 H176        7.2955  -17.6986  -47.3077 H         1 UNK         0.0600 
    177 H177        8.7425  -17.3728  -46.3521 H         1 UNK         0.0600 
    178 H178        7.7092  -18.7338  -45.9462 H         1 UNK         0.0600 
    179 H179        7.2736  -15.2961  -46.7876 H         1 UNK         0.3000 
    180 H180        6.7259  -12.2406  -45.1586 H         1 UNK         0.0600 
    181 H181        7.6291  -13.5677  -47.7742 H         1 UNK         0.0600 
    182 H182        8.6883  -13.1733  -46.4234 H         1 UNK         0.0600 
    183 H183        7.8627  -11.8936  -47.2937 H         1 UNK         0.0600 
    184 H184        4.9102  -11.7587  -46.3179 H         1 UNK         0.3000 
    185 H185        3.6755  -11.6416  -48.3550 H         1 UNK         0.0600 
    186 H186        2.5417  -14.3581  -49.2317 H         1 UNK         0.0600 
    187 H187        2.0252  -12.7777  -49.8079 H         1 UNK         0.0600 
    188 H188        3.6410  -13.3586  -50.1662 H         1 UNK         0.0600 
    189 H189        2.4930  -13.3331  -46.3224 H         1 UNK         0.3000 
    190 H190       -2.8043  -21.1733  -46.8094 H         1 UNK         0.3000 
    191 H191       -2.9735  -22.9967  -48.9318 H         1 UNK         0.0600 
    192 H192       -5.3224  -23.3163  -48.1510 H         1 UNK         0.0600 
    193 H193       -4.8792  -21.6155  -48.1484 H         1 UNK         0.0600 
    194 H194       -4.9399  -22.5117  -46.6329 H         1 UNK         0.0600 
    195 H195       -2.7801  -23.6430  -45.4033 H         1 UNK         0.3000 
    196 H196       -3.0424  -26.4753  -45.5753 H         1 UNK         0.0600 
    197 H197       -2.1021  -26.4311  -43.2607 H         1 UNK         0.0600 
    198 H198       -3.3742  -25.2362  -43.4645 H         1 UNK         0.0600 
    199 H199       -1.6863  -24.7322  -43.4513 H         1 UNK         0.0600 
    200 H200       -0.1333  -24.3557  -45.5409 H         1 UNK         0.3000 
    201 H201        1.7942  -26.4372  -45.6153 H         1 UNK         0.0600 
    202 H202        2.3261  -24.1427  -44.8772 H         1 UNK         0.0600 
    203 H203        1.9921  -23.5061  -46.4857 H         1 UNK         0.0600 
    204 H204        3.3611  -24.5820  -46.2274 H         1 UNK         0.0600 
    205 H205        0.3298  -24.5032  -48.2698 H         1 UNK         0.3000 
    206 H206        1.8105  -25.8556  -50.3677 H         1 UNK         0.0600 
    207 H207        1.0856  -23.5026  -50.5849 H         1 UNK         0.0600 
    208 H208        0.3245  -24.4703  -51.8399 H         1 UNK         0.0600 
    209 H209       -0.6031  -23.9735  -50.4297 H         1 UNK         0.0600 
    210 H210       -0.9896  -26.6705  -48.5873 H         1 UNK         0.3000 
    211 H211       -2.4780  -28.2685  -48.5782 H         1 UNK         0.0600 
    212 H212       -1.0547  -29.6317  -50.9212 H         1 UNK         0.0600 
    213 H213       -2.1899  -30.3688  -49.8025 H         1 UNK         0.0600 
    214 H214       -0.6221  -29.8328  -49.2228 H         1 UNK         0.0600 
    215 H215       -2.6349  -25.8697  -50.4380 H         1 UNK         0.3000 
    216 H216       -5.3149  -26.1854  -51.2428 H         1 UNK         0.0600 
    217 H217       -4.9790  -25.7692  -53.7194 H         1 UNK         0.0600 
    218 H218       -4.3720  -27.3488  -53.2595 H         1 UNK         0.0600 
    219 H219       -3.2475  -26.0183  -53.5248 H         1 UNK         0.0600 
    220 H220       -6.1968  -24.0986  -51.5177 H         1 UNK         0.3000 
    221 H221       -4.5767  -21.8488  -50.6355 H         1 UNK         0.0600 
    222 H222       -6.7532  -20.6556  -50.7188 H         1 UNK         0.0600 
    223 H223       -7.5055  -22.0381  -51.5068 H         1 UNK         0.0600 
    224 H224       -6.9081  -22.1725  -49.8539 H         1 UNK         0.0600 
    225 H225       -5.3095  -23.1866  -53.6837 H         1 UNK         0.3000 
    226 H226       -4.8603  -22.7123  -55.7892 H         1 UNK         0.0600 
    227 H227       -2.8795  -20.6173  -54.7393 H         1 UNK         0.0600 
    228 H228       -2.5625  -22.3478  -54.7802 H         1 UNK         0.0600 
    229 H229       -2.7983  -21.4732  -56.2776 H         1 UNK         0.0600 
    230 H230       -4.1043  -20.2319  -57.0947 H         1 UNK         0.3000 
    231 H231       -6.6978  -19.1529  -57.6474 H         1 UNK         0.0600 
    232 H232       -3.9007  -18.1967  -58.4667 H         1 UNK         0.0600 
    233 H233       -5.4138  -17.6724  -59.1955 H         1 UNK         0.0600 
    234 H234       -4.9032  -19.3443  -59.3565 H         1 UNK         0.0600 
    235 H235       -4.4090  -18.3553  -55.2066 H         1 UNK         0.3000 
    236 H236       -4.8938  -15.5468  -54.9395 H         1 UNK         0.0600 
    237 H237       -3.8107  -17.5785  -52.9152 H         1 UNK         0.0600 
    238 H238       -2.8437  -16.6772  -54.0819 H         1 UNK         0.0600 
    239 H239       -3.6788  -15.8280  -52.7941 H         1 UNK         0.0600 
    240 H240       -6.3104  -18.4384  -53.3071 H         1 UNK         0.3000 
    241 H241       -8.7005  -16.9728  -52.6211 H         1 UNK         0.0600 
    242 H242       -9.0043  -20.7725  -53.1772 H         1 UNK         0.3800 
    243 H243       -7.7415  -19.8237  -53.8929 H         1 UNK         0.3800 
    244 H244       -7.6177  -16.0715  -50.7762 H         1 UNK         0.0800 
    245 H245       -8.4797  -17.3926  -50.0863 H         1 UNK         0.0800 
    246 H246       -5.5972  -15.6012  -49.2321 H         1 UNK         0.0800 
    247 H247       -5.2160  -15.7454  -50.9272 H         1 UNK         0.0800 
@<TRIPOS>BOND
     1    1    2 1    
     2    1  127 1    
     3    1  128 1    
     4    1  129 1    
     5    2    3 2    
     6    2    4 am   BACKBONE|DICT|INTERRES
     7    4    5 1    
     8    4  130 1    
     9    5    6 1    
    10    5   65 1    
    11    5  131 1    
    12    6    7 1    
    13    6  132 1    
    14    6  133 1    
    15    7    8 1    
    16    8    9 1    
    17    8  134 1    
    18    8  135 1    
    19    9   10 ar   
    20    9   14 ar   
    21   10   11 ar   
    22   10  136 1    
    23   11   12 ar   
    24   11  126 1    
    25   12   13 ar   
    26   12  137 1    
    27   13   14 ar   
    28   13   15 1    
    29   14  138 1    
    30   15   16 1    
    31   15  139 1    
    32   15  140 1    
    33   16   17 1    
    34   17   18 1    
    35   17  141 1    
    36   17  142 1    
    37   18   19 1    
    38   18   67 1    
    39   18  143 1    
    40   19   20 am   BACKBONE|DICT|INTERRES
    41   19  144 1    
    42   20   21 2    
    43   20   22 1    
    44   22   23 1    
    45   22   24 1    
    46   22  145 1    
    47   23  146 1    
    48   23  147 1    
    49   23  148 1    
    50   24   25 am   BACKBONE|DICT|INTERRES
    51   24  149 1    
    52   25   26 2    
    53   25   27 1    
    54   27   28 1    
    55   27   29 1    
    56   27  150 1    
    57   28  151 1    
    58   28  152 1    
    59   28  153 1    
    60   29   30 am   BACKBONE|DICT|INTERRES
    61   29  154 1    
    62   30   31 2    
    63   30   32 1    
    64   32   33 1    
    65   32   34 1    
    66   32  155 1    
    67   33  156 1    
    68   33  157 1    
    69   33  158 1    
    70   34   35 am   BACKBONE|DICT|INTERRES
    71   34  159 1    
    72   35   36 2    
    73   35   37 1    
    74   37   38 1    
    75   37   39 1    
    76   37  160 1    
    77   38  161 1    
    78   38  162 1    
    79   38  163 1    
    80   39   40 am   BACKBONE|DICT|INTERRES
    81   39  164 1    
    82   40   41 2    
    83   40   42 1    
    84   42   43 1    
    85   42   44 1    
    86   42  165 1    
    87   43  166 1    
    88   43  167 1    
    89   43  168 1    
    90   44   45 am   BACKBONE|DICT|INTERRES
    91   44  169 1    
    92   45   46 2    
    93   45   47 1    
    94   47   48 1    
    95   47   49 1    
    96   47  170 1    
    97   48  171 1    
    98   48  172 1    
    99   48  173 1    
   100   49   50 am   BACKBONE|DICT|INTERRES
   101   49  174 1    
   102   50   51 2    
   103   50   52 1    
   104   52   53 1    
   105   52   54 1    
   106   52  175 1    
   107   53  176 1    
   108   53  177 1    
   109   53  178 1    
   110   54   55 am   BACKBONE|DICT|INTERRES
   111   54  179 1    
   112   55   56 2    
   113   55   57 1    
   114   57   58 1    
   115   57   59 1    
   116   57  180 1    
   117   58  181 1    
   118   58  182 1    
   119   58  183 1    
   120   59   60 am   BACKBONE|DICT|INTERRES
   121   59  184 1    
   122   60   61 2    
   123   60   62 1    
   124   62   63 1    
   125   62   64 1    
   126   62  185 1    
   127   63  186 1    
   128   63  187 1    
   129   63  188 1    
   130   64   65 am   BACKBONE|DICT|INTERRES
   131   64  189 1    
   132   65   66 2    
   133   67   68 2    
   134   67   69 am   BACKBONE|DICT|INTERRES
   135   69   70 1    
   136   69  190 1    
   137   70   71 1    
   138   70   72 1    
   139   70  191 1    
   140   71  192 1    
   141   71  193 1    
   142   71  194 1    
   143   72   73 2    
   144   72   74 am   BACKBONE|DICT|INTERRES
   145   74   75 1    
   146   74  195 1    
   147   75   76 1    
   148   75   77 1    
   149   75  196 1    
   150   76  197 1    
   151   76  198 1    
   152   76  199 1    
   153   77   78 2    
   154   77   79 am   BACKBONE|DICT|INTERRES
   155   79   80 1    
   156   79  200 1    
   157   80   81 1    
   158   80   82 1    
   159   80  201 1    
   160   81  202 1    
   161   81  203 1    
   162   81  204 1    
   163   82   83 2    
   164   82   84 am   BACKBONE|DICT|INTERRES
   165   84   85 1    
   166   84  205 1    
   167   85   86 1    
   168   85   87 1    
   169   85  206 1    
   170   86  207 1    
   171   86  208 1    
   172   86  209 1    
   173   87   88 2    
   174   87   89 am   BACKBONE|DICT|INTERRES
   175   89   90 1    
   176   89  210 1    
   177   90   91 1    
   178   90   92 1    
   179   90  211 1    
   180   91  212 1    
   181   91  213 1    
   182   91  214 1    
   183   92   93 2    
   184   92   94 am   BACKBONE|DICT|INTERRES
   185   94   95 1    
   186   94  215 1    
   187   95   96 1    
   188   95   97 1    
   189   95  216 1    
   190   96  217 1    
   191   96  218 1    
   192   96  219 1    
   193   97   98 2    
   194   97   99 am   BACKBONE|DICT|INTERRES
   195   99  100 1    
   196   99  220 1    
   197  100  101 1    
   198  100  102 1    
   199  100  221 1    
   200  101  222 1    
   201  101  223 1    
   202  101  224 1    
   203  102  103 2    
   204  102  104 am   BACKBONE|DICT|INTERRES
   205  104  105 1    
   206  104  225 1    
   207  105  106 1    
   208  105  107 1    
   209  105  226 1    
   210  106  227 1    
   211  106  228 1    
   212  106  229 1    
   213  107  108 2    
   214  107  109 am   BACKBONE|DICT|INTERRES
   215  109  110 1    
   216  109  230 1    
   217  110  111 1    
   218  110  112 1    
   219  110  231 1    
   220  111  232 1    
   221  111  233 1    
   222  111  234 1    
   223  112  113 2    
   224  112  114 am   BACKBONE|DICT|INTERRES
   225  114  115 1    
   226  114  235 1    
   227  115  116 1    
   228  115  117 1    
   229  115  236 1    
   230  116  237 1    
   231  116  238 1    
   232  116  239 1    
   233  117  118 2    
   234  117  119 am   BACKBONE|DICT|INTERRES
   235  119  120 1    
   236  119  240 1    
   237  120  121 1    
   238  120  124 1    
   239  120  241 1    
   240  121  122 am   BACKBONE|DICT|INTERRES
   241  121  123 2    
   242  122  242 1    
   243  122  243 1    
   244  124  125 1    
   245  124  244 1    
   246  124  245 1    
   247  125  126 1    
   248  126  246 1    
   249  126  247 1    
@<TRIPOS>SUBSTRUCTURE
     1 UNK         1 GROUP             0       ****    0 ROOT    
