@<TRIPOS>MOLECULE
3R540
247   249    1
SMALL
USER_CHARGES


@<TRIPOS>ATOM
      1 CA          4.9309   -9.9112  -48.4024 C.3       0 UNK        -0.1800 
      2 C           5.2472  -11.1989  -49.1503 C.2       0 UNK         0.5000 
      3 O           6.4027  -11.4327  -49.5064 O.2       0 UNK        -0.5000 
      4 N           4.2254  -12.0271  -49.3972 N.am      1 UNK        -0.5000 
      5 CA          4.3372  -13.3318  -50.0561 C.3       1 UNK         0.1400 
      6 C6          2.9509  -13.9042  -50.4309 C.3       23 UNK        -0.0398 
      7 S7          2.0707  -12.8824  -51.6616 S.3       23 UNK        -0.2404 
      8 C8          0.3405  -13.3956  -51.3949 C.3       23 UNK        -0.0205 
      9 C9          0.1833  -14.9078  -51.4504 C.ar      23 UNK        -0.0193 
     10 C10         0.2824  -15.5838  -52.6696 C.ar      23 UNK        -0.1150 
     11 C11         0.2051  -16.9787  -52.7143 C.ar      23 UNK        -0.0193 
     12 C12         0.0379  -17.6949  -51.5260 C.ar      23 UNK        -0.1150 
     13 C13        -0.0962  -17.0286  -50.3057 C.ar      23 UNK        -0.0193 
     14 C14        -0.0275  -15.6342  -50.2753 C.ar      23 UNK        -0.1150 
     15 C15        -0.2805  -17.8112  -49.0170 C.3       23 UNK        -0.0205 
     16 S16        -2.0025  -18.3480  -48.7883 S.3       23 UNK        -0.2404 
     17 C17        -1.9467  -18.8727  -47.0437 C.3       23 UNK        -0.0398 
     18 CA         -1.2873  -20.2584  -46.8337 C.3       11 UNK         0.1400 
     19 N          -0.6773  -20.3436  -45.5065 N.am      11 UNK        -0.5000 
     20 C           0.2383  -21.2461  -45.1346 C.2       10 UNK         0.5000 
     21 O           0.6705  -22.1292  -45.8737 O.2       10 UNK        -0.5000 
     22 CA          0.7006  -21.1773  -43.6673 C.3       10 UNK         0.1400 
     23 CB          1.7788  -20.0988  -43.4913 C.3       10 UNK        -0.1800 
     24 N          -0.4058  -20.9135  -42.7430 N.am      10 UNK        -0.5000 
     25 C          -1.4172  -21.7659  -42.5210 C.2       9 UNK         0.5000 
     26 O          -1.4902  -22.8808  -43.0338 O.2       9 UNK        -0.5000 
     27 CA         -2.5703  -21.2781  -41.6237 C.3       9 UNK         0.1400 
     28 CB         -2.2762  -21.5983  -40.1508 C.3       9 UNK        -0.1800 
     29 N          -2.8641  -19.8498  -41.7527 N.am      9 UNK        -0.5000 
     30 C          -3.1580  -19.1995  -42.8881 C.2       8 UNK         0.5000 
     31 O          -3.2218  -19.7482  -43.9884 O.2       8 UNK        -0.5000 
     32 CA         -3.4012  -17.6795  -42.7913 C.3       8 UNK         0.1400 
     33 CB         -4.8753  -17.3553  -43.0771 C.3       8 UNK        -0.1800 
     34 N          -3.0252  -17.0899  -41.5009 N.am      8 UNK        -0.5000 
     35 C          -1.7714  -16.9589  -41.0496 C.2       7 UNK         0.5000 
     36 O          -0.7751  -17.3509  -41.6652 O.2       7 UNK        -0.5000 
     37 CA         -1.6180  -16.3342  -39.6555 C.3       7 UNK         0.1400 
     38 CB         -1.7951  -17.4008  -38.5625 C.3       7 UNK        -0.1800 
     39 N          -0.2826  -15.7627  -39.5509 N.am      7 UNK        -0.5000 
     40 C           0.0153  -14.5277  -39.1326 C.2       6 UNK         0.5000 
     41 O          -0.8098  -13.7514  -38.6489 O.2       6 UNK        -0.5000 
     42 CA          1.4831  -14.0717  -39.2887 C.3       6 UNK         0.1400 
     43 CB          2.1964  -14.0821  -37.9275 C.3       6 UNK        -0.1800 
     44 N           2.2614  -14.8794  -40.2356 N.am      6 UNK        -0.5000 
     45 C           2.0436  -14.9404  -41.5563 C.2       5 UNK         0.5000 
     46 O           1.1805  -14.2742  -42.1350 O.2       5 UNK        -0.5000 
     47 CA          2.9188  -15.9223  -42.3540 C.3       5 UNK         0.1400 
     48 CB          3.0298  -17.3041  -41.6786 C.3       5 UNK        -0.1800 
     49 N           2.3505  -16.0703  -43.6893 N.am      5 UNK        -0.5000 
     50 C           3.0318  -16.3581  -44.8003 C.2       4 UNK         0.5000 
     51 O           4.2441  -16.5858  -44.8189 O.2       4 UNK        -0.5000 
     52 CA          2.2091  -16.3636  -46.1023 C.3       4 UNK         0.1400 
     53 CB          1.7554  -14.9416  -46.4737 C.3       4 UNK        -0.1800 
     54 N           2.9826  -16.9176  -47.2120 N.am      4 UNK        -0.5000 
     55 C           3.0435  -18.2221  -47.5129 C.2       3 UNK         0.5000 
     56 O           2.3774  -19.0801  -46.9339 O.2       3 UNK        -0.5000 
     57 CA          3.9777  -18.6538  -48.6628 C.3       3 UNK         0.1400 
     58 CB          3.1651  -19.1204  -49.8812 C.3       3 UNK        -0.1800 
     59 N           4.8948  -17.5974  -49.0938 N.am      3 UNK        -0.5000 
     60 C           6.0520  -17.2954  -48.4903 C.2       2 UNK         0.5000 
     61 O           6.5015  -17.9129  -47.5248 O.2       2 UNK        -0.5000 
     62 CA          6.8415  -16.0989  -49.0603 C.3       2 UNK         0.1400 
     63 CB          7.9400  -16.5880  -50.0168 C.3       2 UNK        -0.1800 
     64 N           6.0100  -15.1091  -49.7562 N.am      2 UNK        -0.5000 
     65 C           5.0937  -14.3343  -49.1604 C.2       1 UNK         0.5000 
     66 O           4.8082  -14.4177  -47.9646 O.2       1 UNK        -0.5000 
     67 C          -2.2684  -21.4244  -47.0810 C.2       11 UNK         0.5000 
     68 O          -2.3723  -21.9138  -48.2073 O.2       11 UNK        -0.5000 
     69 N          -2.9501  -21.8733  -46.0175 N.am      12 UNK        -0.5000 
     70 CA         -3.7969  -23.0645  -46.0183 C.3       12 UNK         0.1400 
     71 CB         -4.6756  -23.0783  -44.7600 C.3       12 UNK        -0.1800 
     72 C          -2.9709  -24.3576  -46.1399 C.2       12 UNK         0.5000 
     73 O          -3.3302  -25.2240  -46.9352 O.2       12 UNK        -0.5000 
     74 N          -1.8568  -24.4492  -45.3979 N.am      13 UNK        -0.5000 
     75 CA         -0.9031  -25.5631  -45.4493 C.3       13 UNK         0.1400 
     76 CB          0.1226  -25.4194  -44.3152 C.3       13 UNK        -0.1800 
     77 C          -0.1932  -25.6887  -46.8110 C.2       13 UNK         0.5000 
     78 O           0.0504  -26.8049  -47.2697 O.2       13 UNK        -0.5000 
     79 N           0.0766  -24.5448  -47.4552 N.am      14 UNK        -0.5000 
     80 CA          0.5818  -24.4434  -48.8270 C.3       14 UNK         0.1400 
     81 CB          1.1123  -23.0166  -49.0512 C.3       14 UNK        -0.1800 
     82 C          -0.4698  -24.7976  -49.9024 C.2       14 UNK         0.5000 
     83 O          -0.1184  -24.8687  -51.0796 O.2       14 UNK        -0.5000 
     84 N          -1.7355  -24.9713  -49.4900 N.am      15 UNK        -0.5000 
     85 CA         -2.9446  -25.2404  -50.2780 C.3       15 UNK         0.1400 
     86 CB         -2.7957  -26.5031  -51.1487 C.3       15 UNK        -0.1800 
     87 C          -3.4533  -24.0368  -51.0948 C.2       15 UNK         0.5000 
     88 O          -4.5289  -24.1239  -51.6869 O.2       15 UNK        -0.5000 
     89 N          -2.7128  -22.9239  -51.0822 N.am      16 UNK        -0.5000 
     90 CA         -2.9966  -21.6965  -51.8176 C.3       16 UNK         0.1400 
     91 CB         -1.7941  -20.7582  -51.6904 C.3       16 UNK        -0.1800 
     92 C          -4.2784  -20.9861  -51.3609 C.2       16 UNK         0.5000 
     93 O          -4.9871  -20.4290  -52.2030 O.2       16 UNK        -0.5000 
     94 N          -4.5540  -21.0120  -50.0505 N.am      17 UNK        -0.5000 
     95 CA         -5.7932  -20.4866  -49.4718 C.3       17 UNK         0.1400 
     96 CB         -5.5272  -19.9490  -48.0593 C.3       17 UNK        -0.1800 
     97 C          -6.9095  -21.5439  -49.4382 C.2       17 UNK         0.5000 
     98 O          -8.0829  -21.1751  -49.4593 O.2       17 UNK        -0.5000 
     99 N          -6.5360  -22.8317  -49.3992 N.am      18 UNK        -0.5000 
    100 CA        -7.4678  -23.9620  -49.3711 C.3       18 UNK         0.1400 
    101 CB        -6.7260  -25.2376  -48.9433 C.3       18 UNK        -0.1800 
    102 C         -8.1669  -24.1600  -50.7271 C.2       18 UNK         0.5000 
    103 O         -9.3860  -24.3278  -50.7680 O.2       18 UNK        -0.5000 
    104 N         -7.3843  -24.0943  -51.8129 N.am      19 UNK        -0.5000 
    105 CA        -7.8742  -24.1118  -53.1922 C.3       19 UNK         0.1400 
    106 CB        -6.7345  -24.5763  -54.1133 C.3       19 UNK        -0.1800 
    107 C         -8.3984  -22.7367  -53.6512 C.2       19 UNK         0.5000 
    108 O         -9.0743  -22.6650  -54.6780 O.2       19 UNK        -0.5000 
    109 N         -8.0521  -21.6778  -52.9011 N.am      20 UNK        -0.5000 
    110 CA        -8.3076  -20.2590  -53.1766 C.3       20 UNK         0.1400 
    111 CB        -9.8170  -19.9467  -53.1202 C.3       20 UNK        -0.1800 
    112 C         -7.6323  -19.7844  -54.4816 C.2       20 UNK         0.5000 
    113 O         -8.1827  -18.9537  -55.2067 O.2       20 UNK        -0.5000 
    114 N         -6.4452  -20.3403  -54.7553 N.am      21 UNK        -0.5000 
    115 CA        -5.6199  -20.0385  -55.9206 C.3       21 UNK         0.1400 
    116 CB        -4.6035  -21.1739  -56.1190 C.3       21 UNK        -0.1800 
    117 C         -4.9019  -18.6864  -55.7816 C.2       21 UNK         0.5000 
    118 O         -4.7918  -17.9548  -56.7665 O.2       21 UNK        -0.5000 
    119 N         -4.4405  -18.3793  -54.5639 N.am      22 UNK        -0.5000 
    120 CA        -3.7169  -17.1427  -54.2285 C.3       22 UNK         0.1400 
    121 C         -3.7034  -16.7932  -52.7129 C.2       22 UNK         0.5000 
    122 N         -4.2036  -17.6330  -51.8133 N.am      22 UNK        -0.7600 
    123 O         -3.2748  -15.7039  -52.3449 O.2       22 UNK        -0.5000 
    124 C124       -2.3088  -17.0526  -54.8888 C.3       23 UNK        -0.0398 
    125 S125       -1.2316  -18.4939  -54.5601 S.3       23 UNK        -0.2404 
    126 C126        0.3309  -17.7136  -54.0406 C.3       23 UNK        -0.0205 
    127 H127        5.2050   -9.0478  -49.0088 H         1 UNK         0.0600 
    128 H128        5.4970   -9.8694  -47.4717 H         1 UNK         0.0600 
    129 H129        3.8709   -9.8332  -48.1593 H         1 UNK         0.0600 
    130 H130        3.3012  -11.7815  -49.0738 H         1 UNK         0.3000 
    131 H131        4.9105  -13.1924  -50.9754 H         1 UNK         0.0600 
    132 H132        3.0486  -14.9070  -50.8517 H         1 UNK         0.0800 
    133 H133        2.3301  -14.0034  -49.5387 H         1 UNK         0.0800 
    134 H134       -0.0044  -13.0062  -50.4357 H         1 UNK         0.0800 
    135 H135       -0.2910  -12.9367  -52.1569 H         1 UNK         0.0800 
    136 H136        0.4385  -15.0211  -53.5791 H         1 UNK         0.1150 
    137 H137        0.0101  -18.7731  -51.5520 H         1 UNK         0.1150 
    138 H138       -0.1194  -15.1141  -49.3331 H         1 UNK         0.1150 
    139 H139        0.3671  -18.6876  -49.0250 H         1 UNK         0.0800 
    140 H140        0.0317  -17.2040  -48.1669 H         1 UNK         0.0800 
    141 H141       -2.9547  -18.8464  -46.6269 H         1 UNK         0.0800 
    142 H142       -1.3962  -18.1058  -46.4967 H         1 UNK         0.0800 
    143 H143       -0.4749  -20.3682  -47.5545 H         1 UNK         0.0600 
    144 H144       -1.0417  -19.7147  -44.8058 H         1 UNK         0.3000 
    145 H145        1.1387  -22.1439  -43.4100 H         1 UNK         0.0600 
    146 H146        2.1875  -20.1168  -42.4812 H         1 UNK         0.0600 
    147 H147        2.6090  -20.2580  -44.1810 H         1 UNK         0.0600 
    148 H148        1.3856  -19.0990  -43.6801 H         1 UNK         0.0600 
    149 H149       -0.4248  -20.0092  -42.2918 H         1 UNK         0.3000 
    150 H150       -3.4689  -21.8224  -41.9188 H         1 UNK         0.0600 
    151 H151       -1.4096  -21.0466  -39.7841 H         1 UNK         0.0600 
    152 H152       -2.0708  -22.6612  -40.0154 H         1 UNK         0.0600 
    153 H153       -3.1262  -21.3500  -39.5150 H         1 UNK         0.0600 
    154 H154       -2.8378  -19.3096  -40.9016 H         1 UNK         0.3000 
    155 H155       -2.7929  -17.2101  -43.5672 H         1 UNK         0.0600 
    156 H156       -5.5358  -17.7897  -42.3257 H         1 UNK         0.0600 
    157 H157       -5.1819  -17.7460  -44.0486 H         1 UNK         0.0600 
    158 H158       -5.0468  -16.2788  -43.0946 H         1 UNK         0.0600 
    159 H159       -3.7873  -16.7580  -40.9267 H         1 UNK         0.3000 
    160 H160       -2.3789  -15.5598  -39.5374 H         1 UNK         0.0600 
    161 H161       -1.0706  -18.2097  -38.6670 H         1 UNK         0.0600 
    162 H162       -2.7913  -17.8428  -38.6004 H         1 UNK         0.0600 
    163 H163       -1.6707  -16.9683  -37.5695 H         1 UNK         0.0600 
    164 H164        0.4409  -16.3038  -40.0038 H         1 UNK         0.3000 
    165 H165        1.4652  -13.0442  -39.6578 H         1 UNK         0.0600 
    166 H166        3.2093  -13.6874  -38.0089 H         1 UNK         0.0600 
    167 H167        1.6661  -13.4628  -37.2028 H         1 UNK         0.0600 
    168 H168        2.2590  -15.0896  -37.5143 H         1 UNK         0.0600 
    169 H169        2.9902  -15.4529  -39.8361 H         1 UNK         0.3000 
    170 H170        3.9129  -15.4772  -42.4310 H         1 UNK         0.0600 
    171 H171        2.0475  -17.7473  -41.5116 H         1 UNK         0.0600 
    172 H172        3.6087  -17.9951  -42.2915 H         1 UNK         0.0600 
    173 H173        3.5347  -17.2419  -40.7145 H         1 UNK         0.0600 
    174 H174        1.3743  -15.8090  -43.7477 H         1 UNK         0.3000 
    175 H175        1.3183  -16.9742  -45.9385 H         1 UNK         0.0600 
    176 H176        2.5983  -14.2552  -46.5541 H         1 UNK         0.0600 
    177 H177        1.2237  -14.9317  -47.4237 H         1 UNK         0.0600 
    178 H178        1.0776  -14.5355  -45.7221 H         1 UNK         0.0600 
    179 H179        3.6323  -16.2822  -47.6568 H         1 UNK         0.3000 
    180 H180        4.5588  -19.5050  -48.3016 H         1 UNK         0.0600 
    181 H181        2.5917  -18.3022  -50.3164 H         1 UNK         0.0600 
    182 H182        2.4642  -19.9112  -49.6098 H         1 UNK         0.0600 
    183 H183        3.8165  -19.5211  -50.6580 H         1 UNK         0.0600 
    184 H184        4.6139  -17.0495  -49.8929 H         1 UNK         0.3000 
    185 H185        7.3227  -15.5977  -48.2177 H         1 UNK         0.0600 
    186 H186        8.5971  -17.3056  -49.5234 H         1 UNK         0.0600 
    187 H187        7.5195  -17.0787  -50.8955 H         1 UNK         0.0600 
    188 H188        8.5635  -15.7615  -50.3582 H         1 UNK         0.0600 
    189 H189        6.1914  -14.9886  -50.7426 H         1 UNK         0.3000 
    190 H190       -2.8672  -21.3653  -45.1433 H         1 UNK         0.3000 
    191 H191       -4.4573  -23.0116  -46.8864 H         1 UNK         0.0600 
    192 H192       -5.2687  -22.1667  -44.6832 H         1 UNK         0.0600 
    193 H193       -5.3699  -23.9191  -44.7811 H         1 UNK         0.0600 
    194 H194       -4.0807  -23.1687  -43.8518 H         1 UNK         0.0600 
    195 H195       -1.6604  -23.7227  -44.7142 H         1 UNK         0.3000 
    196 H196       -1.4628  -26.4861  -45.2846 H         1 UNK         0.0600 
    197 H197        0.8351  -26.2452  -44.3247 H         1 UNK         0.0600 
    198 H198       -0.3651  -25.4230  -43.3404 H         1 UNK         0.0600 
    199 H199        0.6913  -24.4933  -44.4019 H         1 UNK         0.0600 
    200 H200       -0.0670  -23.6691  -46.9625 H         1 UNK         0.3000 
    201 H201        1.4136  -25.1414  -48.9406 H         1 UNK         0.0600 
    202 H202        1.5454  -22.9081  -50.0464 H         1 UNK         0.0600 
    203 H203        1.8921  -22.7666  -48.3315 H         1 UNK         0.0600 
    204 H204        0.3201  -22.2736  -48.9565 H         1 UNK         0.0600 
    205 H205       -1.9102  -24.8822  -48.4962 H         1 UNK         0.3000 
    206 H206       -3.7207  -25.4491  -49.5434 H         1 UNK         0.0600 
    207 H207       -2.4518  -27.3518  -50.5575 H         1 UNK         0.0600 
    208 H208       -3.7522  -26.7830  -51.5920 H         1 UNK         0.0600 
    209 H209       -2.0925  -26.3545  -51.9682 H         1 UNK         0.0600 
    210 H210       -1.8835  -22.9215  -50.5069 H         1 UNK         0.3000 
    211 H211       -3.1245  -21.9528  -52.8711 H         1 UNK         0.0600 
    212 H212       -1.4974  -20.6232  -50.6501 H         1 UNK         0.0600 
    213 H213       -2.0285  -19.7729  -52.0924 H         1 UNK         0.0600 
    214 H214       -0.9332  -21.1421  -52.2379 H         1 UNK         0.0600 
    215 H215       -3.8727  -21.4248  -49.4202 H         1 UNK         0.3000 
    216 H216       -6.1525  -19.6511  -50.0767 H         1 UNK         0.0600 
    217 H217       -6.4388  -19.5438  -47.6184 H         1 UNK         0.0600 
    218 H218       -4.7983  -19.1412  -48.0818 H         1 UNK         0.0600 
    219 H219       -5.1607  -20.7249  -47.3895 H         1 UNK         0.0600 
    220 H220       -5.5523  -23.0490  -49.4292 H         1 UNK         0.3000 
    221 H221       -8.2342  -23.7512  -48.6219 H         1 UNK         0.0600 
    222 H222       -6.0185  -25.5682  -49.7030 H         1 UNK         0.0600 
    223 H223       -6.1797  -25.0897  -48.0113 H         1 UNK         0.0600 
    224 H224       -7.4293  -26.0553  -48.7816 H         1 UNK         0.0600 
    225 H225       -6.3762  -24.0092  -51.6971 H         1 UNK         0.3000 
    226 H226       -8.6950  -24.8276  -53.2724 H         1 UNK         0.0600 
    227 H227       -7.0747  -24.6602  -55.1462 H         1 UNK         0.0600 
    228 H228       -5.8965  -23.8781  -54.1000 H         1 UNK         0.0600 
    229 H229       -6.3587  -25.5549  -53.8138 H         1 UNK         0.0600 
    230 H230       -7.4993  -21.8660  -52.0783 H         1 UNK         0.3000 
    231 H231       -7.8277  -19.7027  -52.3701 H         1 UNK         0.0600 
    232 H232      -10.3610  -20.4167  -53.9398 H         1 UNK         0.0600 
    233 H233       -9.9958  -18.8728  -53.1833 H         1 UNK         0.0600 
    234 H234      -10.2544  -20.2931  -52.1838 H         1 UNK         0.0600 
    235 H235       -6.0444  -20.9551  -54.0596 H         1 UNK         0.3000 
    236 H236       -6.2624  -19.9940  -56.8026 H         1 UNK         0.0600 
    237 H237       -5.1049  -22.1306  -56.2673 H         1 UNK         0.0600 
    238 H238       -3.9827  -20.9919  -56.9972 H         1 UNK         0.0600 
    239 H239       -3.9369  -21.2737  -55.2613 H         1 UNK         0.0600 
    240 H240       -4.5791  -19.0403  -53.8121 H         1 UNK         0.3000 
    241 H241       -4.3089  -16.3333  -54.6602 H         1 UNK         0.0600 
    242 H242       -4.5811  -18.5395  -52.0526 H         1 UNK         0.3800 
    243 H243       -4.1621  -17.3576  -50.8454 H         1 UNK         0.3800 
    244 H244       -2.4181  -16.9733  -55.9705 H         1 UNK         0.0800 
    245 H245       -1.8060  -16.1319  -54.5909 H         1 UNK         0.0800 
    246 H246        0.6753  -17.0416  -54.8282 H         1 UNK         0.0800 
    247 H247        1.0938  -18.4874  -53.9453 H         1 UNK         0.0800 
@<TRIPOS>BOND
     1    1    2 1    
     2    1  127 1    
     3    1  128 1    
     4    1  129 1    
     5    2    3 2    
     6    2    4 am   BACKBONE|DICT|INTERRES
     7    4    5 1    
     8    4  130 1    
     9    5    6 1    
    10    5   65 1    
    11    5  131 1    
    12    6    7 1    
    13    6  132 1    
    14    6  133 1    
    15    7    8 1    
    16    8    9 1    
    17    8  134 1    
    18    8  135 1    
    19    9   10 ar   
    20    9   14 ar   
    21   10   11 ar   
    22   10  136 1    
    23   11   12 ar   
    24   11  126 1    
    25   12   13 ar   
    26   12  137 1    
    27   13   14 ar   
    28   13   15 1    
    29   14  138 1    
    30   15   16 1    
    31   15  139 1    
    32   15  140 1    
    33   16   17 1    
    34   17   18 1    
    35   17  141 1    
    36   17  142 1    
    37   18   19 1    
    38   18   67 1    
    39   18  143 1    
    40   19   20 am   BACKBONE|DICT|INTERRES
    41   19  144 1    
    42   20   21 2    
    43   20   22 1    
    44   22   23 1    
    45   22   24 1    
    46   22  145 1    
    47   23  146 1    
    48   23  147 1    
    49   23  148 1    
    50   24   25 am   BACKBONE|DICT|INTERRES
    51   24  149 1    
    52   25   26 2    
    53   25   27 1    
    54   27   28 1    
    55   27   29 1    
    56   27  150 1    
    57   28  151 1    
    58   28  152 1    
    59   28  153 1    
    60   29   30 am   BACKBONE|DICT|INTERRES
    61   29  154 1    
    62   30   31 2    
    63   30   32 1    
    64   32   33 1    
    65   32   34 1    
    66   32  155 1    
    67   33  156 1    
    68   33  157 1    
    69   33  158 1    
    70   34   35 am   BACKBONE|DICT|INTERRES
    71   34  159 1    
    72   35   36 2    
    73   35   37 1    
    74   37   38 1    
    75   37   39 1    
    76   37  160 1    
    77   38  161 1    
    78   38  162 1    
    79   38  163 1    
    80   39   40 am   BACKBONE|DICT|INTERRES
    81   39  164 1    
    82   40   41 2    
    83   40   42 1    
    84   42   43 1    
    85   42   44 1    
    86   42  165 1    
    87   43  166 1    
    88   43  167 1    
    89   43  168 1    
    90   44   45 am   BACKBONE|DICT|INTERRES
    91   44  169 1    
    92   45   46 2    
    93   45   47 1    
    94   47   48 1    
    95   47   49 1    
    96   47  170 1    
    97   48  171 1    
    98   48  172 1    
    99   48  173 1    
   100   49   50 am   BACKBONE|DICT|INTERRES
   101   49  174 1    
   102   50   51 2    
   103   50   52 1    
   104   52   53 1    
   105   52   54 1    
   106   52  175 1    
   107   53  176 1    
   108   53  177 1    
   109   53  178 1    
   110   54   55 am   BACKBONE|DICT|INTERRES
   111   54  179 1    
   112   55   56 2    
   113   55   57 1    
   114   57   58 1    
   115   57   59 1    
   116   57  180 1    
   117   58  181 1    
   118   58  182 1    
   119   58  183 1    
   120   59   60 am   BACKBONE|DICT|INTERRES
   121   59  184 1    
   122   60   61 2    
   123   60   62 1    
   124   62   63 1    
   125   62   64 1    
   126   62  185 1    
   127   63  186 1    
   128   63  187 1    
   129   63  188 1    
   130   64   65 am   BACKBONE|DICT|INTERRES
   131   64  189 1    
   132   65   66 2    
   133   67   68 2    
   134   67   69 am   BACKBONE|DICT|INTERRES
   135   69   70 1    
   136   69  190 1    
   137   70   71 1    
   138   70   72 1    
   139   70  191 1    
   140   71  192 1    
   141   71  193 1    
   142   71  194 1    
   143   72   73 2    
   144   72   74 am   BACKBONE|DICT|INTERRES
   145   74   75 1    
   146   74  195 1    
   147   75   76 1    
   148   75   77 1    
   149   75  196 1    
   150   76  197 1    
   151   76  198 1    
   152   76  199 1    
   153   77   78 2    
   154   77   79 am   BACKBONE|DICT|INTERRES
   155   79   80 1    
   156   79  200 1    
   157   80   81 1    
   158   80   82 1    
   159   80  201 1    
   160   81  202 1    
   161   81  203 1    
   162   81  204 1    
   163   82   83 2    
   164   82   84 am   BACKBONE|DICT|INTERRES
   165   84   85 1    
   166   84  205 1    
   167   85   86 1    
   168   85   87 1    
   169   85  206 1    
   170   86  207 1    
   171   86  208 1    
   172   86  209 1    
   173   87   88 2    
   174   87   89 am   BACKBONE|DICT|INTERRES
   175   89   90 1    
   176   89  210 1    
   177   90   91 1    
   178   90   92 1    
   179   90  211 1    
   180   91  212 1    
   181   91  213 1    
   182   91  214 1    
   183   92   93 2    
   184   92   94 am   BACKBONE|DICT|INTERRES
   185   94   95 1    
   186   94  215 1    
   187   95   96 1    
   188   95   97 1    
   189   95  216 1    
   190   96  217 1    
   191   96  218 1    
   192   96  219 1    
   193   97   98 2    
   194   97   99 am   BACKBONE|DICT|INTERRES
   195   99  100 1    
   196   99  220 1    
   197  100  101 1    
   198  100  102 1    
   199  100  221 1    
   200  101  222 1    
   201  101  223 1    
   202  101  224 1    
   203  102  103 2    
   204  102  104 am   BACKBONE|DICT|INTERRES
   205  104  105 1    
   206  104  225 1    
   207  105  106 1    
   208  105  107 1    
   209  105  226 1    
   210  106  227 1    
   211  106  228 1    
   212  106  229 1    
   213  107  108 2    
   214  107  109 am   BACKBONE|DICT|INTERRES
   215  109  110 1    
   216  109  230 1    
   217  110  111 1    
   218  110  112 1    
   219  110  231 1    
   220  111  232 1    
   221  111  233 1    
   222  111  234 1    
   223  112  113 2    
   224  112  114 am   BACKBONE|DICT|INTERRES
   225  114  115 1    
   226  114  235 1    
   227  115  116 1    
   228  115  117 1    
   229  115  236 1    
   230  116  237 1    
   231  116  238 1    
   232  116  239 1    
   233  117  118 2    
   234  117  119 am   BACKBONE|DICT|INTERRES
   235  119  120 1    
   236  119  240 1    
   237  120  121 1    
   238  120  124 1    
   239  120  241 1    
   240  121  122 am   BACKBONE|DICT|INTERRES
   241  121  123 2    
   242  122  242 1    
   243  122  243 1    
   244  124  125 1    
   245  124  244 1    
   246  124  245 1    
   247  125  126 1    
   248  126  246 1    
   249  126  247 1    
@<TRIPOS>SUBSTRUCTURE
     1 UNK         1 GROUP             0       ****    0 ROOT    
