@<TRIPOS>MOLECULE
3R540
247   249    1
SMALL
USER_CHARGES


@<TRIPOS>ATOM
      1 CA          5.3796  -15.8785  -49.1557 C.3       0 UNK        -0.1800 
      2 C           4.7623  -16.4260  -47.8705 C.2       0 UNK         0.5000 
      3 O           5.3050  -17.3694  -47.3012 O.2       0 UNK        -0.5000 
      4 N           3.6396  -15.8902  -47.3691 N.am      1 UNK        -0.5000 
      5 CA          2.8536  -14.7536  -47.8747 C.3       1 UNK         0.1400 
      6 C6          2.2299  -15.0033  -49.2768 C.3       23 UNK        -0.0398 
      7 S7          0.5718  -14.2605  -49.4497 S.3       23 UNK        -0.2404 
      8 C8          0.0287  -14.9491  -51.0463 C.3       23 UNK        -0.0205 
      9 C9         -0.4358  -16.3916  -50.9134 C.ar      23 UNK        -0.0193 
     10 C10         0.4066  -17.4458  -51.2760 C.ar      23 UNK        -0.1150 
     11 C11        -0.0129  -18.7714  -51.1334 C.ar      23 UNK        -0.0193 
     12 C12        -1.2880  -19.0368  -50.6223 C.ar      23 UNK        -0.1150 
     13 C13        -2.1493  -17.9913  -50.2756 C.ar      23 UNK        -0.0193 
     14 C14        -1.7154  -16.6713  -50.4272 C.ar      23 UNK        -0.1150 
     15 C15        -3.5506  -18.2656  -49.7458 C.3       23 UNK        -0.0205 
     16 S16        -3.6635  -17.9224  -47.9605 S.3       23 UNK        -0.2404 
     17 C17        -3.8174  -19.5635  -47.1739 C.3       23 UNK        -0.0398 
     18 CA         -2.7692  -20.6257  -47.5851 C.3       11 UNK         0.1400 
     19 N          -1.4112  -20.2645  -47.1764 N.am      11 UNK        -0.5000 
     20 C          -0.3020  -20.9167  -47.5479 C.2       10 UNK         0.5000 
     21 O          -0.3035  -21.8905  -48.3029 O.2       10 UNK        -0.5000 
     22 CA          1.0236  -20.4408  -46.9242 C.3       10 UNK         0.1400 
     23 CB          1.5599  -19.1902  -47.6393 C.3       10 UNK        -0.1800 
     24 N           0.9160  -20.1719  -45.4882 N.am      10 UNK        -0.5000 
     25 C           0.5910  -21.0813  -44.5585 C.2       9 UNK         0.5000 
     26 O           0.3422  -22.2579  -44.8155 O.2       9 UNK        -0.5000 
     27 CA          0.4849  -20.5934  -43.1021 C.3       9 UNK         0.1400 
     28 CB          1.8768  -20.3840  -42.4876 C.3       9 UNK        -0.1800 
     29 N          -0.3023  -19.3680  -42.9758 N.am      9 UNK        -0.5000 
     30 C          -1.6064  -19.2710  -43.2736 C.2       8 UNK         0.5000 
     31 O          -2.3034  -20.2233  -43.6265 O.2       8 UNK        -0.5000 
     32 CA         -2.2212  -17.8586  -43.2275 C.3       8 UNK         0.1400 
     33 CB         -2.5710  -17.4566  -41.7871 C.3       8 UNK        -0.1800 
     34 N          -1.3582  -16.8392  -43.8300 N.am      8 UNK        -0.5000 
     35 C          -0.9225  -16.8765  -45.0976 C.2       7 UNK         0.5000 
     36 O          -1.2117  -17.7670  -45.8911 O.2       7 UNK        -0.5000 
     37 CA          0.0644  -15.7866  -45.5359 C.3       7 UNK         0.1400 
     38 CB         -0.6441  -14.4451  -45.7752 C.3       7 UNK        -0.1800 
     39 N           1.1541  -15.6186  -44.5748 N.am      7 UNK        -0.5000 
     40 C           2.0592  -16.5615  -44.2793 C.2       6 UNK         0.5000 
     41 O           2.1444  -17.6308  -44.8771 O.2       6 UNK        -0.5000 
     42 CA          3.0160  -16.2763  -43.1111 C.3       6 UNK         0.1400 
     43 CB          4.2440  -15.4860  -43.5879 C.3       6 UNK        -0.1800 
     44 N           2.3493  -15.5601  -42.0245 N.am      6 UNK        -0.5000 
     45 C           1.4151  -16.1006  -41.2286 C.2       5 UNK         0.5000 
     46 O           1.0520  -17.2748  -41.3008 O.2       5 UNK        -0.5000 
     47 CA          0.7488  -15.1567  -40.2105 C.3       5 UNK         0.1400 
     48 CB          1.6032  -15.0411  -38.9395 C.3       5 UNK        -0.1800 
     49 N           0.5129  -13.8201  -40.7602 N.am      5 UNK        -0.5000 
     50 C          -0.3704  -13.5493  -41.7318 C.2       4 UNK         0.5000 
     51 O          -1.1148  -14.3935  -42.2300 O.2       4 UNK        -0.5000 
     52 CA         -0.3830  -12.1057  -42.2743 C.3       4 UNK         0.1400 
     53 CB         -1.3043  -11.2178  -41.4250 C.3       4 UNK        -0.1800 
     54 N           0.9510  -11.4968  -42.3471 N.am      4 UNK        -0.5000 
     55 C           1.9596  -11.9739  -43.0884 C.2       3 UNK         0.5000 
     56 O           1.8636  -12.9871  -43.7841 O.2       3 UNK        -0.5000 
     57 CA          3.3099  -11.2390  -42.9799 C.3       3 UNK         0.1400 
     58 CB          3.9607  -11.5198  -41.6152 C.3       3 UNK        -0.1800 
     59 N           4.2376  -11.6705  -44.0261 N.am      3 UNK        -0.5000 
     60 C           4.1688  -11.3086  -45.3133 C.2       2 UNK         0.5000 
     61 O           3.3948  -10.4521  -45.7430 O.2       2 UNK        -0.5000 
     62 CA          5.1006  -12.0572  -46.2854 C.3       2 UNK         0.1400 
     63 CB          6.4729  -12.3976  -45.6727 C.3       2 UNK        -0.1800 
     64 N           4.4518  -13.2934  -46.7169 N.am      2 UNK        -0.5000 
     65 C           3.5596  -13.3861  -47.7123 C.2       1 UNK         0.5000 
     66 O           3.2945  -12.4554  -48.4735 O.2       1 UNK        -0.5000 
     67 C          -3.1992  -22.0165  -47.0737 C.2       11 UNK         0.5000 
     68 O          -3.9350  -22.7110  -47.7757 O.2       11 UNK        -0.5000 
     69 N          -2.7487  -22.3982  -45.8726 N.am      12 UNK        -0.5000 
     70 CA         -3.0297  -23.7040  -45.2831 C.3       12 UNK         0.1400 
     71 CB         -2.8532  -23.6220  -43.7586 C.3       12 UNK        -0.1800 
     72 C          -2.1476  -24.8173  -45.8755 C.2       12 UNK         0.5000 
     73 O          -2.6536  -25.9046  -46.1556 O.2       12 UNK        -0.5000 
     74 N          -0.8439  -24.5438  -46.0121 N.am      13 UNK        -0.5000 
     75 CA          0.1656  -25.5397  -46.3606 C.3       13 UNK         0.1400 
     76 CB          1.5155  -25.1276  -45.7508 C.3       13 UNK        -0.1800 
     77 C           0.3134  -25.7693  -47.8723 C.2       13 UNK         0.5000 
     78 O           0.3632  -26.9246  -48.2980 O.2       13 UNK        -0.5000 
     79 N           0.4443  -24.6852  -48.6479 N.am      14 UNK        -0.5000 
     80 CA          0.8363  -24.7490  -50.0565 C.3       14 UNK         0.1400 
     81 CB          1.8209  -23.6127  -50.3658 C.3       14 UNK        -0.1800 
     82 C          -0.3701  -24.7151  -51.0048 C.2       14 UNK         0.5000 
     83 O          -0.3912  -25.4800  -51.9710 O.2       14 UNK        -0.5000 
     84 N          -1.3551  -23.8523  -50.7216 N.am      15 UNK        -0.5000 
     85 CA         -2.6081  -23.7984  -51.4764 C.3       15 UNK         0.1400 
     86 CB         -3.2688  -22.4211  -51.3090 C.3       15 UNK        -0.1800 
     87 C          -3.5651  -24.9202  -51.0390 C.2       15 UNK         0.5000 
     88 O          -3.5155  -25.3703  -49.8918 O.2       15 UNK        -0.5000 
     89 N          -4.4467  -25.3317  -51.9579 N.am      16 UNK        -0.5000 
     90 CA         -5.4998  -26.3194  -51.7288 C.3       16 UNK         0.1400 
     91 CB         -5.9828  -26.8551  -53.0884 C.3       16 UNK        -0.1800 
     92 C          -6.6458  -25.7140  -50.8946 C.2       16 UNK         0.5000 
     93 O          -7.6708  -25.3191  -51.4528 O.2       16 UNK        -0.5000 
     94 N          -6.4174  -25.6184  -49.5768 N.am      17 UNK        -0.5000 
     95 CA         -7.3099  -25.0651  -48.5531 C.3       17 UNK         0.1400 
     96 CB         -8.5455  -25.9696  -48.3635 C.3       17 UNK        -0.1800 
     97 C          -7.6737  -23.5954  -48.8410 C.2       17 UNK         0.5000 
     98 O          -8.8529  -23.2511  -48.9408 O.2       17 UNK        -0.5000 
     99 N          -6.6347  -22.7667  -49.0163 N.am      18 UNK        -0.5000 
    100 CA        -6.6375  -21.3287  -49.3139 C.3       18 UNK         0.1400 
    101 CB        -7.3680  -20.5335  -48.2147 C.3       18 UNK        -0.1800 
    102 C         -7.1692  -20.9368  -50.7052 C.2       18 UNK         0.5000 
    103 O         -6.6064  -20.0303  -51.3176 O.2       18 UNK        -0.5000 
    104 N         -8.2234  -21.6131  -51.1773 N.am      19 UNK        -0.5000 
    105 CA        -9.0167  -21.2957  -52.3684 C.3       19 UNK         0.1400 
    106 CB       -10.1310  -22.3438  -52.5083 C.3       19 UNK        -0.1800 
    107 C         -8.2250  -21.1797  -53.6844 C.2       19 UNK         0.5000 
    108 O         -8.6041  -20.3868  -54.5474 O.2       19 UNK        -0.5000 
    109 N         -7.1419  -21.9570  -53.8146 N.am      20 UNK        -0.5000 
    110 CA        -6.2418  -21.9211  -54.9698 C.3       20 UNK         0.1400 
    111 CB        -5.3798  -23.1926  -54.9725 C.3       20 UNK        -0.1800 
    112 C         -5.3410  -20.6704  -55.0066 C.2       20 UNK         0.5000 
    113 O         -4.8641  -20.3065  -56.0831 O.2       20 UNK        -0.5000 
    114 N         -5.0864  -20.0674  -53.8326 N.am      21 UNK        -0.5000 
    115 CA        -4.2610  -18.8744  -53.5875 C.3       21 UNK         0.1400 
    116 CB        -4.9994  -17.6180  -54.0894 C.3       21 UNK        -0.1800 
    117 C         -2.8133  -18.9589  -54.1265 C.2       21 UNK         0.5000 
    118 O         -2.1827  -17.9245  -54.3501 O.2       21 UNK        -0.5000 
    119 N         -2.3309  -20.1887  -54.3543 N.am      22 UNK        -0.5000 
    120 CA        -1.0718  -20.5203  -55.0426 C.3       22 UNK         0.1400 
    121 C         -1.0048  -20.0348  -56.5253 C.2       22 UNK         0.5000 
    122 N         -2.1312  -19.8239  -57.1985 N.am      22 UNK        -0.7600 
    123 O          0.0747  -19.8782  -57.0902 O.2       22 UNK        -0.5000 
    124 C124        0.1874  -20.1579  -54.2090 C.3       23 UNK        -0.0398 
    125 S125        0.2373  -21.1124  -52.6559 S.3       23 UNK        -0.2404 
    126 C126        0.9372  -19.9091  -51.4856 C.3       23 UNK        -0.0205 
    127 H127        4.7744  -16.1552  -50.0183 H         1 UNK         0.0600 
    128 H128        6.3743  -16.2992  -49.3041 H         1 UNK         0.0600 
    129 H129        5.4885  -14.7958  -49.1308 H         1 UNK         0.0600 
    130 H130        3.2506  -16.3358  -46.5492 H         1 UNK         0.3000 
    131 H131        2.0323  -14.6820  -47.1668 H         1 UNK         0.0600 
    132 H132        2.8748  -14.6372  -50.0769 H         1 UNK         0.0800 
    133 H133        2.1187  -16.0754  -49.4416 H         1 UNK         0.0800 
    134 H134        0.8337  -14.8654  -51.7780 H         1 UNK         0.0800 
    135 H135       -0.7926  -14.3414  -51.4288 H         1 UNK         0.0800 
    136 H136        1.3956  -17.2323  -51.6561 H         1 UNK         0.1150 
    137 H137       -1.5999  -20.0615  -50.4977 H         1 UNK         0.1150 
    138 H138       -2.3712  -15.8581  -50.1496 H         1 UNK         0.1150 
    139 H139       -4.2540  -17.6099  -50.2612 H         1 UNK         0.0800 
    140 H140       -3.8760  -19.2795  -49.9773 H         1 UNK         0.0800 
    141 H141       -4.8247  -19.9152  -47.3839 H         1 UNK         0.0800 
    142 H142       -3.7814  -19.4116  -46.0934 H         1 UNK         0.0800 
    143 H143       -2.7599  -20.7034  -48.6688 H         1 UNK         0.0600 
    144 H144       -1.3203  -19.4289  -46.5992 H         1 UNK         0.3000 
    145 H145        1.7535  -21.2425  -47.0528 H         1 UNK         0.0600 
    146 H146        2.5174  -18.8782  -47.2226 H         1 UNK         0.0600 
    147 H147        1.7256  -19.3791  -48.6970 H         1 UNK         0.0600 
    148 H148        0.8695  -18.3501  -47.5623 H         1 UNK         0.0600 
    149 H149        1.1332  -19.2237  -45.1943 H         1 UNK         0.3000 
    150 H150       -0.0217  -21.3727  -42.5289 H         1 UNK         0.0600 
    151 H151        2.4697  -21.2975  -42.5451 H         1 UNK         0.0600 
    152 H152        1.8050  -20.1075  -41.4355 H         1 UNK         0.0600 
    153 H153        2.4322  -19.5993  -43.0011 H         1 UNK         0.0600 
    154 H154        0.1872  -18.5411  -42.6504 H         1 UNK         0.3000 
    155 H155       -3.1466  -17.8848  -43.8064 H         1 UNK         0.0600 
    156 H156       -1.6817  -17.3834  -41.1611 H         1 UNK         0.0600 
    157 H157       -3.2369  -18.1885  -41.3284 H         1 UNK         0.0600 
    158 H158       -3.0785  -16.4921  -41.7597 H         1 UNK         0.0600 
    159 H159       -1.0996  -16.0518  -43.2422 H         1 UNK         0.3000 
    160 H160        0.4926  -16.1168  -46.4833 H         1 UNK         0.0600 
    161 H161       -1.1393  -14.0803  -44.8763 H         1 UNK         0.0600 
    162 H162       -1.4044  -14.5441  -46.5510 H         1 UNK         0.0600 
    163 H163        0.0572  -13.6779  -46.1035 H         1 UNK         0.0600 
    164 H164        1.2085  -14.7251  -44.0928 H         1 UNK         0.3000 
    165 H165        3.3632  -17.2360  -42.7224 H         1 UNK         0.0600 
    166 H166        4.9346  -15.2959  -42.7662 H         1 UNK         0.0600 
    167 H167        4.7917  -16.0432  -44.3492 H         1 UNK         0.0600 
    168 H168        3.9647  -14.5274  -44.0211 H         1 UNK         0.0600 
    169 H169        2.5493  -14.5757  -41.9374 H         1 UNK         0.3000 
    170 H170       -0.2156  -15.5894  -39.9359 H         1 UNK         0.0600 
    171 H171        1.7818  -16.0232  -38.4995 H         1 UNK         0.0600 
    172 H172        2.5754  -14.5913  -39.1448 H         1 UNK         0.0600 
    173 H173        1.1047  -14.4337  -38.1838 H         1 UNK         0.0600 
    174 H174        1.0819  -13.0681  -40.4010 H         1 UNK         0.3000 
    175 H175       -0.7860  -12.1410  -43.2885 H         1 UNK         0.0600 
    176 H176       -0.9359  -11.1139  -40.4037 H         1 UNK         0.0600 
    177 H177       -1.3946  -10.2194  -41.8533 H         1 UNK         0.0600 
    178 H178       -2.3095  -11.6383  -41.3704 H         1 UNK         0.0600 
    179 H179        1.0984  -10.6666  -41.7912 H         1 UNK         0.3000 
    180 H180        3.1323  -10.1661  -43.0784 H         1 UNK         0.0600 
    181 H181        4.1395  -12.5853  -41.4637 H         1 UNK         0.0600 
    182 H182        3.3309  -11.1724  -40.7954 H         1 UNK         0.0600 
    183 H183        4.9174  -11.0050  -41.5232 H         1 UNK         0.0600 
    184 H184        4.8970  -12.3872  -43.7658 H         1 UNK         0.3000 
    185 H185        5.2724  -11.4082  -47.1469 H         1 UNK         0.0600 
    186 H186        6.9527  -11.5058  -45.2671 H         1 UNK         0.0600 
    187 H187        6.4010  -13.1321  -44.8699 H         1 UNK         0.0600 
    188 H188        7.1425  -12.8064  -46.4296 H         1 UNK         0.0600 
    189 H189        4.6133  -14.1107  -46.1484 H         1 UNK         0.3000 
    190 H190       -2.1690  -21.7654  -45.3351 H         1 UNK         0.3000 
    191 H191       -4.0721  -23.9627  -45.4823 H         1 UNK         0.0600 
    192 H192       -1.8366  -23.3397  -43.4829 H         1 UNK         0.0600 
    193 H193       -3.0677  -24.5821  -43.2878 H         1 UNK         0.0600 
    194 H194       -3.5311  -22.8871  -43.3239 H         1 UNK         0.0600 
    195 H195       -0.4982  -23.6332  -45.7169 H         1 UNK         0.3000 
    196 H196       -0.1149  -26.4938  -45.9085 H         1 UNK         0.0600 
    197 H197        2.2848  -25.8706  -45.9643 H         1 UNK         0.0600 
    198 H198        1.4454  -25.0338  -44.6669 H         1 UNK         0.0600 
    199 H199        1.8628  -24.1721  -46.1460 H         1 UNK         0.0600 
    200 H200        0.3096  -23.7588  -48.2550 H         1 UNK         0.3000 
    201 H201        1.3684  -25.6834  -50.2483 H         1 UNK         0.0600 
    202 H202        2.7302  -23.7072  -49.7723 H         1 UNK         0.0600 
    203 H203        1.3850  -22.6395  -50.1538 H         1 UNK         0.0600 
    204 H204        2.1130  -23.6204  -51.4167 H         1 UNK         0.0600 
    205 H205       -1.2816  -23.2791  -49.8913 H         1 UNK         0.3000 
    206 H206       -2.3858  -23.9313  -52.5377 H         1 UNK         0.0600 
    207 H207       -2.6456  -21.6355  -51.7321 H         1 UNK         0.0600 
    208 H208       -4.2312  -22.3760  -51.8192 H         1 UNK         0.0600 
    209 H209       -3.4483  -22.1881  -50.2628 H         1 UNK         0.0600 
    210 H210       -4.4247  -24.9194  -52.8777 H         1 UNK         0.3000 
    211 H211       -5.0827  -27.1608  -51.1709 H         1 UNK         0.0600 
    212 H212       -6.4018  -26.0656  -53.7125 H         1 UNK         0.0600 
    213 H213       -6.7576  -27.6110  -52.9543 H         1 UNK         0.0600 
    214 H214       -5.1673  -27.3220  -53.6409 H         1 UNK         0.0600 
    215 H215       -5.4886  -25.8722  -49.2570 H         1 UNK         0.3000 
    216 H216       -6.7507  -25.0679  -47.6162 H         1 UNK         0.0600 
    217 H217       -9.1679  -25.6113  -47.5427 H         1 UNK         0.0600 
    218 H218       -8.2520  -26.9919  -48.1255 H         1 UNK         0.0600 
    219 H219       -9.1696  -25.9998  -49.2571 H         1 UNK         0.0600 
    220 H220       -5.7066  -23.1539  -48.8810 H         1 UNK         0.3000 
    221 H221       -5.5887  -21.0331  -49.2978 H         1 UNK         0.0600 
    222 H222       -8.4450  -20.7021  -48.2370 H         1 UNK         0.0600 
    223 H223       -7.0115  -20.8065  -47.2216 H         1 UNK         0.0600 
    224 H224       -7.2061  -19.4620  -48.3393 H         1 UNK         0.0600 
    225 H225       -8.6018  -22.3343  -50.5687 H         1 UNK         0.3000 
    226 H226       -9.4832  -20.3251  -52.1900 H         1 UNK         0.0600 
    227 H227      -10.7757  -22.3539  -51.6292 H         1 UNK         0.0600 
    228 H228      -10.7632  -22.1342  -53.3722 H         1 UNK         0.0600 
    229 H229       -9.7218  -23.3474  -52.6339 H         1 UNK         0.0600 
    230 H230       -6.9206  -22.5974  -53.0666 H         1 UNK         0.3000 
    231 H231       -6.8453  -21.9180  -55.8800 H         1 UNK         0.0600 
    232 H232       -6.0005  -24.0867  -55.0224 H         1 UNK         0.0600 
    233 H233       -4.7562  -23.2588  -54.0818 H         1 UNK         0.0600 
    234 H234       -4.7168  -23.2129  -55.8387 H         1 UNK         0.0600 
    235 H235       -5.5851  -20.4010  -53.0145 H         1 UNK         0.3000 
    236 H236       -4.1700  -18.7924  -52.5051 H         1 UNK         0.0600 
    237 H237       -5.0857  -17.6106  -55.1764 H         1 UNK         0.0600 
    238 H238       -6.0050  -17.5616  -53.6720 H         1 UNK         0.0600 
    239 H239       -4.4763  -16.7080  -53.7935 H         1 UNK         0.0600 
    240 H240       -2.9325  -20.9701  -54.1479 H         1 UNK         0.3000 
    241 H241       -1.0801  -21.6067  -55.1372 H         1 UNK         0.0600 
    242 H242       -3.0373  -19.9619  -56.7607 H         1 UNK         0.3800 
    243 H243       -2.0842  -19.5214  -58.1583 H         1 UNK         0.3800 
    244 H244        0.2176  -19.0880  -54.0000 H         1 UNK         0.0800 
    245 H245        1.1015  -20.3902  -54.7570 H         1 UNK         0.0800 
    246 H246        1.8772  -19.5288  -51.8879 H         1 UNK         0.0800 
    247 H247        1.1882  -20.4401  -50.5704 H         1 UNK         0.0800 
@<TRIPOS>BOND
     1    1    2 1    
     2    1  127 1    
     3    1  128 1    
     4    1  129 1    
     5    2    3 2    
     6    2    4 am   BACKBONE|DICT|INTERRES
     7    4    5 1    
     8    4  130 1    
     9    5    6 1    
    10    5   65 1    
    11    5  131 1    
    12    6    7 1    
    13    6  132 1    
    14    6  133 1    
    15    7    8 1    
    16    8    9 1    
    17    8  134 1    
    18    8  135 1    
    19    9   10 ar   
    20    9   14 ar   
    21   10   11 ar   
    22   10  136 1    
    23   11   12 ar   
    24   11  126 1    
    25   12   13 ar   
    26   12  137 1    
    27   13   14 ar   
    28   13   15 1    
    29   14  138 1    
    30   15   16 1    
    31   15  139 1    
    32   15  140 1    
    33   16   17 1    
    34   17   18 1    
    35   17  141 1    
    36   17  142 1    
    37   18   19 1    
    38   18   67 1    
    39   18  143 1    
    40   19   20 am   BACKBONE|DICT|INTERRES
    41   19  144 1    
    42   20   21 2    
    43   20   22 1    
    44   22   23 1    
    45   22   24 1    
    46   22  145 1    
    47   23  146 1    
    48   23  147 1    
    49   23  148 1    
    50   24   25 am   BACKBONE|DICT|INTERRES
    51   24  149 1    
    52   25   26 2    
    53   25   27 1    
    54   27   28 1    
    55   27   29 1    
    56   27  150 1    
    57   28  151 1    
    58   28  152 1    
    59   28  153 1    
    60   29   30 am   BACKBONE|DICT|INTERRES
    61   29  154 1    
    62   30   31 2    
    63   30   32 1    
    64   32   33 1    
    65   32   34 1    
    66   32  155 1    
    67   33  156 1    
    68   33  157 1    
    69   33  158 1    
    70   34   35 am   BACKBONE|DICT|INTERRES
    71   34  159 1    
    72   35   36 2    
    73   35   37 1    
    74   37   38 1    
    75   37   39 1    
    76   37  160 1    
    77   38  161 1    
    78   38  162 1    
    79   38  163 1    
    80   39   40 am   BACKBONE|DICT|INTERRES
    81   39  164 1    
    82   40   41 2    
    83   40   42 1    
    84   42   43 1    
    85   42   44 1    
    86   42  165 1    
    87   43  166 1    
    88   43  167 1    
    89   43  168 1    
    90   44   45 am   BACKBONE|DICT|INTERRES
    91   44  169 1    
    92   45   46 2    
    93   45   47 1    
    94   47   48 1    
    95   47   49 1    
    96   47  170 1    
    97   48  171 1    
    98   48  172 1    
    99   48  173 1    
   100   49   50 am   BACKBONE|DICT|INTERRES
   101   49  174 1    
   102   50   51 2    
   103   50   52 1    
   104   52   53 1    
   105   52   54 1    
   106   52  175 1    
   107   53  176 1    
   108   53  177 1    
   109   53  178 1    
   110   54   55 am   BACKBONE|DICT|INTERRES
   111   54  179 1    
   112   55   56 2    
   113   55   57 1    
   114   57   58 1    
   115   57   59 1    
   116   57  180 1    
   117   58  181 1    
   118   58  182 1    
   119   58  183 1    
   120   59   60 am   BACKBONE|DICT|INTERRES
   121   59  184 1    
   122   60   61 2    
   123   60   62 1    
   124   62   63 1    
   125   62   64 1    
   126   62  185 1    
   127   63  186 1    
   128   63  187 1    
   129   63  188 1    
   130   64   65 am   BACKBONE|DICT|INTERRES
   131   64  189 1    
   132   65   66 2    
   133   67   68 2    
   134   67   69 am   BACKBONE|DICT|INTERRES
   135   69   70 1    
   136   69  190 1    
   137   70   71 1    
   138   70   72 1    
   139   70  191 1    
   140   71  192 1    
   141   71  193 1    
   142   71  194 1    
   143   72   73 2    
   144   72   74 am   BACKBONE|DICT|INTERRES
   145   74   75 1    
   146   74  195 1    
   147   75   76 1    
   148   75   77 1    
   149   75  196 1    
   150   76  197 1    
   151   76  198 1    
   152   76  199 1    
   153   77   78 2    
   154   77   79 am   BACKBONE|DICT|INTERRES
   155   79   80 1    
   156   79  200 1    
   157   80   81 1    
   158   80   82 1    
   159   80  201 1    
   160   81  202 1    
   161   81  203 1    
   162   81  204 1    
   163   82   83 2    
   164   82   84 am   BACKBONE|DICT|INTERRES
   165   84   85 1    
   166   84  205 1    
   167   85   86 1    
   168   85   87 1    
   169   85  206 1    
   170   86  207 1    
   171   86  208 1    
   172   86  209 1    
   173   87   88 2    
   174   87   89 am   BACKBONE|DICT|INTERRES
   175   89   90 1    
   176   89  210 1    
   177   90   91 1    
   178   90   92 1    
   179   90  211 1    
   180   91  212 1    
   181   91  213 1    
   182   91  214 1    
   183   92   93 2    
   184   92   94 am   BACKBONE|DICT|INTERRES
   185   94   95 1    
   186   94  215 1    
   187   95   96 1    
   188   95   97 1    
   189   95  216 1    
   190   96  217 1    
   191   96  218 1    
   192   96  219 1    
   193   97   98 2    
   194   97   99 am   BACKBONE|DICT|INTERRES
   195   99  100 1    
   196   99  220 1    
   197  100  101 1    
   198  100  102 1    
   199  100  221 1    
   200  101  222 1    
   201  101  223 1    
   202  101  224 1    
   203  102  103 2    
   204  102  104 am   BACKBONE|DICT|INTERRES
   205  104  105 1    
   206  104  225 1    
   207  105  106 1    
   208  105  107 1    
   209  105  226 1    
   210  106  227 1    
   211  106  228 1    
   212  106  229 1    
   213  107  108 2    
   214  107  109 am   BACKBONE|DICT|INTERRES
   215  109  110 1    
   216  109  230 1    
   217  110  111 1    
   218  110  112 1    
   219  110  231 1    
   220  111  232 1    
   221  111  233 1    
   222  111  234 1    
   223  112  113 2    
   224  112  114 am   BACKBONE|DICT|INTERRES
   225  114  115 1    
   226  114  235 1    
   227  115  116 1    
   228  115  117 1    
   229  115  236 1    
   230  116  237 1    
   231  116  238 1    
   232  116  239 1    
   233  117  118 2    
   234  117  119 am   BACKBONE|DICT|INTERRES
   235  119  120 1    
   236  119  240 1    
   237  120  121 1    
   238  120  124 1    
   239  120  241 1    
   240  121  122 am   BACKBONE|DICT|INTERRES
   241  121  123 2    
   242  122  242 1    
   243  122  243 1    
   244  124  125 1    
   245  124  244 1    
   246  124  245 1    
   247  125  126 1    
   248  126  246 1    
   249  126  247 1    
@<TRIPOS>SUBSTRUCTURE
     1 UNK         1 GROUP             0       ****    0 ROOT    
