@<TRIPOS>MOLECULE
3R540
247   249    1
SMALL
USER_CHARGES


@<TRIPOS>ATOM
      1 CA         -1.4197  -13.3423  -48.9783 C.3       0 UNK        -0.1800 
      2 C          -0.1848  -12.4596  -49.0922 C.2       0 UNK         0.5000 
      3 O          -0.2527  -11.3808  -49.6806 O.2       0 UNK        -0.5000 
      4 N           0.9412  -12.9141  -48.5290 N.am      1 UNK        -0.5000 
      5 CA          2.2260  -12.2029  -48.5232 C.3       1 UNK         0.1400 
      6 C6          3.4278  -13.1761  -48.3939 C.3       23 UNK        -0.0398 
      7 S7          3.3615  -14.2397  -46.9075 S.3       23 UNK        -0.2404 
      8 C8          4.1640  -15.7808  -47.4797 C.3       23 UNK        -0.0205 
      9 C9          3.2876  -16.7674  -48.2589 C.ar      23 UNK        -0.0193 
     10 C10         2.0883  -16.3991  -48.8834 C.ar      23 UNK        -0.1150 
     11 C11         1.3301  -17.3337  -49.5930 C.ar      23 UNK        -0.0193 
     12 C12         1.7891  -18.6458  -49.7054 C.ar      23 UNK        -0.1150 
     13 C13         2.9763  -19.0379  -49.0829 C.ar      23 UNK        -0.0193 
     14 C14         3.7172  -18.0957  -48.3628 C.ar      23 UNK        -0.1150 
     15 C15         3.4568  -20.4782  -49.1973 C.3       23 UNK        -0.0205 
     16 S16         2.8131  -21.5287  -47.8549 S.3       23 UNK        -0.2404 
     17 C17         1.0209  -21.4611  -48.1842 C.3       23 UNK        -0.0398 
     18 CA          0.2159  -22.5289  -47.4125 C.3       11 UNK         0.1400 
     19 N           0.2443  -22.3243  -45.9615 N.am      11 UNK        -0.5000 
     20 C          -0.2724  -23.1682  -45.0576 C.2       10 UNK         0.5000 
     21 O          -0.7956  -24.2440  -45.3481 O.2       10 UNK        -0.5000 
     22 CA         -0.2604  -22.7069  -43.5892 C.3       10 UNK         0.1400 
     23 CB          1.1275  -22.8883  -42.9565 C.3       10 UNK        -0.1800 
     24 N          -0.7002  -21.3185  -43.4449 N.am      10 UNK        -0.5000 
     25 C          -1.9435  -20.8939  -43.7131 C.2       9 UNK         0.5000 
     26 O          -2.8596  -21.6415  -44.0580 O.2       9 UNK        -0.5000 
     27 CA         -2.2002  -19.3782  -43.6156 C.3       9 UNK         0.1400 
     28 CB         -2.4527  -18.9623  -42.1589 C.3       9 UNK        -0.1800 
     29 N          -1.1095  -18.5759  -44.1700 N.am      9 UNK        -0.5000 
     30 C          -0.7234  -18.5920  -45.4540 C.2       8 UNK         0.5000 
     31 O          -1.2754  -19.2567  -46.3280 O.2       8 UNK        -0.5000 
     32 CA          0.5257  -17.7699  -45.8136 C.3       8 UNK         0.1400 
     33 CB          0.1617  -16.2866  -45.9705 C.3       8 UNK        -0.1800 
     34 N           1.6057  -17.9271  -44.8373 N.am      8 UNK        -0.5000 
     35 C           2.1701  -19.1013  -44.5160 C.2       7 UNK         0.5000 
     36 O           1.8552  -20.1745  -45.0239 O.2       7 UNK        -0.5000 
     37 CA          3.2053  -19.0898  -43.3828 C.3       7 UNK         0.1400 
     38 CB          4.5857  -18.6537  -43.8982 C.3       7 UNK        -0.1800 
     39 N           2.7695  -18.2248  -42.2874 N.am      7 UNK        -0.5000 
     40 C           1.7801  -18.5361  -41.4367 C.2       6 UNK         0.5000 
     41 O           1.1892  -19.6166  -41.4442 O.2       6 UNK        -0.5000 
     42 CA          1.3538  -17.4451  -40.4348 C.3       6 UNK         0.1400 
     43 CB          2.2370  -17.4892  -39.1791 C.3       6 UNK        -0.1800 
     44 N           1.3960  -16.0987  -41.0094 N.am      6 UNK        -0.5000 
     45 C           0.5839  -15.6678  -41.9850 C.2       5 UNK         0.5000 
     46 O          -0.3296  -16.3447  -42.4554 O.2       5 UNK        -0.5000 
     47 CA          0.8674  -14.2677  -42.5688 C.3       5 UNK         0.1400 
     48 CB          0.0531  -13.1988  -41.8260 C.3       5 UNK        -0.1800 
     49 N           2.2833  -13.8822  -42.5698 N.am      5 UNK        -0.5000 
     50 C           3.2727  -14.5758  -43.1503 C.2       4 UNK         0.5000 
     51 O           3.0981  -15.6487  -43.7274 O.2       4 UNK        -0.5000 
     52 CA          4.6700  -13.9442  -43.0841 C.3       4 UNK         0.1400 
     53 CB          5.7619  -14.7948  -43.7581 C.3       4 UNK        -0.1800 
     54 N           4.6082  -12.6325  -43.7165 N.am      4 UNK        -0.5000 
     55 C           5.1771  -11.5157  -43.2503 C.2       3 UNK         0.5000 
     56 O           5.8822  -11.4741  -42.2412 O.2       3 UNK        -0.5000 
     57 CA          4.9017  -10.2186  -44.0361 C.3       3 UNK         0.1400 
     58 CB          6.0563   -9.9258  -45.0063 C.3       3 UNK        -0.1800 
     59 N           3.6470  -10.2411  -44.7921 N.am      3 UNK        -0.5000 
     60 C           2.4150  -10.2882  -44.2717 C.2       2 UNK         0.5000 
     61 O           2.1911  -10.3316  -43.0618 O.2       2 UNK        -0.5000 
     62 CA          1.2303  -10.3172  -45.2591 C.3       2 UNK         0.1400 
     63 CB          0.8319   -8.8927  -45.6878 C.3       2 UNK        -0.1800 
     64 N           1.4150  -11.1950  -46.4249 N.am      2 UNK        -0.5000 
     65 C           2.2787  -11.0930  -47.4491 C.2       1 UNK         0.5000 
     66 O           3.1090  -10.1899  -47.5592 O.2       1 UNK        -0.5000 
     67 C          -1.2259  -22.5925  -47.9532 C.2       11 UNK         0.5000 
     68 O          -1.5256  -23.4805  -48.7481 O.2       11 UNK        -0.5000 
     69 N          -2.0981  -21.6830  -47.4953 N.am      12 UNK        -0.5000 
     70 CA         -3.5179  -21.6292  -47.8486 C.3       12 UNK         0.1400 
     71 CB         -4.1589  -20.3809  -47.2235 C.3       12 UNK        -0.1800 
     72 C          -4.2959  -22.8940  -47.4489 C.2       12 UNK         0.5000 
     73 O          -5.1625  -23.3327  -48.2061 O.2       12 UNK        -0.5000 
     74 N          -3.9575  -23.4695  -46.2884 N.am      13 UNK        -0.5000 
     75 CA         -4.4947  -24.7446  -45.8215 C.3       13 UNK         0.1400 
     76 CB         -4.1987  -24.9079  -44.3227 C.3       13 UNK        -0.1800 
     77 C          -3.9440  -25.9354  -46.6281 C.2       13 UNK         0.5000 
     78 O          -4.7188  -26.8054  -47.0262 O.2       13 UNK        -0.5000 
     79 N          -2.6231  -25.9513  -46.8562 N.am      14 UNK        -0.5000 
     80 CA         -1.9079  -27.0276  -47.5436 C.3       14 UNK         0.1400 
     81 CB         -0.3959  -26.8520  -47.3334 C.3       14 UNK        -0.1800 
     82 C          -2.2374  -27.1276  -49.0437 C.2       14 UNK         0.5000 
     83 O          -2.4962  -28.2268  -49.5355 O.2       14 UNK        -0.5000 
     84 N          -2.2169  -25.9865  -49.7443 N.am      15 UNK        -0.5000 
     85 CA         -2.4763  -25.8950  -51.1829 C.3       15 UNK         0.1400 
     86 CB         -1.7874  -24.6386  -51.7408 C.3       15 UNK        -0.1800 
     87 C          -3.9764  -25.8707  -51.5242 C.2       15 UNK         0.5000 
     88 O          -4.3213  -26.1102  -52.6806 O.2       15 UNK        -0.5000 
     89 N          -4.8209  -25.5765  -50.5237 N.am      16 UNK        -0.5000 
     90 CA         -6.2632  -25.3424  -50.5990 C.3       16 UNK         0.1400 
     91 CB         -7.0219  -26.5684  -51.1485 C.3       16 UNK        -0.1800 
     92 C          -6.5630  -24.0581  -51.3905 C.2       16 UNK         0.5000 
     93 O          -6.7486  -24.1022  -52.6072 O.2       16 UNK        -0.5000 
     94 N          -6.6059  -22.9249  -50.6793 N.am      17 UNK        -0.5000 
     95 CA         -6.8310  -21.5743  -51.2134 C.3       17 UNK         0.1400 
     96 CB         -6.7134  -20.5567  -50.0706 C.3       17 UNK        -0.1800 
     97 C          -8.1404  -21.3622  -52.0046 C.2       17 UNK         0.5000 
     98 O          -8.2561  -20.3736  -52.7290 O.2       17 UNK        -0.5000 
     99 N          -9.0952  -22.2923  -51.8781 N.am      18 UNK        -0.5000 
    100 CA       -10.2951  -22.3671  -52.7113 C.3       18 UNK         0.1400 
    101 CB       -11.2892  -23.3394  -52.0576 C.3       18 UNK        -0.1800 
    102 C        -10.0006  -22.7973  -54.1656 C.2       18 UNK         0.5000 
    103 O        -10.8014  -22.4907  -55.0501 O.2       18 UNK        -0.5000 
    104 N         -8.8822  -23.5032  -54.3864 N.am      19 UNK        -0.5000 
    105 CA        -8.4648  -24.0430  -55.6800 C.3       19 UNK         0.1400 
    106 CB        -8.3497  -25.5717  -55.5630 C.3       19 UNK        -0.1800 
    107 C         -7.1308  -23.4470  -56.1634 C.2       19 UNK         0.5000 
    108 O         -6.9766  -23.2384  -57.3680 O.2       19 UNK        -0.5000 
    109 N         -6.1909  -23.1958  -55.2430 N.am      20 UNK        -0.5000 
    110 CA        -4.8410  -22.7152  -55.5371 C.3       20 UNK         0.1400 
    111 CB        -3.8815  -23.9193  -55.6412 C.3       20 UNK        -0.1800 
    112 C         -4.4168  -21.6449  -54.5135 C.2       20 UNK         0.5000 
    113 O         -5.2006  -20.7340  -54.2450 O.2       20 UNK        -0.5000 
    114 N         -3.1849  -21.7511  -53.9903 N.am      21 UNK        -0.5000 
    115 CA        -2.4948  -20.7912  -53.1170 C.3       21 UNK         0.1400 
    116 CB        -3.2031  -20.6755  -51.7484 C.3       21 UNK        -0.1800 
    117 C         -2.2618  -19.4280  -53.8120 C.2       21 UNK         0.5000 
    118 O         -2.1720  -19.3785  -55.0419 O.2       21 UNK        -0.5000 
    119 N         -2.1275  -18.3538  -53.0238 N.am      22 UNK        -0.5000 
    120 CA        -2.0126  -16.9717  -53.5159 C.3       22 UNK         0.1400 
    121 C         -3.3649  -16.4530  -54.0778 C.2       22 UNK         0.5000 
    122 N         -3.3618  -15.8167  -55.2412 N.am      22 UNK        -0.7600 
    123 O         -4.4091  -16.5822  -53.4431 O.2       22 UNK        -0.5000 
    124 C124       -1.4819  -16.0085  -52.4235 C.3       23 UNK        -0.0398 
    125 S125        0.2371  -16.3793  -51.9372 S.3       23 UNK        -0.2404 
    126 C126        0.0065  -16.9354  -50.2240 C.3       23 UNK        -0.0205 
    127 H127       -2.2644  -12.7613  -48.6082 H         1 UNK         0.0600 
    128 H128       -1.2601  -14.1766  -48.2953 H         1 UNK         0.0600 
    129 H129       -1.6836  -13.7450  -49.9562 H         1 UNK         0.0600 
    130 H130        0.9373  -13.7987  -48.0435 H         1 UNK         0.3000 
    131 H131        2.3331  -11.6972  -49.4855 H         1 UNK         0.0600 
    132 H132        4.3702  -12.6255  -48.3838 H         1 UNK         0.0800 
    133 H133        3.4730  -13.8078  -49.2817 H         1 UNK         0.0800 
    134 H134        5.0385  -15.5289  -48.0807 H         1 UNK         0.0800 
    135 H135        4.5400  -16.2889  -46.5905 H         1 UNK         0.0800 
    136 H136        1.7290  -15.3876  -48.8240 H         1 UNK         0.1150 
    137 H137        1.2121  -19.3656  -50.2682 H         1 UNK         0.1150 
    138 H138        4.6373  -18.3994  -47.8833 H         1 UNK         0.1150 
    139 H139        3.1654  -20.8986  -50.1610 H         1 UNK         0.0800 
    140 H140        4.5471  -20.5065  -49.1728 H         1 UNK         0.0800 
    141 H141        0.8786  -21.5844  -49.2596 H         1 UNK         0.0800 
    142 H142        0.6577  -20.4642  -47.9303 H         1 UNK         0.0800 
    143 H143        0.6726  -23.5008  -47.6096 H         1 UNK         0.0600 
    144 H144        0.7070  -21.4778  -45.6343 H         1 UNK         0.3000 
    145 H145       -0.9628  -23.3370  -43.0394 H         1 UNK         0.0600 
    146 H146        1.1222  -22.5982  -41.9056 H         1 UNK         0.0600 
    147 H147        1.4426  -23.9312  -43.0055 H         1 UNK         0.0600 
    148 H148        1.8878  -22.2939  -43.4623 H         1 UNK         0.0600 
    149 H149       -0.0012  -20.6436  -43.1614 H         1 UNK         0.3000 
    150 H150       -3.1004  -19.1561  -44.1917 H         1 UNK         0.0600 
    151 H151       -3.2721  -19.5363  -41.7245 H         1 UNK         0.0600 
    152 H152       -2.7223  -17.9081  -42.0918 H         1 UNK         0.0600 
    153 H153       -1.5719  -19.1215  -41.5360 H         1 UNK         0.0600 
    154 H154       -0.6342  -17.9485  -43.5277 H         1 UNK         0.3000 
    155 H155        0.9039  -18.1356  -46.7696 H         1 UNK         0.0600 
    156 H156       -0.3582  -15.9003  -45.0949 H         1 UNK         0.0600 
    157 H157       -0.4952  -16.1419  -46.8285 H         1 UNK         0.0600 
    158 H158        1.0473  -15.6760  -46.1276 H         1 UNK         0.0600 
    159 H159        1.9603  -17.0847  -44.3943 H         1 UNK         0.3000 
    160 H160        3.2988  -20.1083  -42.9994 H         1 UNK         0.0600 
    161 H161        4.5560  -17.6737  -44.3730 H         1 UNK         0.0600 
    162 H162        4.9572  -19.3592  -44.6425 H         1 UNK         0.0600 
    163 H163        5.3169  -18.6159  -43.0909 H         1 UNK         0.0600 
    164 H164        3.1389  -17.2838  -42.2869 H         1 UNK         0.3000 
    165 H165        0.3245  -17.6544  -40.1355 H         1 UNK         0.0600 
    166 H166        1.8954  -16.7731  -38.4314 H         1 UNK         0.0600 
    167 H167        2.2092  -18.4773  -38.7177 H         1 UNK         0.0600 
    168 H168        3.2788  -17.2637  -39.4099 H         1 UNK         0.0600 
    169 H169        2.1188  -15.4788  -40.6753 H         1 UNK         0.3000 
    170 H170        0.5389  -14.2777  -43.6092 H         1 UNK         0.0600 
    171 H171       -1.0096  -13.4450  -41.8279 H         1 UNK         0.0600 
    172 H172        0.3674  -13.1047  -40.7859 H         1 UNK         0.0600 
    173 H173        0.1592  -12.2222  -42.2987 H         1 UNK         0.0600 
    174 H174        2.5062  -12.9950  -42.1404 H         1 UNK         0.3000 
    175 H175        4.9176  -13.8451  -42.0254 H         1 UNK         0.0600 
    176 H176        5.5658  -14.9338  -44.8209 H         1 UNK         0.0600 
    177 H177        6.7409  -14.3261  -43.6589 H         1 UNK         0.0600 
    178 H178        5.8272  -15.7822  -43.3002 H         1 UNK         0.0600 
    179 H179        4.0329  -12.5703  -44.5451 H         1 UNK         0.3000 
    180 H180        4.8432   -9.4026  -43.3131 H         1 UNK         0.0600 
    181 H181        6.1439  -10.6995  -45.7703 H         1 UNK         0.0600 
    182 H182        7.0092   -9.8751  -44.4779 H         1 UNK         0.0600 
    183 H183        5.9142   -8.9703  -45.5115 H         1 UNK         0.0600 
    184 H184        3.7170  -10.1877  -45.8053 H         1 UNK         0.3000 
    185 H185        0.3854  -10.7379  -44.7113 H         1 UNK         0.0600 
    186 H186        0.5888   -8.2797  -44.8190 H         1 UNK         0.0600 
    187 H187        1.6340   -8.3878  -46.2266 H         1 UNK         0.0600 
    188 H188       -0.0475   -8.9070  -46.3318 H         1 UNK         0.0600 
    189 H189        0.8015  -11.9965  -46.4446 H         1 UNK         0.3000 
    190 H190       -1.7611  -20.9399  -46.8865 H         1 UNK         0.3000 
    191 H191       -3.5828  -21.5407  -48.9336 H         1 UNK         0.0600 
    192 H192       -3.7313  -19.4690  -47.6405 H         1 UNK         0.0600 
    193 H193       -5.2337  -20.3497  -47.4029 H         1 UNK         0.0600 
    194 H194       -4.0145  -20.3548  -46.1442 H         1 UNK         0.0600 
    195 H195       -3.2684  -23.0159  -45.6997 H         1 UNK         0.3000 
    196 H196       -5.5792  -24.7270  -45.9491 H         1 UNK         0.0600 
    197 H197       -4.6095  -25.8443  -43.9433 H         1 UNK         0.0600 
    198 H198       -4.6440  -24.0981  -43.7443 H         1 UNK         0.0600 
    199 H199       -3.1278  -24.9116  -44.1182 H         1 UNK         0.0600 
    200 H200       -2.0502  -25.2105  -46.4609 H         1 UNK         0.3000 
    201 H201       -2.2018  -27.9710  -47.0787 H         1 UNK         0.0600 
    202 H202       -0.1400  -26.8797  -46.2741 H         1 UNK         0.0600 
    203 H203       -0.0412  -25.9034  -47.7375 H         1 UNK         0.0600 
    204 H204        0.1636  -27.6493  -47.8242 H         1 UNK         0.0600 
    205 H205       -1.9823  -25.1130  -49.2727 H         1 UNK         0.3000 
    206 H206       -2.0389  -26.7654  -51.6766 H         1 UNK         0.0600 
    207 H207       -0.7217  -24.6363  -51.5115 H         1 UNK         0.0600 
    208 H208       -1.8875  -24.5874  -52.8255 H         1 UNK         0.0600 
    209 H209       -2.2208  -23.7269  -51.3295 H         1 UNK         0.0600 
    210 H210       -4.4073  -25.3859  -49.6214 H         1 UNK         0.3000 
    211 H211       -6.6037  -25.1913  -49.5735 H         1 UNK         0.0600 
    212 H212       -6.7834  -26.7736  -52.1923 H         1 UNK         0.0600 
    213 H213       -8.0993  -26.4108  -51.0915 H         1 UNK         0.0600 
    214 H214       -6.7922  -27.4635  -50.5705 H         1 UNK         0.0600 
    215 H215       -6.3618  -22.9824  -49.6942 H         1 UNK         0.3000 
    216 H216       -6.0229  -21.3812  -51.9152 H         1 UNK         0.0600 
    217 H217       -6.9260  -19.5440  -50.4160 H         1 UNK         0.0600 
    218 H218       -5.7020  -20.5478  -49.6702 H         1 UNK         0.0600 
    219 H219       -7.4033  -20.7812  -49.2564 H         1 UNK         0.0600 
    220 H220       -8.9293  -23.0625  -51.2480 H         1 UNK         0.3000 
    221 H221      -10.7556  -21.3775  -52.7448 H         1 UNK         0.0600 
    222 H222      -10.8787  -24.3475  -51.9869 H         1 UNK         0.0600 
    223 H223      -11.5575  -23.0136  -51.0524 H         1 UNK         0.0600 
    224 H224      -12.2126  -23.4009  -52.6351 H         1 UNK         0.0600 
    225 H225       -8.2562  -23.6909  -53.6081 H         1 UNK         0.3000 
    226 H226       -9.2116  -23.8217  -56.4452 H         1 UNK         0.0600 
    227 H227       -9.3064  -26.0182  -55.2915 H         1 UNK         0.0600 
    228 H228       -8.0403  -26.0152  -56.5102 H         1 UNK         0.0600 
    229 H229       -7.6181  -25.8634  -54.8078 H         1 UNK         0.0600 
    230 H230       -6.3820  -23.4066  -54.2662 H         1 UNK         0.3000 
    231 H231       -4.8377  -22.2036  -56.5015 H         1 UNK         0.0600 
    232 H232       -4.2354  -24.6372  -56.3812 H         1 UNK         0.0600 
    233 H233       -3.7926  -24.4453  -54.6907 H         1 UNK         0.0600 
    234 H234       -2.8832  -23.6111  -55.9538 H         1 UNK         0.0600 
    235 H235       -2.6147  -22.5196  -54.3121 H         1 UNK         0.3000 
    236 H236       -1.5052  -21.2143  -52.9386 H         1 UNK         0.0600 
    237 H237       -2.5440  -20.2372  -50.9983 H         1 UNK         0.0600 
    238 H238       -4.0955  -20.0519  -51.8078 H         1 UNK         0.0600 
    239 H239       -3.5048  -21.6542  -51.3755 H         1 UNK         0.0600 
    240 H240       -2.2358  -18.4636  -52.0279 H         1 UNK         0.3000 
    241 H241       -1.2882  -16.9724  -54.3333 H         1 UNK         0.0600 
    242 H242       -4.2318  -15.4617  -55.6071 H         1 UNK         0.3800 
    243 H243       -2.5156  -15.6952  -55.7764 H         1 UNK         0.3800 
    244 H244       -2.1341  -16.0197  -51.5485 H         1 UNK         0.0800 
    245 H245       -1.4905  -14.9801  -52.7895 H         1 UNK         0.0800 
    246 H246       -0.6841  -17.7797  -50.2024 H         1 UNK         0.0800 
    247 H247       -0.4599  -16.1405  -49.6416 H         1 UNK         0.0800 
@<TRIPOS>BOND
     1    1    2 1    
     2    1  127 1    
     3    1  128 1    
     4    1  129 1    
     5    2    3 2    
     6    2    4 am   BACKBONE|DICT|INTERRES
     7    4    5 1    
     8    4  130 1    
     9    5    6 1    
    10    5   65 1    
    11    5  131 1    
    12    6    7 1    
    13    6  132 1    
    14    6  133 1    
    15    7    8 1    
    16    8    9 1    
    17    8  134 1    
    18    8  135 1    
    19    9   10 ar   
    20    9   14 ar   
    21   10   11 ar   
    22   10  136 1    
    23   11   12 ar   
    24   11  126 1    
    25   12   13 ar   
    26   12  137 1    
    27   13   14 ar   
    28   13   15 1    
    29   14  138 1    
    30   15   16 1    
    31   15  139 1    
    32   15  140 1    
    33   16   17 1    
    34   17   18 1    
    35   17  141 1    
    36   17  142 1    
    37   18   19 1    
    38   18   67 1    
    39   18  143 1    
    40   19   20 am   BACKBONE|DICT|INTERRES
    41   19  144 1    
    42   20   21 2    
    43   20   22 1    
    44   22   23 1    
    45   22   24 1    
    46   22  145 1    
    47   23  146 1    
    48   23  147 1    
    49   23  148 1    
    50   24   25 am   BACKBONE|DICT|INTERRES
    51   24  149 1    
    52   25   26 2    
    53   25   27 1    
    54   27   28 1    
    55   27   29 1    
    56   27  150 1    
    57   28  151 1    
    58   28  152 1    
    59   28  153 1    
    60   29   30 am   BACKBONE|DICT|INTERRES
    61   29  154 1    
    62   30   31 2    
    63   30   32 1    
    64   32   33 1    
    65   32   34 1    
    66   32  155 1    
    67   33  156 1    
    68   33  157 1    
    69   33  158 1    
    70   34   35 am   BACKBONE|DICT|INTERRES
    71   34  159 1    
    72   35   36 2    
    73   35   37 1    
    74   37   38 1    
    75   37   39 1    
    76   37  160 1    
    77   38  161 1    
    78   38  162 1    
    79   38  163 1    
    80   39   40 am   BACKBONE|DICT|INTERRES
    81   39  164 1    
    82   40   41 2    
    83   40   42 1    
    84   42   43 1    
    85   42   44 1    
    86   42  165 1    
    87   43  166 1    
    88   43  167 1    
    89   43  168 1    
    90   44   45 am   BACKBONE|DICT|INTERRES
    91   44  169 1    
    92   45   46 2    
    93   45   47 1    
    94   47   48 1    
    95   47   49 1    
    96   47  170 1    
    97   48  171 1    
    98   48  172 1    
    99   48  173 1    
   100   49   50 am   BACKBONE|DICT|INTERRES
   101   49  174 1    
   102   50   51 2    
   103   50   52 1    
   104   52   53 1    
   105   52   54 1    
   106   52  175 1    
   107   53  176 1    
   108   53  177 1    
   109   53  178 1    
   110   54   55 am   BACKBONE|DICT|INTERRES
   111   54  179 1    
   112   55   56 2    
   113   55   57 1    
   114   57   58 1    
   115   57   59 1    
   116   57  180 1    
   117   58  181 1    
   118   58  182 1    
   119   58  183 1    
   120   59   60 am   BACKBONE|DICT|INTERRES
   121   59  184 1    
   122   60   61 2    
   123   60   62 1    
   124   62   63 1    
   125   62   64 1    
   126   62  185 1    
   127   63  186 1    
   128   63  187 1    
   129   63  188 1    
   130   64   65 am   BACKBONE|DICT|INTERRES
   131   64  189 1    
   132   65   66 2    
   133   67   68 2    
   134   67   69 am   BACKBONE|DICT|INTERRES
   135   69   70 1    
   136   69  190 1    
   137   70   71 1    
   138   70   72 1    
   139   70  191 1    
   140   71  192 1    
   141   71  193 1    
   142   71  194 1    
   143   72   73 2    
   144   72   74 am   BACKBONE|DICT|INTERRES
   145   74   75 1    
   146   74  195 1    
   147   75   76 1    
   148   75   77 1    
   149   75  196 1    
   150   76  197 1    
   151   76  198 1    
   152   76  199 1    
   153   77   78 2    
   154   77   79 am   BACKBONE|DICT|INTERRES
   155   79   80 1    
   156   79  200 1    
   157   80   81 1    
   158   80   82 1    
   159   80  201 1    
   160   81  202 1    
   161   81  203 1    
   162   81  204 1    
   163   82   83 2    
   164   82   84 am   BACKBONE|DICT|INTERRES
   165   84   85 1    
   166   84  205 1    
   167   85   86 1    
   168   85   87 1    
   169   85  206 1    
   170   86  207 1    
   171   86  208 1    
   172   86  209 1    
   173   87   88 2    
   174   87   89 am   BACKBONE|DICT|INTERRES
   175   89   90 1    
   176   89  210 1    
   177   90   91 1    
   178   90   92 1    
   179   90  211 1    
   180   91  212 1    
   181   91  213 1    
   182   91  214 1    
   183   92   93 2    
   184   92   94 am   BACKBONE|DICT|INTERRES
   185   94   95 1    
   186   94  215 1    
   187   95   96 1    
   188   95   97 1    
   189   95  216 1    
   190   96  217 1    
   191   96  218 1    
   192   96  219 1    
   193   97   98 2    
   194   97   99 am   BACKBONE|DICT|INTERRES
   195   99  100 1    
   196   99  220 1    
   197  100  101 1    
   198  100  102 1    
   199  100  221 1    
   200  101  222 1    
   201  101  223 1    
   202  101  224 1    
   203  102  103 2    
   204  102  104 am   BACKBONE|DICT|INTERRES
   205  104  105 1    
   206  104  225 1    
   207  105  106 1    
   208  105  107 1    
   209  105  226 1    
   210  106  227 1    
   211  106  228 1    
   212  106  229 1    
   213  107  108 2    
   214  107  109 am   BACKBONE|DICT|INTERRES
   215  109  110 1    
   216  109  230 1    
   217  110  111 1    
   218  110  112 1    
   219  110  231 1    
   220  111  232 1    
   221  111  233 1    
   222  111  234 1    
   223  112  113 2    
   224  112  114 am   BACKBONE|DICT|INTERRES
   225  114  115 1    
   226  114  235 1    
   227  115  116 1    
   228  115  117 1    
   229  115  236 1    
   230  116  237 1    
   231  116  238 1    
   232  116  239 1    
   233  117  118 2    
   234  117  119 am   BACKBONE|DICT|INTERRES
   235  119  120 1    
   236  119  240 1    
   237  120  121 1    
   238  120  124 1    
   239  120  241 1    
   240  121  122 am   BACKBONE|DICT|INTERRES
   241  121  123 2    
   242  122  242 1    
   243  122  243 1    
   244  124  125 1    
   245  124  244 1    
   246  124  245 1    
   247  125  126 1    
   248  126  246 1    
   249  126  247 1    
@<TRIPOS>SUBSTRUCTURE
     1 UNK         1 GROUP             0       ****    0 ROOT    
