@<TRIPOS>MOLECULE
3R540
247   249    1
SMALL
USER_CHARGES


@<TRIPOS>ATOM
      1 CA          0.6298  -14.2805  -48.4491 C.3       0 UNK        -0.1800 
      2 C           2.1341  -14.0851  -48.5023 C.2       0 UNK         0.5000 
      3 O           2.5984  -12.9893  -48.8128 O.2       0 UNK        -0.5000 
      4 N           2.8983  -15.1361  -48.1793 N.am      1 UNK        -0.5000 
      5 CA          4.3661  -15.1704  -48.2427 C.3       1 UNK         0.1400 
      6 C6          4.8963  -16.6114  -48.0284 C.3       23 UNK        -0.0398 
      7 S7          6.3892  -16.9940  -49.0078 S.3       23 UNK        -0.2404 
      8 C8          5.7696  -17.0003  -50.7283 C.3       23 UNK        -0.0205 
      9 C9          4.4829  -17.7960  -50.9070 C.ar      23 UNK        -0.0193 
     10 C10         3.3137  -17.1614  -51.3411 C.ar      23 UNK        -0.1150 
     11 C11         2.1321  -17.8903  -51.5062 C.ar      23 UNK        -0.0193 
     12 C12         2.1191  -19.2559  -51.2117 C.ar      23 UNK        -0.1150 
     13 C13         3.2753  -19.8971  -50.7637 C.ar      23 UNK        -0.0193 
     14 C14         4.4596  -19.1666  -50.6340 C.ar      23 UNK        -0.1150 
     15 C15         3.2435  -21.3754  -50.4101 C.3       23 UNK        -0.0205 
     16 S16         3.5062  -21.6394  -48.6297 S.3       23 UNK        -0.2404 
     17 C17         1.9770  -20.9504  -47.9065 C.3       23 UNK        -0.0398 
     18 CA          1.1216  -22.0538  -47.2400 C.3       11 UNK         0.1400 
     19 N           0.4558  -21.5917  -46.0206 N.am      11 UNK        -0.5000 
     20 C          -0.0068  -22.4258  -45.0787 C.2       10 UNK         0.5000 
     21 O           0.0764  -23.6531  -45.1533 O.2       10 UNK        -0.5000 
     22 CA         -0.7037  -21.7862  -43.8660 C.3       10 UNK         0.1400 
     23 CB          0.3273  -21.1747  -42.9056 C.3       10 UNK        -0.1800 
     24 N          -1.6898  -20.7741  -44.2452 N.am      10 UNK        -0.5000 
     25 C          -2.7900  -21.0278  -44.9678 C.2       9 UNK         0.5000 
     26 O          -3.0898  -22.1441  -45.3888 O.2       9 UNK        -0.5000 
     27 CA         -3.6960  -19.8337  -45.3079 C.3       9 UNK         0.1400 
     28 CB         -4.5799  -19.4602  -44.1089 C.3       9 UNK        -0.1800 
     29 N          -2.9573  -18.6571  -45.7602 N.am      9 UNK        -0.5000 
     30 C          -2.1772  -18.6140  -46.8496 C.2       8 UNK         0.5000 
     31 O          -1.9809  -19.5697  -47.5956 O.2       8 UNK        -0.5000 
     32 CA         -1.4353  -17.2956  -47.1121 C.3       8 UNK         0.1400 
     33 CB         -2.4095  -16.2115  -47.6049 C.3       8 UNK        -0.1800 
     34 N          -0.7073  -16.8363  -45.9286 N.am      8 UNK        -0.5000 
     35 C           0.2575  -17.5393  -45.3134 C.2       7 UNK         0.5000 
     36 O           0.6957  -18.6167  -45.7194 O.2       7 UNK        -0.5000 
     37 CA          0.7861  -16.9649  -43.9903 C.3       7 UNK         0.1400 
     38 CB          1.8697  -15.9067  -44.2425 C.3       7 UNK        -0.1800 
     39 N          -0.2879  -16.3946  -43.1771 N.am      7 UNK        -0.5000 
     40 C          -1.2447  -17.1194  -42.5781 C.2       6 UNK         0.5000 
     41 O          -1.2997  -18.3481  -42.6172 O.2       6 UNK        -0.5000 
     42 CA         -2.3532  -16.3328  -41.8561 C.3       6 UNK         0.1400 
     43 CB         -1.8885  -15.8949  -40.4592 C.3       6 UNK        -0.1800 
     44 N          -2.7844  -15.1593  -42.6164 N.am      6 UNK        -0.5000 
     45 C          -3.4023  -15.2139  -43.8049 C.2       5 UNK         0.5000 
     46 O          -3.7270  -16.2644  -44.3561 O.2       5 UNK        -0.5000 
     47 CA         -3.6618  -13.8740  -44.5174 C.3       5 UNK         0.1400 
     48 CB         -5.0523  -13.3325  -44.1546 C.3       5 UNK        -0.1800 
     49 N          -2.6513  -12.8547  -44.2211 N.am      5 UNK        -0.5000 
     50 C          -1.3617  -12.9356  -44.5724 C.2       4 UNK         0.5000 
     51 O          -0.8685  -13.8966  -45.1703 O.2       4 UNK        -0.5000 
     52 CA         -0.4658  -11.7730  -44.1319 C.3       4 UNK         0.1400 
     53 CB          0.1896  -12.0827  -42.7755 C.3       4 UNK        -0.1800 
     54 N           0.5748  -11.5652  -45.1314 N.am      4 UNK        -0.5000 
     55 C           1.0609  -10.3758  -45.5071 C.2       3 UNK         0.5000 
     56 O           0.6698   -9.3021  -45.0445 O.2       3 UNK        -0.5000 
     57 CA          2.1793  -10.4053  -46.5715 C.3       3 UNK         0.1400 
     58 CB          2.8753   -9.0418  -46.7671 C.3       3 UNK        -0.1800 
     59 N           3.1624  -11.4668  -46.3233 N.am      3 UNK        -0.5000 
     60 C           3.9537  -11.6098  -45.2463 C.2       2 UNK         0.5000 
     61 O           4.0040  -10.7942  -44.3248 O.2       2 UNK        -0.5000 
     62 CA          4.8159  -12.8878  -45.1620 C.3       2 UNK         0.1400 
     63 CB          4.7349  -13.5165  -43.7599 C.3       2 UNK        -0.1800 
     64 N           4.4059  -13.8910  -46.1481 N.am      2 UNK        -0.5000 
     65 C           5.0494  -14.1610  -47.2916 C.2       1 UNK         0.5000 
     66 O           6.1087  -13.6285  -47.6242 O.2       1 UNK        -0.5000 
     67 C           0.1323  -22.7150  -48.2218 C.2       11 UNK         0.5000 
     68 O           0.4841  -23.7146  -48.8480 O.2       11 UNK        -0.5000 
     69 N          -1.1040  -22.1994  -48.2971 N.am      12 UNK        -0.5000 
     70 CA         -2.1966  -22.7987  -49.0621 C.3       12 UNK         0.1400 
     71 CB         -3.4183  -21.8775  -49.0562 C.3       12 UNK        -0.1800 
     72 C          -2.5875  -24.1888  -48.5395 C.2       12 UNK         0.5000 
     73 O          -2.7710  -25.0966  -49.3459 O.2       12 UNK        -0.5000 
     74 N          -2.6632  -24.3517  -47.2109 N.am      13 UNK        -0.5000 
     75 CA         -2.9321  -25.6322  -46.5540 C.3       13 UNK         0.1400 
     76 CB         -3.1152  -25.4167  -45.0444 C.3       13 UNK        -0.1800 
     77 C          -1.8424  -26.6843  -46.8308 C.2       13 UNK         0.5000 
     78 O          -2.1723  -27.8492  -47.0544 O.2       13 UNK        -0.5000 
     79 N          -0.5742  -26.2497  -46.8590 N.am      14 UNK        -0.5000 
     80 CA          0.5742  -27.0773  -47.2335 C.3       14 UNK         0.1400 
     81 CB          1.8744  -26.3432  -46.8713 C.3       14 UNK        -0.1800 
     82 C           0.5604  -27.4749  -48.7238 C.2       14 UNK         0.5000 
     83 O           0.8896  -28.6154  -49.0515 O.2       14 UNK        -0.5000 
     84 N           0.1603  -26.5380  -49.5941 N.am      15 UNK        -0.5000 
     85 CA          0.0274  -26.7319  -51.0406 C.3       15 UNK         0.1400 
     86 CB          0.0244  -25.3531  -51.7208 C.3       15 UNK        -0.1800 
     87 C          -1.2272  -27.5301  -51.4554 C.2       15 UNK         0.5000 
     88 O          -1.2955  -27.9775  -52.6009 O.2       15 UNK        -0.5000 
     89 N          -2.1951  -27.6690  -50.5375 N.am      16 UNK        -0.5000 
     90 CA         -3.5464  -28.2092  -50.7275 C.3       16 UNK         0.1400 
     91 CB         -3.5087  -29.7012  -51.1195 C.3       16 UNK        -0.1800 
     92 C          -4.3890  -27.3372  -51.6858 C.2       16 UNK         0.5000 
     93 O          -5.0869  -27.8570  -52.5590 O.2       16 UNK        -0.5000 
     94 N          -4.2910  -26.0174  -51.4982 N.am      17 UNK        -0.5000 
     95 CA         -4.9780  -24.9714  -52.2494 C.3       17 UNK         0.1400 
     96 CB         -3.9055  -24.0510  -52.8560 C.3       17 UNK        -0.1800 
     97 C          -5.9173  -24.1762  -51.3226 C.2       17 UNK         0.5000 
     98 O          -5.9178  -24.3840  -50.1064 O.2       17 UNK        -0.5000 
     99 N          -6.7040  -23.2677  -51.9137 N.am      18 UNK        -0.5000 
    100 CA        -7.5839  -22.3466  -51.1936 C.3       18 UNK         0.1400 
    101 CB        -8.6327  -21.7842  -52.1651 C.3       18 UNK        -0.1800 
    102 C         -6.7810  -21.2017  -50.5516 C.2       18 UNK         0.5000 
    103 O         -5.9045  -20.6307  -51.2070 O.2       18 UNK        -0.5000 
    104 N         -7.1143  -20.8678  -49.2977 N.am      19 UNK        -0.5000 
    105 CA        -6.4595  -19.8279  -48.4977 C.3       19 UNK         0.1400 
    106 CB        -7.0219  -19.8565  -47.0685 C.3       19 UNK        -0.1800 
    107 C         -6.5873  -18.4197  -49.0990 C.2       19 UNK         0.5000 
    108 O         -5.6064  -17.6773  -49.1245 O.2       19 UNK        -0.5000 
    109 N         -7.7824  -18.1005  -49.6144 N.am      20 UNK        -0.5000 
    110 CA        -8.0986  -16.8242  -50.2615 C.3       20 UNK         0.1400 
    111 CB        -9.6170  -16.7383  -50.4786 C.3       20 UNK        -0.1800 
    112 C         -7.3512  -16.6104  -51.5924 C.2       20 UNK         0.5000 
    113 O         -7.1260  -15.4651  -51.9845 O.2       20 UNK        -0.5000 
    114 N         -6.9737  -17.7127  -52.2523 N.am      21 UNK        -0.5000 
    115 CA        -6.1908  -17.7193  -53.4861 C.3       21 UNK         0.1400 
    116 CB        -6.6115  -18.9390  -54.3223 C.3       21 UNK        -0.1800 
    117 C         -4.6727  -17.7534  -53.2242 C.2       21 UNK         0.5000 
    118 O         -3.9072  -17.5929  -54.1758 O.2       21 UNK        -0.5000 
    119 N         -4.2596  -17.9858  -51.9675 N.am      22 UNK        -0.5000 
    120 CA        -2.8742  -18.2882  -51.5694 C.3       22 UNK         0.1400 
    121 C         -2.3748  -19.6511  -52.1511 C.2       22 UNK         0.5000 
    122 N         -3.2435  -20.6456  -52.2951 N.am      22 UNK        -0.7600 
    123 O         -1.2084  -19.8243  -52.4882 O.2       22 UNK        -0.5000 
    124 C124       -1.9220  -17.0795  -51.8125 C.3       23 UNK        -0.0398 
    125 S125       -0.4227  -17.0978  -50.7685 S.3       23 UNK        -0.2404 
    126 C126        0.8740  -17.2260  -52.0405 C.3       23 UNK        -0.0205 
    127 H127        0.1844  -13.6107  -47.7140 H         1 UNK         0.0600 
    128 H128        0.3789  -15.3044  -48.1793 H         1 UNK         0.0600 
    129 H129        0.1870  -14.0686  -49.4222 H         1 UNK         0.0600 
    130 H130        2.4498  -16.0091  -47.9421 H         1 UNK         0.3000 
    131 H131        4.6168  -14.8517  -49.2558 H         1 UNK         0.0600 
    132 H132        5.1121  -16.8037  -46.9757 H         1 UNK         0.0800 
    133 H133        4.1362  -17.3483  -48.2905 H         1 UNK         0.0800 
    134 H134        6.5388  -17.4261  -51.3739 H         1 UNK         0.0800 
    135 H135        5.6361  -15.9706  -51.0624 H         1 UNK         0.0800 
    136 H136        3.3251  -16.1031  -51.5610 H         1 UNK         0.1150 
    137 H137        1.2018  -19.8160  -51.3296 H         1 UNK         0.1150 
    138 H138        5.3581  -19.6597  -50.2897 H         1 UNK         0.1150 
    139 H139        2.2993  -21.8348  -50.7085 H         1 UNK         0.0800 
    140 H140        4.0274  -21.8922  -50.9652 H         1 UNK         0.0800 
    141 H141        1.4054  -20.3797  -48.6404 H         1 UNK         0.0800 
    142 H142        2.3006  -20.2228  -47.1613 H         1 UNK         0.0800 
    143 H143        1.8025  -22.8455  -46.9180 H         1 UNK         0.0600 
    144 H144        0.3578  -20.5878  -45.8981 H         1 UNK         0.3000 
    145 H145       -1.2319  -22.5800  -43.3336 H         1 UNK         0.0600 
    146 H146       -0.1493  -20.8179  -41.9925 H         1 UNK         0.0600 
    147 H147        1.0766  -21.9117  -42.6140 H         1 UNK         0.0600 
    148 H148        0.8516  -20.3333  -43.3598 H         1 UNK         0.0600 
    149 H149       -1.5323  -19.8327  -43.8981 H         1 UNK         0.3000 
    150 H150       -4.3446  -20.1441  -46.1275 H         1 UNK         0.0600 
    151 H151       -5.1662  -20.3165  -43.7733 H         1 UNK         0.0600 
    152 H152       -5.2809  -18.6664  -44.3666 H         1 UNK         0.0600 
    153 H153       -3.9847  -19.1151  -43.2627 H         1 UNK         0.0600 
    154 H154       -3.0788  -17.8095  -45.2111 H         1 UNK         0.3000 
    155 H155       -0.6965  -17.4794  -47.8930 H         1 UNK         0.0600 
    156 H156       -3.2537  -16.0816  -46.9294 H         1 UNK         0.0600 
    157 H157       -1.9237  -15.2433  -47.7127 H         1 UNK         0.0600 
    158 H158       -2.8201  -16.4809  -48.5790 H         1 UNK         0.0600 
    159 H159       -0.9750  -15.9377  -45.5430 H         1 UNK         0.3000 
    160 H160        1.2394  -17.7846  -43.4287 H         1 UNK         0.0600 
    161 H161        1.4850  -15.0497  -44.7952 H         1 UNK         0.0600 
    162 H162        2.6970  -16.3265  -44.8162 H         1 UNK         0.0600 
    163 H163        2.2790  -15.5451  -43.2998 H         1 UNK         0.0600 
    164 H164       -0.3471  -15.3882  -43.1424 H         1 UNK         0.3000 
    165 H165       -3.2121  -16.9973  -41.7394 H         1 UNK         0.0600 
    166 H166       -2.6935  -15.4033  -39.9126 H         1 UNK         0.0600 
    167 H167       -1.5725  -16.7545  -39.8666 H         1 UNK         0.0600 
    168 H168       -1.0463  -15.2037  -40.5106 H         1 UNK         0.0600 
    169 H169       -2.5639  -14.2542  -42.2291 H         1 UNK         0.3000 
    170 H170       -3.6400  -14.0631  -45.5924 H         1 UNK         0.0600 
    171 H171       -5.8283  -14.0633  -44.3873 H         1 UNK         0.0600 
    172 H172       -5.1297  -13.0984  -43.0921 H         1 UNK         0.0600 
    173 H173       -5.2823  -12.4271  -44.7166 H         1 UNK         0.0600 
    174 H174       -2.9734  -12.0375  -43.7225 H         1 UNK         0.3000 
    175 H175       -1.0836  -10.8770  -44.0403 H         1 UNK         0.0600 
    176 H176        0.8161  -12.9745  -42.8253 H         1 UNK         0.0600 
    177 H177        0.8175  -11.2547  -42.4455 H         1 UNK         0.0600 
    178 H178       -0.5619  -12.2484  -42.0027 H         1 UNK         0.0600 
    179 H179        0.8969  -12.4060  -45.5893 H         1 UNK         0.3000 
    180 H180        1.6902  -10.6573  -47.5135 H         1 UNK         0.0600 
    181 H181        3.3424   -8.6864  -45.8483 H         1 UNK         0.0600 
    182 H182        2.1608   -8.2815  -47.0844 H         1 UNK         0.0600 
    183 H183        3.6468   -9.1006  -47.5348 H         1 UNK         0.0600 
    184 H184        3.2154  -12.1683  -47.0539 H         1 UNK         0.3000 
    185 H185        5.8512  -12.5881  -45.3356 H         1 UNK         0.0600 
    186 H186        5.1802  -12.8596  -43.0118 H         1 UNK         0.0600 
    187 H187        3.7028  -13.6955  -43.4597 H         1 UNK         0.0600 
    188 H188        5.2709  -14.4648  -43.7165 H         1 UNK         0.0600 
    189 H189        3.5331  -14.3644  -45.9700 H         1 UNK         0.3000 
    190 H190       -1.3257  -21.3423  -47.7968 H         1 UNK         0.3000 
    191 H191       -1.8592  -22.9066  -50.0946 H         1 UNK         0.0600 
    192 H192       -3.7967  -21.7231  -48.0461 H         1 UNK         0.0600 
    193 H193       -4.2248  -22.3059  -49.6482 H         1 UNK         0.0600 
    194 H194       -3.1868  -20.9040  -49.4851 H         1 UNK         0.0600 
    195 H195       -2.5584  -23.5424  -46.6048 H         1 UNK         0.3000 
    196 H196       -3.8712  -26.0175  -46.9565 H         1 UNK         0.0600 
    197 H197       -3.3207  -26.3598  -44.5365 H         1 UNK         0.0600 
    198 H198       -3.9530  -24.7496  -44.8416 H         1 UNK         0.0600 
    199 H199       -2.2253  -24.9836  -44.5873 H         1 UNK         0.0600 
    200 H200       -0.3880  -25.2808  -46.6292 H         1 UNK         0.3000 
    201 H201        0.5315  -27.9960  -46.6448 H         1 UNK         0.0600 
    202 H202        1.9066  -26.0989  -45.8093 H         1 UNK         0.0600 
    203 H203        1.9856  -25.4143  -47.4305 H         1 UNK         0.0600 
    204 H204        2.7449  -26.9627  -47.0901 H         1 UNK         0.0600 
    205 H205       -0.0248  -25.6015  -49.2474 H         1 UNK         0.3000 
    206 H206        0.8993  -27.2847  -51.3961 H         1 UNK         0.0600 
    207 H207        0.9290  -24.7927  -51.4834 H         1 UNK         0.0600 
    208 H208       -0.0227  -25.4499  -52.8061 H         1 UNK         0.0600 
    209 H209       -0.8318  -24.7547  -51.4081 H         1 UNK         0.0600 
    210 H210       -2.0461  -27.1957  -49.6554 H         1 UNK         0.3000 
    211 H211       -4.0330  -28.1416  -49.7533 H         1 UNK         0.0600 
    212 H212       -3.0983  -29.8520  -52.1181 H         1 UNK         0.0600 
    213 H213       -4.5116  -30.1294  -51.1128 H         1 UNK         0.0600 
    214 H214       -2.9055  -30.2771  -50.4176 H         1 UNK         0.0600 
    215 H215       -3.7429  -25.6866  -50.7041 H         1 UNK         0.3000 
    216 H216       -5.5781  -25.4031  -53.0527 H         1 UNK         0.0600 
    217 H217       -4.3521  -23.2603  -53.4597 H         1 UNK         0.0600 
    218 H218       -3.2311  -24.6105  -53.5047 H         1 UNK         0.0600 
    219 H219       -3.3024  -23.5795  -52.0794 H         1 UNK         0.0600 
    220 H220       -6.6284  -23.1252  -52.9100 H         1 UNK         0.3000 
    221 H221       -8.1056  -22.9008  -50.4103 H         1 UNK         0.0600 
    222 H222       -8.1714  -21.2441  -52.9920 H         1 UNK         0.0600 
    223 H223       -9.2442  -22.5817  -52.5876 H         1 UNK         0.0600 
    224 H224       -9.3073  -21.0935  -51.6574 H         1 UNK         0.0600 
    225 H225       -7.8477  -21.3869  -48.8366 H         1 UNK         0.3000 
    226 H226       -5.3949  -20.0555  -48.4493 H         1 UNK         0.0600 
    227 H227       -6.8033  -20.8051  -46.5776 H         1 UNK         0.0600 
    228 H228       -6.5829  -19.0655  -46.4594 H         1 UNK         0.0600 
    229 H229       -8.1030  -19.7133  -47.0565 H         1 UNK         0.0600 
    230 H230       -8.5290  -18.7775  -49.5560 H         1 UNK         0.3000 
    231 H231       -7.8019  -16.0195  -49.5854 H         1 UNK         0.0600 
    232 H232       -9.8932  -15.7872  -50.9359 H         1 UNK         0.0600 
    233 H233      -10.1558  -16.8110  -49.5337 H         1 UNK         0.0600 
    234 H234       -9.9757  -17.5337  -51.1332 H         1 UNK         0.0600 
    235 H235       -7.1704  -18.6146  -51.8426 H         1 UNK         0.3000 
    236 H236       -6.4085  -16.8191  -54.0647 H         1 UNK         0.0600 
    237 H237       -7.6862  -18.9440  -54.5053 H         1 UNK         0.0600 
    238 H238       -6.1172  -18.9343  -55.2945 H         1 UNK         0.0600 
    239 H239       -6.3476  -19.8748  -53.8287 H         1 UNK         0.0600 
    240 H240       -4.9547  -18.0904  -51.2404 H         1 UNK         0.3000 
    241 H241       -2.9216  -18.4470  -50.4911 H         1 UNK         0.0600 
    242 H242       -4.2092  -20.5496  -51.9896 H         1 UNK         0.3800 
    243 H243       -2.9228  -21.5090  -52.6966 H         1 UNK         0.3800 
    244 H244       -1.6550  -17.0038  -52.8671 H         1 UNK         0.0800 
    245 H245       -2.4458  -16.1522  -51.5770 H         1 UNK         0.0800 
    246 H246        0.5152  -17.8138  -52.8862 H         1 UNK         0.0800 
    247 H247        1.0913  -16.2300  -52.4289 H         1 UNK         0.0800 
@<TRIPOS>BOND
     1    1    2 1    
     2    1  127 1    
     3    1  128 1    
     4    1  129 1    
     5    2    3 2    
     6    2    4 am   BACKBONE|DICT|INTERRES
     7    4    5 1    
     8    4  130 1    
     9    5    6 1    
    10    5   65 1    
    11    5  131 1    
    12    6    7 1    
    13    6  132 1    
    14    6  133 1    
    15    7    8 1    
    16    8    9 1    
    17    8  134 1    
    18    8  135 1    
    19    9   10 ar   
    20    9   14 ar   
    21   10   11 ar   
    22   10  136 1    
    23   11   12 ar   
    24   11  126 1    
    25   12   13 ar   
    26   12  137 1    
    27   13   14 ar   
    28   13   15 1    
    29   14  138 1    
    30   15   16 1    
    31   15  139 1    
    32   15  140 1    
    33   16   17 1    
    34   17   18 1    
    35   17  141 1    
    36   17  142 1    
    37   18   19 1    
    38   18   67 1    
    39   18  143 1    
    40   19   20 am   BACKBONE|DICT|INTERRES
    41   19  144 1    
    42   20   21 2    
    43   20   22 1    
    44   22   23 1    
    45   22   24 1    
    46   22  145 1    
    47   23  146 1    
    48   23  147 1    
    49   23  148 1    
    50   24   25 am   BACKBONE|DICT|INTERRES
    51   24  149 1    
    52   25   26 2    
    53   25   27 1    
    54   27   28 1    
    55   27   29 1    
    56   27  150 1    
    57   28  151 1    
    58   28  152 1    
    59   28  153 1    
    60   29   30 am   BACKBONE|DICT|INTERRES
    61   29  154 1    
    62   30   31 2    
    63   30   32 1    
    64   32   33 1    
    65   32   34 1    
    66   32  155 1    
    67   33  156 1    
    68   33  157 1    
    69   33  158 1    
    70   34   35 am   BACKBONE|DICT|INTERRES
    71   34  159 1    
    72   35   36 2    
    73   35   37 1    
    74   37   38 1    
    75   37   39 1    
    76   37  160 1    
    77   38  161 1    
    78   38  162 1    
    79   38  163 1    
    80   39   40 am   BACKBONE|DICT|INTERRES
    81   39  164 1    
    82   40   41 2    
    83   40   42 1    
    84   42   43 1    
    85   42   44 1    
    86   42  165 1    
    87   43  166 1    
    88   43  167 1    
    89   43  168 1    
    90   44   45 am   BACKBONE|DICT|INTERRES
    91   44  169 1    
    92   45   46 2    
    93   45   47 1    
    94   47   48 1    
    95   47   49 1    
    96   47  170 1    
    97   48  171 1    
    98   48  172 1    
    99   48  173 1    
   100   49   50 am   BACKBONE|DICT|INTERRES
   101   49  174 1    
   102   50   51 2    
   103   50   52 1    
   104   52   53 1    
   105   52   54 1    
   106   52  175 1    
   107   53  176 1    
   108   53  177 1    
   109   53  178 1    
   110   54   55 am   BACKBONE|DICT|INTERRES
   111   54  179 1    
   112   55   56 2    
   113   55   57 1    
   114   57   58 1    
   115   57   59 1    
   116   57  180 1    
   117   58  181 1    
   118   58  182 1    
   119   58  183 1    
   120   59   60 am   BACKBONE|DICT|INTERRES
   121   59  184 1    
   122   60   61 2    
   123   60   62 1    
   124   62   63 1    
   125   62   64 1    
   126   62  185 1    
   127   63  186 1    
   128   63  187 1    
   129   63  188 1    
   130   64   65 am   BACKBONE|DICT|INTERRES
   131   64  189 1    
   132   65   66 2    
   133   67   68 2    
   134   67   69 am   BACKBONE|DICT|INTERRES
   135   69   70 1    
   136   69  190 1    
   137   70   71 1    
   138   70   72 1    
   139   70  191 1    
   140   71  192 1    
   141   71  193 1    
   142   71  194 1    
   143   72   73 2    
   144   72   74 am   BACKBONE|DICT|INTERRES
   145   74   75 1    
   146   74  195 1    
   147   75   76 1    
   148   75   77 1    
   149   75  196 1    
   150   76  197 1    
   151   76  198 1    
   152   76  199 1    
   153   77   78 2    
   154   77   79 am   BACKBONE|DICT|INTERRES
   155   79   80 1    
   156   79  200 1    
   157   80   81 1    
   158   80   82 1    
   159   80  201 1    
   160   81  202 1    
   161   81  203 1    
   162   81  204 1    
   163   82   83 2    
   164   82   84 am   BACKBONE|DICT|INTERRES
   165   84   85 1    
   166   84  205 1    
   167   85   86 1    
   168   85   87 1    
   169   85  206 1    
   170   86  207 1    
   171   86  208 1    
   172   86  209 1    
   173   87   88 2    
   174   87   89 am   BACKBONE|DICT|INTERRES
   175   89   90 1    
   176   89  210 1    
   177   90   91 1    
   178   90   92 1    
   179   90  211 1    
   180   91  212 1    
   181   91  213 1    
   182   91  214 1    
   183   92   93 2    
   184   92   94 am   BACKBONE|DICT|INTERRES
   185   94   95 1    
   186   94  215 1    
   187   95   96 1    
   188   95   97 1    
   189   95  216 1    
   190   96  217 1    
   191   96  218 1    
   192   96  219 1    
   193   97   98 2    
   194   97   99 am   BACKBONE|DICT|INTERRES
   195   99  100 1    
   196   99  220 1    
   197  100  101 1    
   198  100  102 1    
   199  100  221 1    
   200  101  222 1    
   201  101  223 1    
   202  101  224 1    
   203  102  103 2    
   204  102  104 am   BACKBONE|DICT|INTERRES
   205  104  105 1    
   206  104  225 1    
   207  105  106 1    
   208  105  107 1    
   209  105  226 1    
   210  106  227 1    
   211  106  228 1    
   212  106  229 1    
   213  107  108 2    
   214  107  109 am   BACKBONE|DICT|INTERRES
   215  109  110 1    
   216  109  230 1    
   217  110  111 1    
   218  110  112 1    
   219  110  231 1    
   220  111  232 1    
   221  111  233 1    
   222  111  234 1    
   223  112  113 2    
   224  112  114 am   BACKBONE|DICT|INTERRES
   225  114  115 1    
   226  114  235 1    
   227  115  116 1    
   228  115  117 1    
   229  115  236 1    
   230  116  237 1    
   231  116  238 1    
   232  116  239 1    
   233  117  118 2    
   234  117  119 am   BACKBONE|DICT|INTERRES
   235  119  120 1    
   236  119  240 1    
   237  120  121 1    
   238  120  124 1    
   239  120  241 1    
   240  121  122 am   BACKBONE|DICT|INTERRES
   241  121  123 2    
   242  122  242 1    
   243  122  243 1    
   244  124  125 1    
   245  124  244 1    
   246  124  245 1    
   247  125  126 1    
   248  126  246 1    
   249  126  247 1    
@<TRIPOS>SUBSTRUCTURE
     1 UNK         1 GROUP             0       ****    0 ROOT    
