@<TRIPOS>MOLECULE
3R540
247   249    1
SMALL
USER_CHARGES


@<TRIPOS>ATOM
      1 CA          6.9909   -8.7336  -50.5093 C.3       0 UNK        -0.1800 
      2 C           6.3694   -9.8746  -49.7162 C.2       0 UNK         0.5000 
      3 O           6.7684  -10.1173  -48.5774 O.2       0 UNK        -0.5000 
      4 N           5.3959  -10.5749  -50.3136 N.am      1 UNK        -0.5000 
      5 CA          4.6647  -11.6900  -49.6947 C.3       1 UNK         0.1400 
      6 C6          3.9884  -12.5841  -50.7687 C.3       23 UNK        -0.0398 
      7 S7          3.9823  -14.3557  -50.3302 S.3       23 UNK        -0.2404 
      8 C8          2.2516  -14.6076  -49.8309 C.3       23 UNK        -0.0205 
      9 C9          1.9492  -16.0867  -49.6473 C.ar      23 UNK        -0.0193 
     10 C10         1.3722  -16.8163  -50.6917 C.ar      23 UNK        -0.1150 
     11 C11         1.1080  -18.1810  -50.5448 C.ar      23 UNK        -0.0193 
     12 C12         1.4154  -18.8097  -49.3366 C.ar      23 UNK        -0.1150 
     13 C13         1.9768  -18.0909  -48.2794 C.ar      23 UNK        -0.0193 
     14 C14         2.2511  -16.7296  -48.4417 C.ar      23 UNK        -0.1150 
     15 C15         2.2557  -18.7910  -46.9608 C.3       23 UNK        -0.0205 
     16 S16         3.7553  -19.8160  -47.0387 S.3       23 UNK        -0.2404 
     17 C17         3.5154  -20.8400  -45.5390 C.3       23 UNK        -0.0398 
     18 CA          3.0647  -22.3248  -45.7216 C.3       11 UNK         0.1400 
     19 N           2.2494  -22.7560  -44.5842 N.am      11 UNK        -0.5000 
     20 C           2.2978  -23.9612  -44.0047 C.2       10 UNK         0.5000 
     21 O           3.0705  -24.8562  -44.3472 O.2       10 UNK        -0.5000 
     22 CA          1.3146  -24.2100  -42.8431 C.3       10 UNK         0.1400 
     23 CB          1.9801  -23.8787  -41.4987 C.3       10 UNK        -0.1800 
     24 N           0.0722  -23.4422  -42.9612 N.am      10 UNK        -0.5000 
     25 C          -0.8819  -23.6882  -43.8678 C.2       9 UNK         0.5000 
     26 O          -0.8268  -24.6035  -44.6894 O.2       9 UNK        -0.5000 
     27 CA         -2.0984  -22.7446  -43.8855 C.3       9 UNK         0.1400 
     28 CB         -3.2044  -23.2885  -42.9690 C.3       9 UNK        -0.1800 
     29 N          -1.8300  -21.3457  -43.5335 N.am      9 UNK        -0.5000 
     30 C          -0.9292  -20.5452  -44.1180 C.2       8 UNK         0.5000 
     31 O          -0.0623  -20.9363  -44.9017 O.2       8 UNK        -0.5000 
     32 CA         -1.0007  -19.0503  -43.7655 C.3       8 UNK         0.1400 
     33 CB          0.1471  -18.6732  -42.8187 C.3       8 UNK        -0.1800 
     34 N          -0.9450  -18.2166  -44.9698 N.am      8 UNK        -0.5000 
     35 C          -1.8812  -18.2152  -45.9343 C.2       7 UNK         0.5000 
     36 O          -2.9198  -18.8745  -45.8620 O.2       7 UNK        -0.5000 
     37 CA         -1.6188  -17.3588  -47.1956 C.3       7 UNK         0.1400 
     38 CB         -2.9198  -16.8644  -47.8628 C.3       7 UNK        -0.1800 
     39 N          -0.6867  -16.2473  -46.9847 N.am      7 UNK        -0.5000 
     40 C          -0.8497  -15.1955  -46.1705 C.2       6 UNK         0.5000 
     41 O          -1.8537  -14.9886  -45.4860 O.2       6 UNK        -0.5000 
     42 CA          0.3413  -14.2229  -46.0879 C.3       6 UNK         0.1400 
     43 CB         -0.0524  -12.8264  -46.5899 C.3       6 UNK        -0.1800 
     44 N           0.8877  -14.1402  -44.7309 N.am      6 UNK        -0.5000 
     45 C           1.4037  -15.1857  -44.0637 C.2       5 UNK         0.5000 
     46 O           1.4668  -16.3175  -44.5450 O.2       5 UNK        -0.5000 
     47 CA          1.9713  -14.9582  -42.6467 C.3       5 UNK         0.1400 
     48 CB          3.4694  -15.3021  -42.6080 C.3       5 UNK        -0.1800 
     49 N           1.8001  -13.5921  -42.1561 N.am      5 UNK        -0.5000 
     50 C           0.7077  -13.1130  -41.5459 C.2       4 UNK         0.5000 
     51 O          -0.2843  -13.7937  -41.2852 O.2       4 UNK        -0.5000 
     52 CA          0.7225  -11.6108  -41.1823 C.3       4 UNK         0.1400 
     53 CB          1.0892  -11.4196  -39.7027 C.3       4 UNK        -0.1800 
     54 N           1.6388  -10.8132  -42.0091 N.am      4 UNK        -0.5000 
     55 C           1.5116  -10.6550  -43.3326 C.2       3 UNK         0.5000 
     56 O           0.5731  -11.1285  -43.9794 O.2       3 UNK        -0.5000 
     57 CA          2.6405   -9.9091  -44.0617 C.3       3 UNK         0.1400 
     58 CB          3.9707  -10.6835  -43.9365 C.3       3 UNK        -0.1800 
     59 N           2.2483   -9.7998  -45.4618 N.am      3 UNK        -0.5000 
     60 C           2.8668   -9.1293  -46.4350 C.2       2 UNK         0.5000 
     61 O           3.8645   -8.4244  -46.2685 O.2       2 UNK        -0.5000 
     62 CA          2.2644   -9.2865  -47.8436 C.3       2 UNK         0.1400 
     63 CB          1.8618   -7.9251  -48.4328 C.3       2 UNK        -0.1800 
     64 N           3.1977   -9.9467  -48.7545 N.am      2 UNK        -0.5000 
     65 C           3.6433  -11.2075  -48.6381 C.2       1 UNK         0.5000 
     66 O           3.2759  -11.9800  -47.7530 O.2       1 UNK        -0.5000 
     67 C           2.3080  -22.6296  -47.0339 C.2       11 UNK         0.5000 
     68 O           2.8994  -23.1530  -47.9789 O.2       11 UNK        -0.5000 
     69 N           1.0073  -22.3121  -47.0558 N.am      12 UNK        -0.5000 
     70 CA          0.1279  -22.4050  -48.2185 C.3       12 UNK         0.1400 
     71 CB         -1.0497  -21.4410  -48.0046 C.3       12 UNK        -0.1800 
     72 C          -0.3849  -23.8238  -48.5212 C.2       12 UNK         0.5000 
     73 O          -1.0900  -23.9885  -49.5148 O.2       12 UNK        -0.5000 
     74 N          -0.0687  -24.8073  -47.6660 N.am      13 UNK        -0.5000 
     75 CA         -0.5016  -26.2085  -47.7373 C.3       13 UNK         0.1400 
     76 CB          0.1030  -26.9122  -48.9703 C.3       13 UNK        -0.1800 
     77 C          -2.0368  -26.3252  -47.6660 C.2       13 UNK         0.5000 
     78 O          -2.6773  -26.8177  -48.5979 O.2       13 UNK        -0.5000 
     79 N          -2.5928  -25.8017  -46.5643 N.am      14 UNK        -0.5000 
     80 CA         -4.0241  -25.6974  -46.2621 C.3       14 UNK         0.1400 
     81 CB         -4.6394  -27.0948  -46.0389 C.3       14 UNK        -0.1800 
     82 C          -4.7831  -24.8641  -47.3144 C.2       14 UNK         0.5000 
     83 O          -5.8519  -25.2704  -47.7700 O.2       14 UNK        -0.5000 
     84 N          -4.1877  -23.7253  -47.7022 N.am      15 UNK        -0.5000 
     85 CA         -4.6589  -22.7982  -48.7385 C.3       15 UNK         0.1400 
     86 CB         -5.9610  -22.1002  -48.2933 C.3       15 UNK        -0.1800 
     87 C          -4.7777  -23.4876  -50.1130 C.2       15 UNK         0.5000 
     88 O          -5.8244  -23.4098  -50.7587 O.2       15 UNK        -0.5000 
     89 N          -3.7026  -24.1848  -50.5076 N.am      16 UNK        -0.5000 
     90 CA         -3.5684  -25.0200  -51.7024 C.3       16 UNK         0.1400 
     91 CB         -3.5380  -24.1408  -52.9688 C.3       16 UNK        -0.1800 
     92 C          -4.6322  -26.1345  -51.7520 C.2       16 UNK         0.5000 
     93 O          -5.3228  -26.2851  -52.7597 O.2       16 UNK        -0.5000 
     94 N          -4.7713  -26.8634  -50.6342 N.am      17 UNK        -0.5000 
     95 CA         -5.7884  -27.8892  -50.3743 C.3       17 UNK         0.1400 
     96 CB         -5.5219  -29.1465  -51.2274 C.3       17 UNK        -0.1800 
     97 C          -7.2265  -27.3432  -50.5249 C.2       17 UNK         0.5000 
     98 O          -8.0583  -27.9451  -51.2066 O.2       17 UNK        -0.5000 
     99 N          -7.4698  -26.1882  -49.8910 N.am      18 UNK        -0.5000 
    100 CA        -8.7125  -25.4124  -49.8557 C.3       18 UNK         0.1400 
    101 CB        -9.8410  -26.2139  -49.1740 C.3       18 UNK        -0.1800 
    102 C         -9.1453  -24.8099  -51.2110 C.2       18 UNK         0.5000 
    103 O        -10.2989  -24.3966  -51.3432 O.2       18 UNK        -0.5000 
    104 N         -8.2284  -24.7305  -52.1861 N.am      19 UNK        -0.5000 
    105 CA        -8.4580  -24.0706  -53.4749 C.3       19 UNK         0.1400 
    106 CB        -7.4429  -24.5854  -54.5054 C.3       19 UNK        -0.1800 
    107 C         -8.3883  -22.5338  -53.3790 C.2       19 UNK         0.5000 
    108 O         -8.9619  -21.8545  -54.2311 O.2       19 UNK        -0.5000 
    109 N         -7.6856  -22.0205  -52.3565 N.am      20 UNK        -0.5000 
    110 CA        -7.4528  -20.6049  -52.0499 C.3       20 UNK         0.1400 
    111 CB        -8.7731  -19.8814  -51.7144 C.3       20 UNK        -0.1800 
    112 C         -6.6159  -19.8797  -53.1239 C.2       20 UNK         0.5000 
    113 O         -6.7847  -18.6770  -53.3354 O.2       20 UNK        -0.5000 
    114 N         -5.6991  -20.6212  -53.7643 N.am      21 UNK        -0.5000 
    115 CA        -4.8278  -20.1541  -54.8489 C.3       21 UNK         0.1400 
    116 CB        -4.0293  -21.3465  -55.3966 C.3       21 UNK        -0.1800 
    117 C         -3.8771  -19.0064  -54.4505 C.2       21 UNK         0.5000 
    118 O         -3.4766  -18.2253  -55.3144 O.2       21 UNK        -0.5000 
    119 N         -3.5554  -18.9130  -53.1543 N.am      22 UNK        -0.5000 
    120 CA        -2.7906  -17.8096  -52.5524 C.3       22 UNK         0.1400 
    121 C         -3.5919  -16.4808  -52.4017 C.2       22 UNK         0.5000 
    122 N         -4.9009  -16.4494  -52.6285 N.am      22 UNK        -0.7600 
    123 O         -3.0090  -15.4505  -52.0764 O.2       22 UNK        -0.5000 
    124 C124       -2.1559  -18.2166  -51.1977 C.3       23 UNK        -0.0398 
    125 S125       -1.1059  -19.7045  -51.3092 S.3       23 UNK        -0.2404 
    126 C126        0.5219  -18.9841  -51.6986 C.3       23 UNK        -0.0205 
    127 H127        6.5454   -8.6373  -51.4997 H         1 UNK         0.0600 
    128 H128        8.0608   -8.9018  -50.6330 H         1 UNK         0.0600 
    129 H129        6.8518   -7.7905  -49.9807 H         1 UNK         0.0600 
    130 H130        5.1199  -10.3318  -51.2548 H         1 UNK         0.3000 
    131 H131        5.4040  -12.2940  -49.1637 H         1 UNK         0.0600 
    132 H132        2.9806  -12.2418  -51.0118 H         1 UNK         0.0800 
    133 H133        4.5432  -12.5213  -51.7060 H         1 UNK         0.0800 
    134 H134        1.5861  -14.1825  -50.5839 H         1 UNK         0.0800 
    135 H135        2.0563  -14.0666  -48.9051 H         1 UNK         0.0800 
    136 H136        1.1447  -16.3231  -51.6264 H         1 UNK         0.1150 
    137 H137        1.2192  -19.8642  -49.2199 H         1 UNK         0.1150 
    138 H138        2.7057  -16.1728  -47.6338 H         1 UNK         0.1150 
    139 H139        2.3708  -18.0659  -46.1563 H         1 UNK         0.0800 
    140 H140        1.3963  -19.4095  -46.6989 H         1 UNK         0.0800 
    141 H141        2.8074  -20.3128  -44.8972 H         1 UNK         0.0800 
    142 H142        4.4517  -20.8249  -44.9799 H         1 UNK         0.0800 
    143 H143        3.9761  -22.9260  -45.7548 H         1 UNK         0.0600 
    144 H144        1.5316  -22.1080  -44.2828 H         1 UNK         0.3000 
    145 H145        1.0625  -25.2727  -42.8463 H         1 UNK         0.0600 
    146 H146        2.2401  -22.8218  -41.4274 H         1 UNK         0.0600 
    147 H147        1.3230  -24.1207  -40.6631 H         1 UNK         0.0600 
    148 H148        2.8981  -24.4526  -41.3651 H         1 UNK         0.0600 
    149 H149       -0.0541  -22.6696  -42.3240 H         1 UNK         0.3000 
    150 H150       -2.4797  -22.7449  -44.9083 H         1 UNK         0.0600 
    151 H151       -3.4132  -24.3385  -43.1767 H         1 UNK         0.0600 
    152 H152       -4.1365  -22.7400  -43.1069 H         1 UNK         0.0600 
    153 H153       -2.9243  -23.2159  -41.9173 H         1 UNK         0.0600 
    154 H154       -2.4816  -20.9303  -42.8834 H         1 UNK         0.3000 
    155 H155       -1.9466  -18.8478  -43.2592 H         1 UNK         0.0600 
    156 H156        0.1396  -19.2960  -41.9233 H         1 UNK         0.0600 
    157 H157        0.0587  -17.6378  -42.4915 H         1 UNK         0.0600 
    158 H158        1.1204  -18.7950  -43.2963 H         1 UNK         0.0600 
    159 H159       -0.1212  -17.6363  -45.0774 H         1 UNK         0.3000 
    160 H160       -1.1281  -18.0241  -47.9066 H         1 UNK         0.0600 
    161 H161       -2.7081  -16.2752  -48.7551 H         1 UNK         0.0600 
    162 H162       -3.5124  -16.2472  -47.1872 H         1 UNK         0.0600 
    163 H163       -3.5470  -17.7022  -48.1688 H         1 UNK         0.0600 
    164 H164        0.1894  -16.3316  -47.4822 H         1 UNK         0.3000 
    165 H165        1.1420  -14.5877  -46.7319 H         1 UNK         0.0600 
    166 H166       -0.8299  -12.3792  -45.9694 H         1 UNK         0.0600 
    167 H167        0.8057  -12.1561  -46.5936 H         1 UNK         0.0600 
    168 H168       -0.4317  -12.8719  -47.6115 H         1 UNK         0.0600 
    169 H169        0.8245  -13.2392  -44.2735 H         1 UNK         0.3000 
    170 H170        1.4508  -15.6448  -41.9762 H         1 UNK         0.0600 
    171 H171        4.0469  -14.6592  -43.2734 H         1 UNK         0.0600 
    172 H172        3.8733  -15.1942  -41.6012 H         1 UNK         0.0600 
    173 H173        3.6441  -16.3341  -42.9157 H         1 UNK         0.0600 
    174 H174        2.5664  -12.9573  -42.3223 H         1 UNK         0.3000 
    175 H175       -0.2887  -11.2286  -41.3367 H         1 UNK         0.0600 
    176 H176        2.1016  -11.7657  -39.4910 H         1 UNK         0.0600 
    177 H177        1.0238  -10.3710  -39.4118 H         1 UNK         0.0600 
    178 H178        0.4098  -11.9772  -39.0564 H         1 UNK         0.0600 
    179 H179        2.4288  -10.3988  -41.5354 H         1 UNK         0.3000 
    180 H180        2.7391   -8.9100  -43.6338 H         1 UNK         0.0600 
    181 H181        3.8940  -11.6814  -44.3710 H         1 UNK         0.0600 
    182 H182        4.2709  -10.7986  -42.8947 H         1 UNK         0.0600 
    183 H183        4.7862  -10.1661  -44.4411 H         1 UNK         0.0600 
    184 H184        1.4132  -10.3352  -45.6689 H         1 UNK         0.3000 
    185 H185        1.3657   -9.9039  -47.7809 H         1 UNK         0.0600 
    186 H186        2.7246   -7.2710  -48.5653 H         1 UNK         0.0600 
    187 H187        1.3772   -8.0422  -49.4023 H         1 UNK         0.0600 
    188 H188        1.1574   -7.4107  -47.7779 H         1 UNK         0.0600 
    189 H189        3.5856   -9.3747  -49.4895 H         1 UNK         0.3000 
    190 H190        0.6035  -21.8698  -46.2316 H         1 UNK         0.3000 
    191 H191        0.6823  -22.0793  -49.1003 H         1 UNK         0.0600 
    192 H192       -1.6749  -21.7433  -47.1643 H         1 UNK         0.0600 
    193 H193       -0.6993  -20.4289  -47.8083 H         1 UNK         0.0600 
    194 H194       -1.6802  -21.3931  -48.8915 H         1 UNK         0.0600 
    195 H195        0.4638  -24.5551  -46.8451 H         1 UNK         0.3000 
    196 H196       -0.1075  -26.7032  -46.8482 H         1 UNK         0.0600 
    197 H197        1.1898  -26.8292  -48.9764 H         1 UNK         0.0600 
    198 H198       -0.2698  -26.4945  -49.9060 H         1 UNK         0.0600 
    199 H199       -0.1426  -27.9747  -48.9689 H         1 UNK         0.0600 
    200 H200       -1.9620  -25.4084  -45.8675 H         1 UNK         0.3000 
    201 H201       -4.1062  -25.1488  -45.3240 H         1 UNK         0.0600 
    202 H202       -5.6742  -27.0168  -45.7034 H         1 UNK         0.0600 
    203 H203       -4.0925  -27.6477  -45.2753 H         1 UNK         0.0600 
    204 H204       -4.6369  -27.6919  -46.9511 H         1 UNK         0.0600 
    205 H205       -3.2912  -23.5085  -47.2951 H         1 UNK         0.3000 
    206 H206       -3.8977  -22.0263  -48.8456 H         1 UNK         0.0600 
    207 H207       -6.7983  -22.7958  -48.2317 H         1 UNK         0.0600 
    208 H208       -6.2411  -21.3142  -48.9936 H         1 UNK         0.0600 
    209 H209       -5.8417  -21.6326  -47.3161 H         1 UNK         0.0600 
    210 H210       -2.8678  -24.1647  -49.9255 H         1 UNK         0.3000 
    211 H211       -2.6024  -25.5208  -51.6225 H         1 UNK         0.0600 
    212 H212       -2.7258  -23.4158  -52.9177 H         1 UNK         0.0600 
    213 H213       -3.3792  -24.7441  -53.8632 H         1 UNK         0.0600 
    214 H214       -4.4686  -23.5910  -53.1037 H         1 UNK         0.0600 
    215 H215       -4.1296  -26.6819  -49.8656 H         1 UNK         0.3000 
    216 H216       -5.6762  -28.1715  -49.3265 H         1 UNK         0.0600 
    217 H217       -6.2078  -29.9512  -50.9606 H         1 UNK         0.0600 
    218 H218       -5.6477  -28.9493  -52.2924 H         1 UNK         0.0600 
    219 H219       -4.5093  -29.5190  -51.0726 H         1 UNK         0.0600 
    220 H220       -6.7216  -25.7981  -49.3208 H         1 UNK         0.3000 
    221 H221       -8.4942  -24.5557  -49.2167 H         1 UNK         0.0600 
    222 H222      -10.1700  -27.0530  -49.7874 H         1 UNK         0.0600 
    223 H223       -9.5176  -26.6076  -48.2103 H         1 UNK         0.0600 
    224 H224      -10.7124  -25.5851  -48.9881 H         1 UNK         0.0600 
    225 H225       -7.2944  -25.0772  -52.0067 H         1 UNK         0.3000 
    226 H226       -9.4566  -24.3355  -53.8288 H         1 UNK         0.0600 
    227 H227       -7.4840  -25.6714  -54.5927 H         1 UNK         0.0600 
    228 H228       -7.6460  -24.1711  -55.4937 H         1 UNK         0.0600 
    229 H229       -6.4234  -24.3084  -54.2396 H         1 UNK         0.0600 
    230 H230       -7.2013  -22.6737  -51.7426 H         1 UNK         0.3000 
    231 H231       -6.8409  -20.5934  -51.1483 H         1 UNK         0.0600 
    232 H232       -8.5826  -18.8779  -51.3322 H         1 UNK         0.0600 
    233 H233       -9.3322  -20.4184  -50.9481 H         1 UNK         0.0600 
    234 H234       -9.4150  -19.7796  -52.5897 H         1 UNK         0.0600 
    235 H235       -5.6297  -21.5972  -53.5184 H         1 UNK         0.3000 
    236 H236       -5.4731  -19.7798  -55.6462 H         1 UNK         0.0600 
    237 H237       -4.6877  -22.1562  -55.7123 H         1 UNK         0.0600 
    238 H238       -3.4375  -21.0525  -56.2644 H         1 UNK         0.0600 
    239 H239       -3.3391  -21.7419  -54.6513 H         1 UNK         0.0600 
    240 H240       -3.9144  -19.6085  -52.5188 H         1 UNK         0.3000 
    241 H241       -1.9693  -17.5776  -53.2330 H         1 UNK         0.0600 
    242 H242       -5.3938  -15.5764  -52.5288 H         1 UNK         0.3800 
    243 H243       -5.4139  -17.2787  -52.9084 H         1 UNK         0.3800 
    244 H244       -1.5662  -17.3973  -50.7836 H         1 UNK         0.0800 
    245 H245       -2.9394  -18.4217  -50.4674 H         1 UNK         0.0800 
    246 H246        0.4364  -18.3724  -52.5979 H         1 UNK         0.0800 
    247 H247        1.2104  -19.7934  -51.9454 H         1 UNK         0.0800 
@<TRIPOS>BOND
     1    1    2 1    
     2    1  127 1    
     3    1  128 1    
     4    1  129 1    
     5    2    3 2    
     6    2    4 am   BACKBONE|DICT|INTERRES
     7    4    5 1    
     8    4  130 1    
     9    5    6 1    
    10    5   65 1    
    11    5  131 1    
    12    6    7 1    
    13    6  132 1    
    14    6  133 1    
    15    7    8 1    
    16    8    9 1    
    17    8  134 1    
    18    8  135 1    
    19    9   10 ar   
    20    9   14 ar   
    21   10   11 ar   
    22   10  136 1    
    23   11   12 ar   
    24   11  126 1    
    25   12   13 ar   
    26   12  137 1    
    27   13   14 ar   
    28   13   15 1    
    29   14  138 1    
    30   15   16 1    
    31   15  139 1    
    32   15  140 1    
    33   16   17 1    
    34   17   18 1    
    35   17  141 1    
    36   17  142 1    
    37   18   19 1    
    38   18   67 1    
    39   18  143 1    
    40   19   20 am   BACKBONE|DICT|INTERRES
    41   19  144 1    
    42   20   21 2    
    43   20   22 1    
    44   22   23 1    
    45   22   24 1    
    46   22  145 1    
    47   23  146 1    
    48   23  147 1    
    49   23  148 1    
    50   24   25 am   BACKBONE|DICT|INTERRES
    51   24  149 1    
    52   25   26 2    
    53   25   27 1    
    54   27   28 1    
    55   27   29 1    
    56   27  150 1    
    57   28  151 1    
    58   28  152 1    
    59   28  153 1    
    60   29   30 am   BACKBONE|DICT|INTERRES
    61   29  154 1    
    62   30   31 2    
    63   30   32 1    
    64   32   33 1    
    65   32   34 1    
    66   32  155 1    
    67   33  156 1    
    68   33  157 1    
    69   33  158 1    
    70   34   35 am   BACKBONE|DICT|INTERRES
    71   34  159 1    
    72   35   36 2    
    73   35   37 1    
    74   37   38 1    
    75   37   39 1    
    76   37  160 1    
    77   38  161 1    
    78   38  162 1    
    79   38  163 1    
    80   39   40 am   BACKBONE|DICT|INTERRES
    81   39  164 1    
    82   40   41 2    
    83   40   42 1    
    84   42   43 1    
    85   42   44 1    
    86   42  165 1    
    87   43  166 1    
    88   43  167 1    
    89   43  168 1    
    90   44   45 am   BACKBONE|DICT|INTERRES
    91   44  169 1    
    92   45   46 2    
    93   45   47 1    
    94   47   48 1    
    95   47   49 1    
    96   47  170 1    
    97   48  171 1    
    98   48  172 1    
    99   48  173 1    
   100   49   50 am   BACKBONE|DICT|INTERRES
   101   49  174 1    
   102   50   51 2    
   103   50   52 1    
   104   52   53 1    
   105   52   54 1    
   106   52  175 1    
   107   53  176 1    
   108   53  177 1    
   109   53  178 1    
   110   54   55 am   BACKBONE|DICT|INTERRES
   111   54  179 1    
   112   55   56 2    
   113   55   57 1    
   114   57   58 1    
   115   57   59 1    
   116   57  180 1    
   117   58  181 1    
   118   58  182 1    
   119   58  183 1    
   120   59   60 am   BACKBONE|DICT|INTERRES
   121   59  184 1    
   122   60   61 2    
   123   60   62 1    
   124   62   63 1    
   125   62   64 1    
   126   62  185 1    
   127   63  186 1    
   128   63  187 1    
   129   63  188 1    
   130   64   65 am   BACKBONE|DICT|INTERRES
   131   64  189 1    
   132   65   66 2    
   133   67   68 2    
   134   67   69 am   BACKBONE|DICT|INTERRES
   135   69   70 1    
   136   69  190 1    
   137   70   71 1    
   138   70   72 1    
   139   70  191 1    
   140   71  192 1    
   141   71  193 1    
   142   71  194 1    
   143   72   73 2    
   144   72   74 am   BACKBONE|DICT|INTERRES
   145   74   75 1    
   146   74  195 1    
   147   75   76 1    
   148   75   77 1    
   149   75  196 1    
   150   76  197 1    
   151   76  198 1    
   152   76  199 1    
   153   77   78 2    
   154   77   79 am   BACKBONE|DICT|INTERRES
   155   79   80 1    
   156   79  200 1    
   157   80   81 1    
   158   80   82 1    
   159   80  201 1    
   160   81  202 1    
   161   81  203 1    
   162   81  204 1    
   163   82   83 2    
   164   82   84 am   BACKBONE|DICT|INTERRES
   165   84   85 1    
   166   84  205 1    
   167   85   86 1    
   168   85   87 1    
   169   85  206 1    
   170   86  207 1    
   171   86  208 1    
   172   86  209 1    
   173   87   88 2    
   174   87   89 am   BACKBONE|DICT|INTERRES
   175   89   90 1    
   176   89  210 1    
   177   90   91 1    
   178   90   92 1    
   179   90  211 1    
   180   91  212 1    
   181   91  213 1    
   182   91  214 1    
   183   92   93 2    
   184   92   94 am   BACKBONE|DICT|INTERRES
   185   94   95 1    
   186   94  215 1    
   187   95   96 1    
   188   95   97 1    
   189   95  216 1    
   190   96  217 1    
   191   96  218 1    
   192   96  219 1    
   193   97   98 2    
   194   97   99 am   BACKBONE|DICT|INTERRES
   195   99  100 1    
   196   99  220 1    
   197  100  101 1    
   198  100  102 1    
   199  100  221 1    
   200  101  222 1    
   201  101  223 1    
   202  101  224 1    
   203  102  103 2    
   204  102  104 am   BACKBONE|DICT|INTERRES
   205  104  105 1    
   206  104  225 1    
   207  105  106 1    
   208  105  107 1    
   209  105  226 1    
   210  106  227 1    
   211  106  228 1    
   212  106  229 1    
   213  107  108 2    
   214  107  109 am   BACKBONE|DICT|INTERRES
   215  109  110 1    
   216  109  230 1    
   217  110  111 1    
   218  110  112 1    
   219  110  231 1    
   220  111  232 1    
   221  111  233 1    
   222  111  234 1    
   223  112  113 2    
   224  112  114 am   BACKBONE|DICT|INTERRES
   225  114  115 1    
   226  114  235 1    
   227  115  116 1    
   228  115  117 1    
   229  115  236 1    
   230  116  237 1    
   231  116  238 1    
   232  116  239 1    
   233  117  118 2    
   234  117  119 am   BACKBONE|DICT|INTERRES
   235  119  120 1    
   236  119  240 1    
   237  120  121 1    
   238  120  124 1    
   239  120  241 1    
   240  121  122 am   BACKBONE|DICT|INTERRES
   241  121  123 2    
   242  122  242 1    
   243  122  243 1    
   244  124  125 1    
   245  124  244 1    
   246  124  245 1    
   247  125  126 1    
   248  126  246 1    
   249  126  247 1    
@<TRIPOS>SUBSTRUCTURE
     1 UNK         1 GROUP             0       ****    0 ROOT    
