@<TRIPOS>MOLECULE
3R540
247   249    1
SMALL
USER_CHARGES


@<TRIPOS>ATOM
      1 CA         -2.3730  -13.3462  -40.8110 C.3       0 UNK        -0.1800 
      2 C          -1.4868  -12.7041  -41.8689 C.2       0 UNK         0.5000 
      3 O          -0.6220  -11.8929  -41.5389 O.2       0 UNK        -0.5000 
      4 N          -1.6863  -13.0699  -43.1408 N.am      1 UNK        -0.5000 
      5 CA         -0.9862  -12.5589  -44.3287 C.3       1 UNK         0.1400 
      6 C6         -1.8521  -12.7336  -45.6063 C.3       23 UNK        -0.0398 
      7 S7         -2.4246  -14.4479  -45.8878 S.3       23 UNK        -0.2404 
      8 C8         -2.1294  -14.6405  -47.6737 C.3       23 UNK        -0.0205 
      9 C9         -2.6687  -15.9714  -48.1780 C.ar      23 UNK        -0.0193 
     10 C10        -4.0476  -16.1694  -48.2768 C.ar      23 UNK        -0.1150 
     11 C11        -4.5609  -17.3837  -48.7364 C.ar      23 UNK        -0.0193 
     12 C12        -3.6825  -18.4119  -49.0913 C.ar      23 UNK        -0.1150 
     13 C13        -2.2991  -18.2338  -48.9954 C.ar      23 UNK        -0.0193 
     14 C14        -1.8014  -17.0027  -48.5502 C.ar      23 UNK        -0.1150 
     15 C15        -1.3693  -19.3652  -49.4297 C.3       23 UNK        -0.0205 
     16 S16         0.1658  -19.5305  -48.4504 S.3       23 UNK        -0.2404 
     17 C17        -0.1256  -20.7257  -47.0859 C.3       23 UNK        -0.0398 
     18 CA         -1.5492  -20.9270  -46.4992 C.3       11 UNK         0.1400 
     19 N          -2.2097  -19.6584  -46.1934 N.am      11 UNK        -0.5000 
     20 C          -3.1027  -19.4592  -45.2189 C.2       10 UNK         0.5000 
     21 O          -3.5907  -20.3614  -44.5358 O.2       10 UNK        -0.5000 
     22 CA         -3.4889  -17.9920  -44.9510 C.3       10 UNK         0.1400 
     23 CB         -5.0089  -17.7932  -45.0534 C.3       10 UNK        -0.1800 
     24 N          -3.0271  -17.5137  -43.6449 N.am      10 UNK        -0.5000 
     25 C          -1.7687  -17.5798  -43.1869 C.2       9 UNK         0.5000 
     26 O          -0.8275  -18.0502  -43.8301 O.2       9 UNK        -0.5000 
     27 CA         -1.5098  -17.0272  -41.7749 C.3       9 UNK         0.1400 
     28 CB         -2.5649  -17.4744  -40.7439 C.3       9 UNK        -0.1800 
     29 N          -0.1878  -17.4727  -41.3555 N.am      9 UNK        -0.5000 
     30 C           0.6479  -16.8365  -40.5315 C.2       8 UNK         0.5000 
     31 O           0.3526  -15.8015  -39.9337 O.2       8 UNK        -0.5000 
     32 CA          2.0487  -17.4595  -40.3295 C.3       8 UNK         0.1400 
     33 CB          2.2274  -17.9256  -38.8756 C.3       8 UNK        -0.1800 
     34 N           2.3402  -18.5902  -41.2210 N.am      8 UNK        -0.5000 
     35 C           2.6010  -18.4889  -42.5308 C.2       7 UNK         0.5000 
     36 O           2.6458  -17.4134  -43.1299 O.2       7 UNK        -0.5000 
     37 CA          2.8320  -19.8094  -43.2878 C.3       7 UNK         0.1400 
     38 CB          1.6008  -20.7319  -43.2080 C.3       7 UNK        -0.1800 
     39 N           3.0985  -19.5257  -44.6942 N.am      7 UNK        -0.5000 
     40 C           4.1363  -19.9673  -45.4135 C.2       6 UNK         0.5000 
     41 O           5.0081  -20.7129  -44.9646 O.2       6 UNK        -0.5000 
     42 CA          4.2081  -19.5251  -46.8925 C.3       6 UNK         0.1400 
     43 CB          4.0534  -20.7384  -47.8245 C.3       6 UNK        -0.1800 
     44 N           3.1800  -18.5441  -47.2463 N.am      6 UNK        -0.5000 
     45 C           3.2470  -17.2299  -47.0050 C.2       5 UNK         0.5000 
     46 O           4.2323  -16.6645  -46.5274 O.2       5 UNK        -0.5000 
     47 CA          1.9518  -16.4538  -47.2954 C.3       5 UNK         0.1400 
     48 CB          0.9549  -16.6508  -46.1427 C.3       5 UNK        -0.1800 
     49 N           2.1566  -15.0236  -47.4936 N.am      5 UNK        -0.5000 
     50 C           2.7323  -14.4693  -48.5671 C.2       4 UNK         0.5000 
     51 O           3.1901  -15.1170  -49.5095 O.2       4 UNK        -0.5000 
     52 CA          2.7827  -12.9334  -48.6121 C.3       4 UNK         0.1400 
     53 CB          1.4486  -12.3752  -49.1346 C.3       4 UNK        -0.1800 
     54 N           3.0470  -12.3614  -47.2919 N.am      4 UNK        -0.5000 
     55 C           4.1725  -11.7250  -46.9404 C.2       3 UNK         0.5000 
     56 O           5.1241  -11.5442  -47.7015 O.2       3 UNK        -0.5000 
     57 CA          4.2547  -11.1811  -45.4986 C.3       3 UNK         0.1400 
     58 CB          3.8777   -9.6920  -45.4663 C.3       3 UNK        -0.1800 
     59 N           3.3977  -11.9046  -44.5594 N.am      3 UNK        -0.5000 
     60 C           3.6237  -13.1528  -44.1291 C.2       2 UNK         0.5000 
     61 O           4.6429  -13.7879  -44.3985 O.2       2 UNK        -0.5000 
     62 CA          2.5328  -13.8049  -43.2555 C.3       2 UNK         0.1400 
     63 CB          2.9537  -13.7735  -41.7786 C.3       2 UNK        -0.1800 
     64 N           1.1944  -13.2133  -43.3724 N.am      2 UNK        -0.5000 
     65 C           0.4547  -13.1081  -44.4846 C.2       1 UNK         0.5000 
     66 O           0.8846  -13.4016  -45.6006 O.2       1 UNK        -0.5000 
     67 C          -2.4079  -21.9436  -47.2812 C.2       11 UNK         0.5000 
     68 O          -1.9025  -23.0117  -47.6191 O.2       11 UNK        -0.5000 
     69 N          -3.6907  -21.6407  -47.5284 N.am      12 UNK        -0.5000 
     70 CA         -4.6402  -22.4959  -48.2531 C.3       12 UNK         0.1400 
     71 CB         -5.9810  -21.7590  -48.3827 C.3       12 UNK        -0.1800 
     72 C          -4.8570  -23.8968  -47.6442 C.2       12 UNK         0.5000 
     73 O          -5.2472  -24.8171  -48.3614 O.2       12 UNK        -0.5000 
     74 N          -4.5822  -24.0414  -46.3421 N.am      13 UNK        -0.5000 
     75 CA         -4.6074  -25.3141  -45.6242 C.3       13 UNK         0.1400 
     76 CB         -4.6325  -25.0224  -44.1155 C.3       13 UNK        -0.1800 
     77 C          -3.4271  -26.2472  -45.9711 C.2       13 UNK         0.5000 
     78 O          -3.5191  -27.4438  -45.6930 O.2       13 UNK        -0.5000 
     79 N          -2.3362  -25.7045  -46.5351 N.am      14 UNK        -0.5000 
     80 CA         -1.1127  -26.4517  -46.8301 C.3       14 UNK         0.1400 
     81 CB          0.0620  -25.4767  -47.0125 C.3       14 UNK        -0.1800 
     82 C          -1.2470  -27.3662  -48.0592 C.2       14 UNK         0.5000 
     83 O          -0.7486  -28.4923  -48.0260 O.2       14 UNK        -0.5000 
     84 N          -1.9066  -26.8752  -49.1159 N.am      15 UNK        -0.5000 
     85 CA         -2.0777  -27.5620  -50.3933 C.3       15 UNK         0.1400 
     86 CB         -0.7314  -27.6409  -51.1439 C.3       15 UNK        -0.1800 
     87 C          -3.0968  -26.8051  -51.2519 C.2       15 UNK         0.5000 
     88 O          -3.2875  -25.6013  -51.0635 O.2       15 UNK        -0.5000 
     89 N          -3.6693  -27.5016  -52.2425 N.am      16 UNK        -0.5000 
     90 CA         -4.5584  -26.9259  -53.2568 C.3       16 UNK         0.1400 
     91 CB         -5.1465  -28.0525  -54.1187 C.3       16 UNK        -0.1800 
     92 C          -3.8603  -25.8753  -54.1431 C.2       16 UNK         0.5000 
     93 O          -4.4956  -24.9044  -54.5510 O.2       16 UNK        -0.5000 
     94 N          -2.5531  -26.0567  -54.3796 N.am      17 UNK        -0.5000 
     95 CA         -1.6944  -25.0978  -55.0770 C.3       17 UNK         0.1400 
     96 CB         -0.3362  -25.7538  -55.3662 C.3       17 UNK        -0.1800 
     97 C          -1.5049  -23.7868  -54.2899 C.2       17 UNK         0.5000 
     98 O          -1.4219  -22.7209  -54.8985 O.2       17 UNK        -0.5000 
     99 N          -1.4717  -23.8837  -52.9532 N.am      18 UNK        -0.5000 
    100 CA        -1.4165  -22.7364  -52.0496 C.3       18 UNK         0.1400 
    101 CB        -0.8886  -23.1833  -50.6793 C.3       18 UNK        -0.1800 
    102 C         -2.7885  -22.0492  -51.9345 C.2       18 UNK         0.5000 
    103 O         -2.8465  -20.8229  -51.8799 O.2       18 UNK        -0.5000 
    104 N         -3.8759  -22.8335  -51.9604 N.am      19 UNK        -0.5000 
    105 CA        -5.2495  -22.3261  -52.0167 C.3       19 UNK         0.1400 
    106 CB        -6.2442  -23.4783  -51.8192 C.3       19 UNK        -0.1800 
    107 C         -5.5390  -21.5545  -53.3172 C.2       19 UNK         0.5000 
    108 O         -6.1727  -20.5015  -53.2695 O.2       19 UNK        -0.5000 
    109 N         -5.0131  -22.0506  -54.4449 N.am      20 UNK        -0.5000 
    110 CA        -5.0561  -21.3858  -55.7492 C.3       20 UNK         0.1400 
    111 CB        -4.5804  -22.3693  -56.8292 C.3       20 UNK        -0.1800 
    112 C         -4.2349  -20.0798  -55.8052 C.2       20 UNK         0.5000 
    113 O         -4.5393  -19.2130  -56.6248 O.2       20 UNK        -0.5000 
    114 N         -3.2235  -19.9528  -54.9348 N.am      21 UNK        -0.5000 
    115 CA        -2.3764  -18.7667  -54.7986 C.3       21 UNK         0.1400 
    116 CB        -0.9952  -19.1920  -54.2723 C.3       21 UNK        -0.1800 
    117 C         -2.9953  -17.6724  -53.9031 C.2       21 UNK         0.5000 
    118 O         -2.4348  -16.5776  -53.8358 O.2       21 UNK        -0.5000 
    119 N         -4.1201  -17.9674  -53.2351 N.am      22 UNK        -0.5000 
    120 CA        -4.8988  -17.0170  -52.4272 C.3       22 UNK         0.1400 
    121 C         -5.4487  -15.8331  -53.2759 C.2       22 UNK         0.5000 
    122 N         -5.2946  -14.5994  -52.8145 N.am      22 UNK        -0.7600 
    123 O         -6.0419  -16.0290  -54.3345 O.2       22 UNK        -0.5000 
    124 C124       -6.0383  -17.7490  -51.6733 C.3       23 UNK        -0.0398 
    125 S125       -6.7562  -16.7618  -50.3141 S.3       23 UNK        -0.2404 
    126 C126       -6.0658  -17.5755  -48.8414 C.3       23 UNK        -0.0205 
    127 H127       -2.8944  -12.5769  -40.2417 H         1 UNK         0.0600 
    128 H128       -1.7672  -13.9314  -40.1191 H         1 UNK         0.0600 
    129 H129       -3.1202  -14.0060  -41.2526 H         1 UNK         0.0600 
    130 H130       -2.3981  -13.7557  -43.3490 H         1 UNK         0.3000 
    131 H131       -0.8616  -11.4831  -44.1890 H         1 UNK         0.0600 
    132 H132       -2.7408  -12.1068  -45.5227 H         1 UNK         0.0800 
    133 H133       -1.3244  -12.3634  -46.4871 H         1 UNK         0.0800 
    134 H134       -2.6175  -13.8275  -48.2131 H         1 UNK         0.0800 
    135 H135       -1.0607  -14.5520  -47.8755 H         1 UNK         0.0800 
    136 H136       -4.7235  -15.3739  -47.9953 H         1 UNK         0.1150 
    137 H137       -4.0730  -19.3491  -49.4614 H         1 UNK         0.1150 
    138 H138       -0.7366  -16.8407  -48.5027 H         1 UNK         0.1150 
    139 H139       -1.8958  -20.3166  -49.4522 H         1 UNK         0.0800 
    140 H140       -1.0822  -19.1659  -50.4629 H         1 UNK         0.0800 
    141 H141        0.5189  -20.3942  -46.2706 H         1 UNK         0.0800 
    142 H142        0.3032  -21.6822  -47.3905 H         1 UNK         0.0800 
    143 H143       -1.3909  -21.4240  -45.5391 H         1 UNK         0.0600 
    144 H144       -1.8710  -18.8605  -46.7134 H         1 UNK         0.3000 
    145 H145       -3.0155  -17.3690  -45.7102 H         1 UNK         0.0600 
    146 H146       -5.2697  -16.7350  -45.0238 H         1 UNK         0.0600 
    147 H147       -5.3938  -18.1963  -45.9901 H         1 UNK         0.0600 
    148 H148       -5.5369  -18.2956  -44.2420 H         1 UNK         0.0600 
    149 H149       -3.7405  -17.1370  -43.0397 H         1 UNK         0.3000 
    150 H150       -1.5110  -15.9389  -41.8518 H         1 UNK         0.0600 
    151 H151       -2.6453  -18.5617  -40.6999 H         1 UNK         0.0600 
    152 H152       -3.5519  -17.0763  -40.9814 H         1 UNK         0.0600 
    153 H153       -2.3136  -17.1188  -39.7444 H         1 UNK         0.0600 
    154 H154        0.1638  -18.2606  -41.8832 H         1 UNK         0.3000 
    155 H155        2.7808  -16.6732  -40.5253 H         1 UNK         0.0600 
    156 H156        1.5223  -18.7170  -38.6180 H         1 UNK         0.0600 
    157 H157        2.0671  -17.1032  -38.1772 H         1 UNK         0.0600 
    158 H158        3.2357  -18.3026  -38.7025 H         1 UNK         0.0600 
    159 H159        2.3194  -19.5062  -40.7960 H         1 UNK         0.3000 
    160 H160        3.6869  -20.3080  -42.8267 H         1 UNK         0.0600 
    161 H161        1.7666  -21.6532  -43.7669 H         1 UNK         0.0600 
    162 H162        0.7107  -20.2532  -43.6176 H         1 UNK         0.0600 
    163 H163        1.3786  -21.0184  -42.1798 H         1 UNK         0.0600 
    164 H164        2.4951  -18.8292  -45.1067 H         1 UNK         0.3000 
    165 H165        5.1940  -19.0861  -47.0584 H         1 UNK         0.0600 
    166 H166        4.8272  -21.4827  -47.6322 H         1 UNK         0.0600 
    167 H167        3.0873  -21.2274  -47.6921 H         1 UNK         0.0600 
    168 H168        4.1402  -20.4457  -48.8711 H         1 UNK         0.0600 
    169 H169        2.3327  -18.9199  -47.6524 H         1 UNK         0.3000 
    170 H170        1.5183  -16.8537  -48.2130 H         1 UNK         0.0600 
    171 H171        0.7134  -17.7040  -46.0008 H         1 UNK         0.0600 
    172 H172        1.3522  -16.2765  -45.1995 H         1 UNK         0.0600 
    173 H173        0.0174  -16.1312  -46.3274 H         1 UNK         0.0600 
    174 H174        1.7836  -14.4195  -46.7657 H         1 UNK         0.3000 
    175 H175        3.5656  -12.6513  -49.3190 H         1 UNK         0.0600 
    176 H176        1.4905  -11.2909  -49.2375 H         1 UNK         0.0600 
    177 H177        1.2094  -12.7865  -50.1161 H         1 UNK         0.0600 
    178 H178        0.6208  -12.6155  -48.4661 H         1 UNK         0.0600 
    179 H179        2.3299  -12.5081  -46.5897 H         1 UNK         0.3000 
    180 H180        5.2903  -11.2789  -45.1663 H         1 UNK         0.0600 
    181 H181        2.8450   -9.5313  -45.7783 H         1 UNK         0.0600 
    182 H182        4.5163   -9.1130  -46.1347 H         1 UNK         0.0600 
    183 H183        3.9959   -9.2763  -44.4654 H         1 UNK         0.0600 
    184 H184        2.5436  -11.4489  -44.2746 H         1 UNK         0.3000 
    185 H185        2.4519  -14.8456  -43.5700 H         1 UNK         0.0600 
    186 H186        3.9025  -14.2910  -41.6311 H         1 UNK         0.0600 
    187 H187        3.0745  -12.7513  -41.4183 H         1 UNK         0.0600 
    188 H188        2.2153  -14.2631  -41.1459 H         1 UNK         0.0600 
    189 H189        0.7696  -12.8844  -42.5112 H         1 UNK         0.3000 
    190 H190       -4.0434  -20.7623  -47.1794 H         1 UNK         0.3000 
    191 H191       -4.2316  -22.6538  -49.2509 H         1 UNK         0.0600 
    192 H192       -6.3882  -21.4887  -47.4077 H         1 UNK         0.0600 
    193 H193       -5.8724  -20.8493  -48.9688 H         1 UNK         0.0600 
    194 H194       -6.7236  -22.3775  -48.8888 H         1 UNK         0.0600 
    195 H195       -4.2771  -23.2308  -45.8231 H         1 UNK         0.3000 
    196 H196       -5.5282  -25.8399  -45.8853 H         1 UNK         0.0600 
    197 H197       -4.6850  -25.9466  -43.5384 H         1 UNK         0.0600 
    198 H198       -5.5011  -24.4221  -43.8438 H         1 UNK         0.0600 
    199 H199       -3.7388  -24.4853  -43.7949 H         1 UNK         0.0600 
    200 H200       -2.3324  -24.7194  -46.7815 H         1 UNK         0.3000 
    201 H201       -0.8856  -27.0832  -45.9682 H         1 UNK         0.0600 
    202 H202        1.0024  -26.0189  -47.1182 H         1 UNK         0.0600 
    203 H203       -0.0576  -24.8599  -47.9041 H         1 UNK         0.0600 
    204 H204        0.1636  -24.8117  -46.1547 H         1 UNK         0.0600 
    205 H205       -2.3326  -25.9578  -49.0679 H         1 UNK         0.3000 
    206 H206       -2.4594  -28.5675  -50.2061 H         1 UNK         0.0600 
    207 H207        0.0009  -28.2345  -50.5974 H         1 UNK         0.0600 
    208 H208       -0.8483  -28.1092  -52.1218 H         1 UNK         0.0600 
    209 H209       -0.3031  -26.6503  -51.3026 H         1 UNK         0.0600 
    210 H210       -3.4578  -28.4846  -52.3375 H         1 UNK         0.3000 
    211 H211       -5.3798  -26.4291  -52.7375 H         1 UNK         0.0600 
    212 H212       -4.3685  -28.6065  -54.6452 H         1 UNK         0.0600 
    213 H213       -5.8301  -27.6529  -54.8691 H         1 UNK         0.0600 
    214 H214       -5.7112  -28.7600  -53.5113 H         1 UNK         0.0600 
    215 H215       -2.1106  -26.8897  -54.0219 H         1 UNK         0.3000 
    216 H216       -2.1659  -24.8488  -56.0302 H         1 UNK         0.0600 
    217 H217        0.3211  -25.0687  -55.9033 H         1 UNK         0.0600 
    218 H218       -0.4518  -26.6435  -55.9854 H         1 UNK         0.0600 
    219 H219        0.1745  -26.0467  -54.4479 H         1 UNK         0.0600 
    220 H220       -1.6005  -24.7886  -52.5256 H         1 UNK         0.3000 
    221 H221       -0.7108  -22.0084  -52.4557 H         1 UNK         0.0600 
    222 H222       -1.5851  -23.8479  -50.1694 H         1 UNK         0.0600 
    223 H223        0.0638  -23.7051  -50.7717 H         1 UNK         0.0600 
    224 H224       -0.7212  -22.3248  -50.0297 H         1 UNK         0.0600 
    225 H225       -3.7524  -23.8402  -51.9360 H         1 UNK         0.3000 
    226 H226       -5.3753  -21.6237  -51.1921 H         1 UNK         0.0600 
    227 H227       -7.2616  -23.0979  -51.7231 H         1 UNK         0.0600 
    228 H228       -6.2346  -24.1703  -52.6602 H         1 UNK         0.0600 
    229 H229       -6.0210  -24.0458  -50.9158 H         1 UNK         0.0600 
    230 H230       -4.5736  -22.9661  -54.4146 H         1 UNK         0.3000 
    231 H231       -6.0960  -21.1272  -55.9589 H         1 UNK         0.0600 
    232 H232       -3.5469  -22.6755  -56.6661 H         1 UNK         0.0600 
    233 H233       -4.6373  -21.9193  -57.8211 H         1 UNK         0.0600 
    234 H234       -5.1973  -23.2681  -56.8439 H         1 UNK         0.0600 
    235 H235       -3.0375  -20.7114  -54.2933 H         1 UNK         0.3000 
    236 H236       -2.2305  -18.3272  -55.7875 H         1 UNK         0.0600 
    237 H237       -0.5574  -19.9732  -54.8939 H         1 UNK         0.0600 
    238 H238       -0.3024  -18.3498  -54.2746 H         1 UNK         0.0600 
    239 H239       -1.0461  -19.5646  -53.2500 H         1 UNK         0.0600 
    240 H240       -4.5241  -18.8861  -53.3567 H         1 UNK         0.3000 
    241 H241       -4.2081  -16.6157  -51.6827 H         1 UNK         0.0600 
    242 H242       -4.8270  -14.4212  -51.9394 H         1 UNK         0.3800 
    243 H243       -5.6570  -13.8257  -53.3494 H         1 UNK         0.3800 
    244 H244       -5.6700  -18.6889  -51.2611 H         1 UNK         0.0800 
    245 H245       -6.8393  -18.0253  -52.3610 H         1 UNK         0.0800 
    246 H246       -6.3292  -18.6320  -48.8515 H         1 UNK         0.0800 
    247 H247       -6.5450  -17.1542  -47.9566 H         1 UNK         0.0800 
@<TRIPOS>BOND
     1    1    2 1    
     2    1  127 1    
     3    1  128 1    
     4    1  129 1    
     5    2    3 2    
     6    2    4 am   BACKBONE|DICT|INTERRES
     7    4    5 1    
     8    4  130 1    
     9    5    6 1    
    10    5   65 1    
    11    5  131 1    
    12    6    7 1    
    13    6  132 1    
    14    6  133 1    
    15    7    8 1    
    16    8    9 1    
    17    8  134 1    
    18    8  135 1    
    19    9   10 ar   
    20    9   14 ar   
    21   10   11 ar   
    22   10  136 1    
    23   11   12 ar   
    24   11  126 1    
    25   12   13 ar   
    26   12  137 1    
    27   13   14 ar   
    28   13   15 1    
    29   14  138 1    
    30   15   16 1    
    31   15  139 1    
    32   15  140 1    
    33   16   17 1    
    34   17   18 1    
    35   17  141 1    
    36   17  142 1    
    37   18   19 1    
    38   18   67 1    
    39   18  143 1    
    40   19   20 am   BACKBONE|DICT|INTERRES
    41   19  144 1    
    42   20   21 2    
    43   20   22 1    
    44   22   23 1    
    45   22   24 1    
    46   22  145 1    
    47   23  146 1    
    48   23  147 1    
    49   23  148 1    
    50   24   25 am   BACKBONE|DICT|INTERRES
    51   24  149 1    
    52   25   26 2    
    53   25   27 1    
    54   27   28 1    
    55   27   29 1    
    56   27  150 1    
    57   28  151 1    
    58   28  152 1    
    59   28  153 1    
    60   29   30 am   BACKBONE|DICT|INTERRES
    61   29  154 1    
    62   30   31 2    
    63   30   32 1    
    64   32   33 1    
    65   32   34 1    
    66   32  155 1    
    67   33  156 1    
    68   33  157 1    
    69   33  158 1    
    70   34   35 am   BACKBONE|DICT|INTERRES
    71   34  159 1    
    72   35   36 2    
    73   35   37 1    
    74   37   38 1    
    75   37   39 1    
    76   37  160 1    
    77   38  161 1    
    78   38  162 1    
    79   38  163 1    
    80   39   40 am   BACKBONE|DICT|INTERRES
    81   39  164 1    
    82   40   41 2    
    83   40   42 1    
    84   42   43 1    
    85   42   44 1    
    86   42  165 1    
    87   43  166 1    
    88   43  167 1    
    89   43  168 1    
    90   44   45 am   BACKBONE|DICT|INTERRES
    91   44  169 1    
    92   45   46 2    
    93   45   47 1    
    94   47   48 1    
    95   47   49 1    
    96   47  170 1    
    97   48  171 1    
    98   48  172 1    
    99   48  173 1    
   100   49   50 am   BACKBONE|DICT|INTERRES
   101   49  174 1    
   102   50   51 2    
   103   50   52 1    
   104   52   53 1    
   105   52   54 1    
   106   52  175 1    
   107   53  176 1    
   108   53  177 1    
   109   53  178 1    
   110   54   55 am   BACKBONE|DICT|INTERRES
   111   54  179 1    
   112   55   56 2    
   113   55   57 1    
   114   57   58 1    
   115   57   59 1    
   116   57  180 1    
   117   58  181 1    
   118   58  182 1    
   119   58  183 1    
   120   59   60 am   BACKBONE|DICT|INTERRES
   121   59  184 1    
   122   60   61 2    
   123   60   62 1    
   124   62   63 1    
   125   62   64 1    
   126   62  185 1    
   127   63  186 1    
   128   63  187 1    
   129   63  188 1    
   130   64   65 am   BACKBONE|DICT|INTERRES
   131   64  189 1    
   132   65   66 2    
   133   67   68 2    
   134   67   69 am   BACKBONE|DICT|INTERRES
   135   69   70 1    
   136   69  190 1    
   137   70   71 1    
   138   70   72 1    
   139   70  191 1    
   140   71  192 1    
   141   71  193 1    
   142   71  194 1    
   143   72   73 2    
   144   72   74 am   BACKBONE|DICT|INTERRES
   145   74   75 1    
   146   74  195 1    
   147   75   76 1    
   148   75   77 1    
   149   75  196 1    
   150   76  197 1    
   151   76  198 1    
   152   76  199 1    
   153   77   78 2    
   154   77   79 am   BACKBONE|DICT|INTERRES
   155   79   80 1    
   156   79  200 1    
   157   80   81 1    
   158   80   82 1    
   159   80  201 1    
   160   81  202 1    
   161   81  203 1    
   162   81  204 1    
   163   82   83 2    
   164   82   84 am   BACKBONE|DICT|INTERRES
   165   84   85 1    
   166   84  205 1    
   167   85   86 1    
   168   85   87 1    
   169   85  206 1    
   170   86  207 1    
   171   86  208 1    
   172   86  209 1    
   173   87   88 2    
   174   87   89 am   BACKBONE|DICT|INTERRES
   175   89   90 1    
   176   89  210 1    
   177   90   91 1    
   178   90   92 1    
   179   90  211 1    
   180   91  212 1    
   181   91  213 1    
   182   91  214 1    
   183   92   93 2    
   184   92   94 am   BACKBONE|DICT|INTERRES
   185   94   95 1    
   186   94  215 1    
   187   95   96 1    
   188   95   97 1    
   189   95  216 1    
   190   96  217 1    
   191   96  218 1    
   192   96  219 1    
   193   97   98 2    
   194   97   99 am   BACKBONE|DICT|INTERRES
   195   99  100 1    
   196   99  220 1    
   197  100  101 1    
   198  100  102 1    
   199  100  221 1    
   200  101  222 1    
   201  101  223 1    
   202  101  224 1    
   203  102  103 2    
   204  102  104 am   BACKBONE|DICT|INTERRES
   205  104  105 1    
   206  104  225 1    
   207  105  106 1    
   208  105  107 1    
   209  105  226 1    
   210  106  227 1    
   211  106  228 1    
   212  106  229 1    
   213  107  108 2    
   214  107  109 am   BACKBONE|DICT|INTERRES
   215  109  110 1    
   216  109  230 1    
   217  110  111 1    
   218  110  112 1    
   219  110  231 1    
   220  111  232 1    
   221  111  233 1    
   222  111  234 1    
   223  112  113 2    
   224  112  114 am   BACKBONE|DICT|INTERRES
   225  114  115 1    
   226  114  235 1    
   227  115  116 1    
   228  115  117 1    
   229  115  236 1    
   230  116  237 1    
   231  116  238 1    
   232  116  239 1    
   233  117  118 2    
   234  117  119 am   BACKBONE|DICT|INTERRES
   235  119  120 1    
   236  119  240 1    
   237  120  121 1    
   238  120  124 1    
   239  120  241 1    
   240  121  122 am   BACKBONE|DICT|INTERRES
   241  121  123 2    
   242  122  242 1    
   243  122  243 1    
   244  124  125 1    
   245  124  244 1    
   246  124  245 1    
   247  125  126 1    
   248  126  246 1    
   249  126  247 1    
@<TRIPOS>SUBSTRUCTURE
     1 UNK         1 GROUP             0       ****    0 ROOT    
