@<TRIPOS>MOLECULE
3R540
247   249    1
SMALL
USER_CHARGES


@<TRIPOS>ATOM
      1 CA          6.4960  -15.1145  -45.3266 C.3       0 UNK        -0.1800 
      2 C           5.5299  -14.0104  -44.9254 C.2       0 UNK         0.5000 
      3 O           5.5087  -13.6064  -43.7632 O.2       0 UNK        -0.5000 
      4 N           4.7419  -13.5059  -45.8845 N.am      1 UNK        -0.5000 
      5 CA          3.6866  -12.5020  -45.6754 C.3       1 UNK         0.1400 
      6 C6          2.8004  -12.3090  -46.9261 C.3       23 UNK        -0.0398 
      7 S7          1.9025  -13.8364  -47.3566 S.3       23 UNK        -0.2404 
      8 C8          2.6916  -14.2788  -48.9324 C.3       23 UNK        -0.0205 
      9 C9          2.0708  -15.5306  -49.5304 C.ar      23 UNK        -0.0193 
     10 C10         0.8347  -15.4535  -50.1783 C.ar      23 UNK        -0.1150 
     11 C11         0.2609  -16.5917  -50.7496 C.ar      23 UNK        -0.0193 
     12 C12         0.9440  -17.8084  -50.6901 C.ar      23 UNK        -0.1150 
     13 C13         2.1784  -17.9021  -50.0408 C.ar      23 UNK        -0.0193 
     14 C14         2.7339  -16.7599  -49.4552 C.ar      23 UNK        -0.1150 
     15 C15         2.9221  -19.2303  -49.9978 C.3       23 UNK        -0.0205 
     16 S16         2.4843  -20.2256  -48.5371 S.3       23 UNK        -0.2404 
     17 C17         0.7695  -20.7014  -48.9315 C.3       23 UNK        -0.0398 
     18 CA          0.2374  -21.8353  -48.0248 C.3       11 UNK         0.1400 
     19 N           0.0597  -21.4145  -46.6303 N.am      11 UNK        -0.5000 
     20 C          -0.2694  -22.2361  -45.6223 C.2       10 UNK         0.5000 
     21 O          -0.3951  -23.4535  -45.7492 O.2       10 UNK        -0.5000 
     22 CA         -0.5726  -21.5892  -44.2578 C.3       10 UNK         0.1400 
     23 CB          0.7203  -21.2460  -43.5035 C.3       10 UNK        -0.1800 
     24 N          -1.4133  -20.3977  -44.3806 N.am      10 UNK        -0.5000 
     25 C          -2.6696  -20.4028  -44.8491 C.2       9 UNK         0.5000 
     26 O          -3.2750  -21.4249  -45.1676 O.2       9 UNK        -0.5000 
     27 CA         -3.3478  -19.0365  -45.0473 C.3       9 UNK         0.1400 
     28 CB         -3.9885  -18.5386  -43.7430 C.3       9 UNK        -0.1800 
     29 N          -2.4184  -18.0320  -45.5611 N.am      9 UNK        -0.5000 
     30 C          -1.8789  -18.0576  -46.7883 C.2       8 UNK         0.5000 
     31 O          -2.1423  -18.9108  -47.6363 O.2       8 UNK        -0.5000 
     32 CA         -0.8360  -16.9694  -47.0962 C.3       8 UNK         0.1400 
     33 CB         -1.5352  -15.6608  -47.4931 C.3       8 UNK        -0.1800 
     34 N           0.0686  -16.7312  -45.9684 N.am      8 UNK        -0.5000 
     35 C           0.9367  -17.6451  -45.5061 C.2       7 UNK         0.5000 
     36 O           1.0600  -18.7663  -45.9931 O.2       7 UNK        -0.5000 
     37 CA          1.7528  -17.2881  -44.2477 C.3       7 UNK         0.1400 
     38 CB          3.0346  -16.5383  -44.6318 C.3       7 UNK        -0.1800 
     39 N           1.0007  -16.4970  -43.2742 N.am      7 UNK        -0.5000 
     40 C          -0.1617  -16.8714  -42.7173 C.2       6 UNK         0.5000 
     41 O          -0.6582  -17.9861  -42.8789 O.2       6 UNK        -0.5000 
     42 CA         -0.9316  -15.8240  -41.8850 C.3       6 UNK         0.1400 
     43 CB         -0.7776  -16.1154  -40.3851 C.3       6 UNK        -0.1800 
     44 N          -0.5287  -14.4391  -42.1404 N.am      6 UNK        -0.5000 
     45 C          -0.5585  -13.8082  -43.3238 C.2       5 UNK         0.5000 
     46 O          -1.0361  -14.3005  -44.3463 O.2       5 UNK        -0.5000 
     47 CA          0.1163  -12.4221  -43.3908 C.3       5 UNK         0.1400 
     48 CB         -0.9420  -11.3099  -43.4181 C.3       5 UNK        -0.1800 
     49 N           1.0680  -12.1500  -42.3037 N.am      5 UNK        -0.5000 
     50 C           2.1777  -12.8551  -42.0425 C.2       4 UNK         0.5000 
     51 O           2.5030  -13.8719  -42.6573 O.2       4 UNK        -0.5000 
     52 CA          3.0371  -12.3796  -40.8677 C.3       4 UNK         0.1400 
     53 CB          2.9696  -13.3836  -39.7019 C.3       4 UNK        -0.1800 
     54 N           4.4139  -12.2118  -41.3207 N.am      4 UNK        -0.5000 
     55 C           5.3270  -11.4464  -40.7086 C.2       3 UNK         0.5000 
     56 O           5.1108  -10.8220  -39.6689 O.2       3 UNK        -0.5000 
     57 CA          6.7030  -11.3304  -41.3826 C.3       3 UNK         0.1400 
     58 CB          7.5287  -12.6123  -41.1857 C.3       3 UNK        -0.1800 
     59 N           6.5562  -11.0463  -42.8087 N.am      3 UNK        -0.5000 
     60 C           6.4596   -9.8135  -43.3283 C.2       2 UNK         0.5000 
     61 O           6.5612   -8.7826  -42.6619 O.2       2 UNK        -0.5000 
     62 CA          6.2066   -9.7009  -44.8461 C.3       2 UNK         0.1400 
     63 CB          7.5335   -9.5263  -45.6005 C.3       2 UNK        -0.1800 
     64 N           5.4958  -10.8546  -45.3968 N.am      2 UNK        -0.5000 
     65 C           4.2101  -11.1461  -45.1547 C.2       1 UNK         0.5000 
     66 O           3.4526  -10.4104  -44.5214 O.2       1 UNK        -0.5000 
     67 C          -1.0610  -22.4226  -48.6143 C.2       11 UNK         0.5000 
     68 O          -1.0088  -23.4659  -49.2654 O.2       11 UNK        -0.5000 
     69 N          -2.2042  -21.7693  -48.3597 N.am      12 UNK        -0.5000 
     70 CA         -3.5232  -22.2342  -48.7896 C.3       12 UNK         0.1400 
     71 CB         -4.5752  -21.1487  -48.5244 C.3       12 UNK        -0.1800 
     72 C          -3.9249  -23.5740  -48.1461 C.2       12 UNK         0.5000 
     73 O          -4.4115  -24.4600  -48.8495 O.2       12 UNK        -0.5000 
     74 N          -3.6683  -23.7164  -46.8389 N.am      13 UNK        -0.5000 
     75 CA         -3.8831  -24.9468  -46.0766 C.3       13 UNK         0.1400 
     76 CB         -3.6883  -24.6634  -44.5796 C.3       13 UNK        -0.1800 
     77 C          -2.9771  -26.1053  -46.5333 C.2       13 UNK         0.5000 
     78 O          -3.4296  -27.2498  -46.5539 O.2       13 UNK        -0.5000 
     79 N          -1.7279  -25.7918  -46.9053 N.am      14 UNK        -0.5000 
     80 CA         -0.7708  -26.7427  -47.4709 C.3       14 UNK         0.1400 
     81 CB          0.6360  -26.1252  -47.4704 C.3       14 UNK        -0.1800 
     82 C          -1.1660  -27.2069  -48.8850 C.2       14 UNK         0.5000 
     83 O          -1.0115  -28.3889  -49.1952 O.2       14 UNK        -0.5000 
     84 N          -1.6746  -26.2785  -49.7090 N.am      15 UNK        -0.5000 
     85 CA         -2.1887  -26.5496  -51.0518 C.3       15 UNK         0.1400 
     86 CB         -2.4282  -25.2240  -51.7943 C.3       15 UNK        -0.1800 
     87 C          -3.4655  -27.4096  -51.0216 C.2       15 UNK         0.5000 
     88 O          -3.5273  -28.4254  -51.7144 O.2       15 UNK        -0.5000 
     89 N          -4.4472  -26.9867  -50.2091 N.am      16 UNK        -0.5000 
     90 CA         -5.7194  -27.6585  -49.9013 C.3       16 UNK         0.1400 
     91 CB         -5.4573  -28.9782  -49.1464 C.3       16 UNK        -0.1800 
     92 C          -6.6744  -27.8650  -51.1015 C.2       16 UNK         0.5000 
     93 O          -7.6554  -28.6011  -50.9772 O.2       16 UNK        -0.5000 
     94 N          -6.3872  -27.2183  -52.2366 N.am      17 UNK        -0.5000 
     95 CA         -7.1821  -27.2661  -53.4624 C.3       17 UNK         0.1400 
     96 CB         -6.2515  -26.9454  -54.6452 C.3       17 UNK        -0.1800 
     97 C          -8.3636  -26.2789  -53.4140 C.2       17 UNK         0.5000 
     98 O          -8.4466  -25.4500  -52.5043 O.2       17 UNK        -0.5000 
     99 N          -9.2372  -26.3499  -54.4281 N.am      18 UNK        -0.5000 
    100 CA       -10.2592  -25.3371  -54.7053 C.3       18 UNK         0.1400 
    101 CB       -11.1761  -25.8325  -55.8338 C.3       18 UNK        -0.1800 
    102 C         -9.5873  -24.0042  -55.0863 C.2       18 UNK         0.5000 
    103 O         -8.6605  -24.0104  -55.8999 O.2       18 UNK        -0.5000 
    104 N        -10.0075  -22.9091  -54.4384 N.am      19 UNK        -0.5000 
    105 CA        -9.4122  -21.5602  -54.4370 C.3       19 UNK         0.1400 
    106 CB        -9.3488  -20.9537  -55.8524 C.3       19 UNK        -0.1800 
    107 C         -8.0424  -21.4740  -53.7245 C.2       19 UNK         0.5000 
    108 O         -7.7846  -20.4800  -53.0449 O.2       19 UNK        -0.5000 
    109 N         -7.2241  -22.5268  -53.8528 N.am      20 UNK        -0.5000 
    110 CA        -5.9264  -22.7579  -53.2174 C.3       20 UNK         0.1400 
    111 CB        -6.0841  -22.8547  -51.6839 C.3       20 UNK        -0.1800 
    112 C         -4.8454  -21.7523  -53.6666 C.2       20 UNK         0.5000 
    113 O         -4.9472  -21.1757  -54.7541 O.2       20 UNK        -0.5000 
    114 N         -3.7987  -21.5979  -52.8438 N.am      21 UNK        -0.5000 
    115 CA        -2.6675  -20.7007  -53.0739 C.3       21 UNK         0.1400 
    116 CB        -1.6517  -20.8605  -51.9330 C.3       21 UNK        -0.1800 
    117 C         -3.1228  -19.2360  -53.2035 C.2       21 UNK         0.5000 
    118 O         -3.8678  -18.7519  -52.3492 O.2       21 UNK        -0.5000 
    119 N         -2.6771  -18.5814  -54.2810 N.am      22 UNK        -0.5000 
    120 CA        -3.0728  -17.2253  -54.7034 C.3       22 UNK         0.1400 
    121 C         -4.5435  -17.1073  -55.2157 C.2       22 UNK         0.5000 
    122 N         -5.2787  -18.1952  -55.4191 N.am      22 UNK        -0.7600 
    123 O         -5.0220  -16.0055  -55.4719 O.2       22 UNK        -0.5000 
    124 C124       -2.7203  -16.1137  -53.6720 C.3       23 UNK        -0.0398 
    125 S125       -0.9603  -16.1109  -53.1812 S.3       23 UNK        -0.2404 
    126 C126       -1.1029  -16.5115  -51.4135 C.3       23 UNK        -0.0205 
    127 H127        6.3028  -16.0104  -44.7366 H         1 UNK         0.0600 
    128 H128        7.5229  -14.7988  -45.1436 H         1 UNK         0.0600 
    129 H129        6.3999  -15.3744  -46.3810 H         1 UNK         0.0600 
    130 H130        4.8091  -13.8770  -46.8203 H         1 UNK         0.3000 
    131 H131        3.0421  -12.8923  -44.8907 H         1 UNK         0.0600 
    132 H132        2.0486  -11.5375  -46.7485 H         1 UNK         0.0800 
    133 H133        3.3950  -11.9642  -47.7737 H         1 UNK         0.0800 
    134 H134        2.5860  -13.4519  -49.6364 H         1 UNK         0.0800 
    135 H135        3.7620  -14.4210  -48.7783 H         1 UNK         0.0800 
    136 H136        0.3156  -14.5067  -50.2295 H         1 UNK         0.1150 
    137 H137        0.5109  -18.6855  -51.1458 H         1 UNK         0.1150 
    138 H138        3.6884  -16.8269  -48.9524 H         1 UNK         0.1150 
    139 H139        2.7270  -19.8036  -50.9053 H         1 UNK         0.0800 
    140 H140        3.9975  -19.0474  -49.9841 H         1 UNK         0.0800 
    141 H141        0.7479  -21.0093  -49.9787 H         1 UNK         0.0800 
    142 H142        0.1320  -19.8200  -48.8517 H         1 UNK         0.0800 
    143 H143        0.9746  -22.6409  -48.0265 H         1 UNK         0.0600 
    144 H144        0.2178  -20.4295  -46.4316 H         1 UNK         0.3000 
    145 H145       -1.1242  -22.3184  -43.6609 H         1 UNK         0.0600 
    146 H146        0.5051  -20.7954  -42.5344 H         1 UNK         0.0600 
    147 H147        1.3123  -22.1438  -43.3225 H         1 UNK         0.0600 
    148 H148        1.3455  -20.5525  -44.0641 H         1 UNK         0.0600 
    149 H149       -1.0076  -19.5142  -44.0880 H         1 UNK         0.3000 
    150 H150       -4.1436  -19.1637  -45.7839 H         1 UNK         0.0600 
    151 H151       -4.7272  -19.2533  -43.3780 H         1 UNK         0.0600 
    152 H152       -4.5023  -17.5890  -43.8930 H         1 UNK         0.0600 
    153 H153       -3.2518  -18.4004  -42.9520 H         1 UNK         0.0600 
    154 H154       -2.1080  -17.3228  -44.9134 H         1 UNK         0.3000 
    155 H155       -0.2351  -17.3102  -47.9413 H         1 UNK         0.0600 
    156 H156       -2.1464  -15.2660  -46.6810 H         1 UNK         0.0600 
    157 H157       -0.8146  -14.8933  -47.7706 H         1 UNK         0.0600 
    158 H158       -2.1895  -15.8152  -48.3518 H         1 UNK         0.0600 
    159 H159       -0.0184  -15.8409  -45.4926 H         1 UNK         0.3000 
    160 H160        2.0382  -18.2224  -43.7612 H         1 UNK         0.0600 
    161 H161        2.8085  -15.5658  -45.0682 H         1 UNK         0.0600 
    162 H162        3.6175  -17.1007  -45.3624 H         1 UNK         0.0600 
    163 H163        3.6704  -16.3723  -43.7620 H         1 UNK         0.0600 
    164 H164        1.3650  -15.5718  -43.0720 H         1 UNK         0.3000 
    165 H165       -1.9871  -15.9150  -42.1488 H         1 UNK         0.0600 
    166 H166       -1.3879  -15.4393  -39.7860 H         1 UNK         0.0600 
    167 H167       -1.0953  -17.1320  -40.1493 H         1 UNK         0.0600 
    168 H168        0.2586  -16.0114  -40.0604 H         1 UNK         0.0600 
    169 H169       -0.1101  -13.9482  -41.3649 H         1 UNK         0.3000 
    170 H170        0.6714  -12.3852  -44.3302 H         1 UNK         0.0600 
    171 H171       -1.6503  -11.4634  -44.2335 H         1 UNK         0.0600 
    172 H172       -1.5128  -11.2750  -42.4893 H         1 UNK         0.0600 
    173 H173       -0.4833  -10.3325  -43.5694 H         1 UNK         0.0600 
    174 H174        0.8686  -11.3364  -41.7395 H         1 UNK         0.3000 
    175 H175        2.6571  -11.4144  -40.5259 H         1 UNK         0.0600 
    176 H176        3.3791  -14.3541  -39.9855 H         1 UNK         0.0600 
    177 H177        3.5263  -13.0268  -38.8355 H         1 UNK         0.0600 
    178 H178        1.9394  -13.5423  -39.3808 H         1 UNK         0.0600 
    179 H179        4.6603  -12.7104  -42.1729 H         1 UNK         0.3000 
    180 H180        7.2467  -10.5140  -40.9021 H         1 UNK         0.0600 
    181 H181        7.0392  -13.4866  -41.6146 H         1 UNK         0.0600 
    182 H182        7.6835  -12.8136  -40.1250 H         1 UNK         0.0600 
    183 H183        8.5124  -12.5206  -41.6461 H         1 UNK         0.0600 
    184 H184        6.3911  -11.8493  -43.4055 H         1 UNK         0.3000 
    185 H185        5.5975   -8.8103  -45.0151 H         1 UNK         0.0600 
    186 H186        8.0796   -8.6563  -45.2336 H         1 UNK         0.0600 
    187 H187        8.1820  -10.3952  -45.4811 H         1 UNK         0.0600 
    188 H188        7.3646   -9.3761  -46.6670 H         1 UNK         0.0600 
    189 H189        6.0443  -11.5171  -45.9254 H         1 UNK         0.3000 
    190 H190       -2.1703  -20.8858  -47.8596 H         1 UNK         0.3000 
    191 H191       -3.4728  -22.3937  -49.8670 H         1 UNK         0.0600 
    192 H192       -4.6451  -20.9050  -47.4648 H         1 UNK         0.0600 
    193 H193       -5.5638  -21.4732  -48.8506 H         1 UNK         0.0600 
    194 H194       -4.3380  -20.2315  -49.0645 H         1 UNK         0.0600 
    195 H195       -3.3158  -22.9166  -46.3185 H         1 UNK         0.3000 
    196 H196       -4.9185  -25.2573  -46.2317 H         1 UNK         0.0600 
    197 H197       -3.8621  -25.5612  -43.9852 H         1 UNK         0.0600 
    198 H198       -4.3845  -23.9011  -44.2294 H         1 UNK         0.0600 
    199 H199       -2.6773  -24.3164  -44.3646 H         1 UNK         0.0600 
    200 H200       -1.4047  -24.8376  -46.7813 H         1 UNK         0.3000 
    201 H201       -0.7503  -27.6238  -46.8261 H         1 UNK         0.0600 
    202 H202        0.9494  -25.8608  -46.4604 H         1 UNK         0.0600 
    203 H203        0.6822  -25.2236  -48.0810 H         1 UNK         0.0600 
    204 H204        1.3706  -26.8276  -47.8658 H         1 UNK         0.0600 
    205 H205       -1.6966  -25.3124  -49.3974 H         1 UNK         0.3000 
    206 H206       -1.4248  -27.1068  -51.5982 H         1 UNK         0.0600 
    207 H207       -1.4998  -24.6629  -51.9028 H         1 UNK         0.0600 
    208 H208       -2.8211  -25.4000  -52.7965 H         1 UNK         0.0600 
    209 H209       -3.1383  -24.5877  -51.2680 H         1 UNK         0.0600 
    210 H210       -4.3031  -26.1116  -49.7080 H         1 UNK         0.3000 
    211 H211       -6.2439  -26.9892  -49.2181 H         1 UNK         0.0600 
    212 H212       -4.9926  -29.7260  -49.7896 H         1 UNK         0.0600 
    213 H213       -6.3853  -29.4058  -48.7654 H         1 UNK         0.0600 
    214 H214       -4.8015  -28.8202  -48.2908 H         1 UNK         0.0600 
    215 H215       -5.5835  -26.6104  -52.2399 H         1 UNK         0.3000 
    216 H216       -7.5816  -28.2739  -53.5940 H         1 UNK         0.0600 
    217 H217       -5.8537  -25.9322  -54.5835 H         1 UNK         0.0600 
    218 H218       -6.7743  -27.0328  -55.5982 H         1 UNK         0.0600 
    219 H219       -5.4070  -27.6343  -54.6787 H         1 UNK         0.0600 
    220 H220       -9.0883  -27.0384  -55.1511 H         1 UNK         0.3000 
    221 H221      -10.8598  -25.1974  -53.8040 H         1 UNK         0.0600 
    222 H222      -10.6227  -26.0014  -56.7586 H         1 UNK         0.0600 
    223 H223      -11.6684  -26.7663  -55.5613 H         1 UNK         0.0600 
    224 H224      -11.9582  -25.1031  -56.0480 H         1 UNK         0.0600 
    225 H225      -10.7544  -23.0298  -53.7680 H         1 UNK         0.3000 
    226 H226      -10.0992  -20.9441  -53.8546 H         1 UNK         0.0600 
    227 H227      -10.3208  -20.9937  -56.3438 H         1 UNK         0.0600 
    228 H228       -9.0487  -19.9061  -55.8088 H         1 UNK         0.0600 
    229 H229       -8.6275  -21.4674  -56.4882 H         1 UNK         0.0600 
    230 H230       -7.5267  -23.2453  -54.5019 H         1 UNK         0.3000 
    231 H231       -5.5958  -23.7335  -53.5742 H         1 UNK         0.0600 
    232 H232       -6.2417  -21.8756  -51.2303 H         1 UNK         0.0600 
    233 H233       -5.2058  -23.3028  -51.2232 H         1 UNK         0.0600 
    234 H234       -6.9311  -23.4844  -51.4122 H         1 UNK         0.0600 
    235 H235       -3.8046  -22.0894  -51.9652 H         1 UNK         0.3000 
    236 H236       -2.1888  -21.0137  -54.0042 H         1 UNK         0.0600 
    237 H237       -0.7404  -20.3061  -52.1546 H         1 UNK         0.0600 
    238 H238       -2.0443  -20.4854  -50.9870 H         1 UNK         0.0600 
    239 H239       -1.3681  -21.9039  -51.7932 H         1 UNK         0.0600 
    240 H240       -2.0748  -19.0692  -54.9284 H         1 UNK         0.3000 
    241 H241       -2.4699  -17.0277  -55.5902 H         1 UNK         0.0600 
    242 H242       -6.2202  -18.0903  -55.7612 H         1 UNK         0.3800 
    243 H243       -4.9315  -19.1218  -55.2006 H         1 UNK         0.3800 
    244 H244       -2.9307  -15.1299  -54.0946 H         1 UNK         0.0800 
    245 H245       -3.3553  -16.1954  -52.7890 H         1 UNK         0.0800 
    246 H246       -1.6300  -17.4584  -51.2904 H         1 UNK         0.0800 
    247 H247       -1.7127  -15.7540  -50.9188 H         1 UNK         0.0800 
@<TRIPOS>BOND
     1    1    2 1    
     2    1  127 1    
     3    1  128 1    
     4    1  129 1    
     5    2    3 2    
     6    2    4 am   BACKBONE|DICT|INTERRES
     7    4    5 1    
     8    4  130 1    
     9    5    6 1    
    10    5   65 1    
    11    5  131 1    
    12    6    7 1    
    13    6  132 1    
    14    6  133 1    
    15    7    8 1    
    16    8    9 1    
    17    8  134 1    
    18    8  135 1    
    19    9   10 ar   
    20    9   14 ar   
    21   10   11 ar   
    22   10  136 1    
    23   11   12 ar   
    24   11  126 1    
    25   12   13 ar   
    26   12  137 1    
    27   13   14 ar   
    28   13   15 1    
    29   14  138 1    
    30   15   16 1    
    31   15  139 1    
    32   15  140 1    
    33   16   17 1    
    34   17   18 1    
    35   17  141 1    
    36   17  142 1    
    37   18   19 1    
    38   18   67 1    
    39   18  143 1    
    40   19   20 am   BACKBONE|DICT|INTERRES
    41   19  144 1    
    42   20   21 2    
    43   20   22 1    
    44   22   23 1    
    45   22   24 1    
    46   22  145 1    
    47   23  146 1    
    48   23  147 1    
    49   23  148 1    
    50   24   25 am   BACKBONE|DICT|INTERRES
    51   24  149 1    
    52   25   26 2    
    53   25   27 1    
    54   27   28 1    
    55   27   29 1    
    56   27  150 1    
    57   28  151 1    
    58   28  152 1    
    59   28  153 1    
    60   29   30 am   BACKBONE|DICT|INTERRES
    61   29  154 1    
    62   30   31 2    
    63   30   32 1    
    64   32   33 1    
    65   32   34 1    
    66   32  155 1    
    67   33  156 1    
    68   33  157 1    
    69   33  158 1    
    70   34   35 am   BACKBONE|DICT|INTERRES
    71   34  159 1    
    72   35   36 2    
    73   35   37 1    
    74   37   38 1    
    75   37   39 1    
    76   37  160 1    
    77   38  161 1    
    78   38  162 1    
    79   38  163 1    
    80   39   40 am   BACKBONE|DICT|INTERRES
    81   39  164 1    
    82   40   41 2    
    83   40   42 1    
    84   42   43 1    
    85   42   44 1    
    86   42  165 1    
    87   43  166 1    
    88   43  167 1    
    89   43  168 1    
    90   44   45 am   BACKBONE|DICT|INTERRES
    91   44  169 1    
    92   45   46 2    
    93   45   47 1    
    94   47   48 1    
    95   47   49 1    
    96   47  170 1    
    97   48  171 1    
    98   48  172 1    
    99   48  173 1    
   100   49   50 am   BACKBONE|DICT|INTERRES
   101   49  174 1    
   102   50   51 2    
   103   50   52 1    
   104   52   53 1    
   105   52   54 1    
   106   52  175 1    
   107   53  176 1    
   108   53  177 1    
   109   53  178 1    
   110   54   55 am   BACKBONE|DICT|INTERRES
   111   54  179 1    
   112   55   56 2    
   113   55   57 1    
   114   57   58 1    
   115   57   59 1    
   116   57  180 1    
   117   58  181 1    
   118   58  182 1    
   119   58  183 1    
   120   59   60 am   BACKBONE|DICT|INTERRES
   121   59  184 1    
   122   60   61 2    
   123   60   62 1    
   124   62   63 1    
   125   62   64 1    
   126   62  185 1    
   127   63  186 1    
   128   63  187 1    
   129   63  188 1    
   130   64   65 am   BACKBONE|DICT|INTERRES
   131   64  189 1    
   132   65   66 2    
   133   67   68 2    
   134   67   69 am   BACKBONE|DICT|INTERRES
   135   69   70 1    
   136   69  190 1    
   137   70   71 1    
   138   70   72 1    
   139   70  191 1    
   140   71  192 1    
   141   71  193 1    
   142   71  194 1    
   143   72   73 2    
   144   72   74 am   BACKBONE|DICT|INTERRES
   145   74   75 1    
   146   74  195 1    
   147   75   76 1    
   148   75   77 1    
   149   75  196 1    
   150   76  197 1    
   151   76  198 1    
   152   76  199 1    
   153   77   78 2    
   154   77   79 am   BACKBONE|DICT|INTERRES
   155   79   80 1    
   156   79  200 1    
   157   80   81 1    
   158   80   82 1    
   159   80  201 1    
   160   81  202 1    
   161   81  203 1    
   162   81  204 1    
   163   82   83 2    
   164   82   84 am   BACKBONE|DICT|INTERRES
   165   84   85 1    
   166   84  205 1    
   167   85   86 1    
   168   85   87 1    
   169   85  206 1    
   170   86  207 1    
   171   86  208 1    
   172   86  209 1    
   173   87   88 2    
   174   87   89 am   BACKBONE|DICT|INTERRES
   175   89   90 1    
   176   89  210 1    
   177   90   91 1    
   178   90   92 1    
   179   90  211 1    
   180   91  212 1    
   181   91  213 1    
   182   91  214 1    
   183   92   93 2    
   184   92   94 am   BACKBONE|DICT|INTERRES
   185   94   95 1    
   186   94  215 1    
   187   95   96 1    
   188   95   97 1    
   189   95  216 1    
   190   96  217 1    
   191   96  218 1    
   192   96  219 1    
   193   97   98 2    
   194   97   99 am   BACKBONE|DICT|INTERRES
   195   99  100 1    
   196   99  220 1    
   197  100  101 1    
   198  100  102 1    
   199  100  221 1    
   200  101  222 1    
   201  101  223 1    
   202  101  224 1    
   203  102  103 2    
   204  102  104 am   BACKBONE|DICT|INTERRES
   205  104  105 1    
   206  104  225 1    
   207  105  106 1    
   208  105  107 1    
   209  105  226 1    
   210  106  227 1    
   211  106  228 1    
   212  106  229 1    
   213  107  108 2    
   214  107  109 am   BACKBONE|DICT|INTERRES
   215  109  110 1    
   216  109  230 1    
   217  110  111 1    
   218  110  112 1    
   219  110  231 1    
   220  111  232 1    
   221  111  233 1    
   222  111  234 1    
   223  112  113 2    
   224  112  114 am   BACKBONE|DICT|INTERRES
   225  114  115 1    
   226  114  235 1    
   227  115  116 1    
   228  115  117 1    
   229  115  236 1    
   230  116  237 1    
   231  116  238 1    
   232  116  239 1    
   233  117  118 2    
   234  117  119 am   BACKBONE|DICT|INTERRES
   235  119  120 1    
   236  119  240 1    
   237  120  121 1    
   238  120  124 1    
   239  120  241 1    
   240  121  122 am   BACKBONE|DICT|INTERRES
   241  121  123 2    
   242  122  242 1    
   243  122  243 1    
   244  124  125 1    
   245  124  244 1    
   246  124  245 1    
   247  125  126 1    
   248  126  246 1    
   249  126  247 1    
@<TRIPOS>SUBSTRUCTURE
     1 UNK         1 GROUP             0       ****    0 ROOT    
