@<TRIPOS>MOLECULE
3R540
247   249    1
SMALL
USER_CHARGES


@<TRIPOS>ATOM
      1 CA          6.8777  -11.4977  -46.9936 C.3       0 UNK        -0.1800 
      2 C           5.4875  -12.0299  -46.6790 C.2       0 UNK         0.5000 
      3 O           4.8864  -11.6279  -45.6828 O.2       0 UNK        -0.5000 
      4 N           4.9621  -12.9193  -47.5328 N.am      1 UNK        -0.5000 
      5 CA          3.6447  -13.5572  -47.3907 C.3       1 UNK         0.1400 
      6 C6          3.4526  -14.7304  -48.3821 C.3       23 UNK        -0.0398 
      7 S7          3.6237  -14.2620  -50.1399 S.3       23 UNK        -0.2404 
      8 C8          4.4512  -15.7338  -50.8265 C.3       23 UNK        -0.0205 
      9 C9          3.6447  -17.0152  -50.6424 C.ar      23 UNK        -0.0193 
     10 C10         2.3272  -17.0992  -51.0982 C.ar      23 UNK        -0.1150 
     11 C11         1.5978  -18.2821  -50.9565 C.ar      23 UNK        -0.0193 
     12 C12         2.1990  -19.3967  -50.3635 C.ar      23 UNK        -0.1150 
     13 C13         3.5231  -19.3321  -49.9022 C.ar      23 UNK        -0.0193 
     14 C14         4.2301  -18.1333  -50.0430 C.ar      23 UNK        -0.1150 
     15 C15         4.2615  -20.5208  -49.2800 C.3       23 UNK        -0.0205 
     16 S16         3.2648  -22.0068  -48.9242 S.3       23 UNK        -0.2404 
     17 C17         2.3291  -21.4457  -47.4642 C.3       23 UNK        -0.0398 
     18 CA          1.1445  -22.3785  -47.1226 C.3       11 UNK         0.1400 
     19 N           0.6550  -22.1603  -45.7595 N.am      11 UNK        -0.5000 
     20 C          -0.2396  -22.9392  -45.1354 C.2       10 UNK         0.5000 
     21 O          -0.7150  -23.9614  -45.6270 O.2       10 UNK        -0.5000 
     22 CA         -0.7228  -22.4767  -43.7496 C.3       10 UNK         0.1400 
     23 CB          0.2849  -22.8722  -42.6604 C.3       10 UNK        -0.1800 
     24 N          -0.9764  -21.0365  -43.6949 N.am      10 UNK        -0.5000 
     25 C          -1.9103  -20.4031  -44.4198 C.2       9 UNK         0.5000 
     26 O          -2.6963  -20.9781  -45.1724 O.2       9 UNK        -0.5000 
     27 CA         -1.9323  -18.8659  -44.3364 C.3       9 UNK         0.1400 
     28 CB         -2.6340  -18.3907  -43.0558 C.3       9 UNK        -0.1800 
     29 N          -0.5922  -18.2843  -44.4064 N.am      9 UNK        -0.5000 
     30 C           0.2372  -18.4004  -45.4528 C.2       8 UNK         0.5000 
     31 O          -0.0550  -18.9723  -46.5021 O.2       8 UNK        -0.5000 
     32 CA          1.6536  -17.8329  -45.2716 C.3       8 UNK         0.1400 
     33 CB          1.6715  -16.3130  -45.4889 C.3       8 UNK        -0.1800 
     34 N           2.2018  -18.1535  -43.9535 N.am      8 UNK        -0.5000 
     35 C           2.5484  -19.3873  -43.5601 C.2       7 UNK         0.5000 
     36 O           2.4764  -20.3790  -44.2849 O.2       7 UNK        -0.5000 
     37 CA          3.0168  -19.5451  -42.1018 C.3       7 UNK         0.1400 
     38 CB          4.5048  -19.1884  -41.9700 C.3       7 UNK        -0.1800 
     39 N           2.2378  -18.7299  -41.1687 N.am      7 UNK        -0.5000 
     40 C           0.9418  -18.9291  -40.8887 C.2       6 UNK         0.5000 
     41 O           0.2755  -19.8503  -41.3582 O.2       6 UNK        -0.5000 
     42 CA          0.2628  -17.8910  -39.9741 C.3       6 UNK         0.1400 
     43 CB          0.4550  -18.2650  -38.4971 C.3       6 UNK        -0.1800 
     44 N           0.7336  -16.5192  -40.1956 N.am      6 UNK        -0.5000 
     45 C           0.6460  -15.8656  -41.3615 C.2       5 UNK         0.5000 
     46 O           0.1779  -16.3671  -42.3865 O.2       5 UNK        -0.5000 
     47 CA          1.2407  -14.4448  -41.3977 C.3       5 UNK         0.1400 
     48 CB          2.7743  -14.5134  -41.4841 C.3       5 UNK        -0.1800 
     49 N           0.7541  -13.6674  -42.5364 N.am      5 UNK        -0.5000 
     50 C          -0.5072  -13.2521  -42.7130 C.2       4 UNK         0.5000 
     51 O          -1.4045  -13.4090  -41.8821 O.2       4 UNK        -0.5000 
     52 CA         -0.7870  -12.5303  -44.0475 C.3       4 UNK         0.1400 
     53 CB         -2.1742  -11.8565  -44.1020 C.3       4 UNK        -0.1800 
     54 N           0.2739  -11.5824  -44.4079 N.am      4 UNK        -0.5000 
     55 C           0.6509  -10.4849  -43.7286 C.2       3 UNK         0.5000 
     56 O           0.1282  -10.1174  -42.6757 O.2       3 UNK        -0.5000 
     57 CA          1.8151   -9.6511  -44.3080 C.3       3 UNK         0.1400 
     58 CB          3.0811   -9.8444  -43.4587 C.3       3 UNK        -0.1800 
     59 N           2.1292   -9.9700  -45.7021 N.am      3 UNK        -0.5000 
     60 C           1.3463   -9.6761  -46.7517 C.2       2 UNK         0.5000 
     61 O           0.3246   -8.9942  -46.6650 O.2       2 UNK        -0.5000 
     62 CA          1.7435  -10.2637  -48.1234 C.3       2 UNK         0.1400 
     63 CB          2.3555   -9.1749  -49.0180 C.3       2 UNK        -0.1800 
     64 N           2.6776  -11.3904  -48.0507 N.am      2 UNK        -0.5000 
     65 C           2.4602  -12.5649  -47.4396 C.2       1 UNK         0.5000 
     66 O           1.4028  -12.8549  -46.8775 O.2       1 UNK        -0.5000 
     67 C           0.0077  -22.2794  -48.1619 C.2       11 UNK         0.5000 
     68 O          -0.1217  -23.1687  -49.0018 O.2       11 UNK        -0.5000 
     69 N          -0.8269  -21.2359  -48.0566 N.am      12 UNK        -0.5000 
     70 CA         -2.0100  -21.0328  -48.8933 C.3       12 UNK         0.1400 
     71 CB         -2.6265  -19.6609  -48.5808 C.3       12 UNK        -0.1800 
     72 C          -3.0529  -22.1569  -48.7450 C.2       12 UNK         0.5000 
     73 O          -3.6222  -22.5826  -49.7477 O.2       12 UNK        -0.5000 
     74 N          -3.2604  -22.6376  -47.5109 N.am      13 UNK        -0.5000 
     75 CA         -4.1285  -23.7740  -47.2039 C.3       13 UNK         0.1400 
     76 CB         -4.3612  -23.8542  -45.6883 C.3       13 UNK        -0.1800 
     77 C          -3.5818  -25.1074  -47.7484 C.2       13 UNK         0.5000 
     78 O          -4.3522  -25.9019  -48.2869 O.2       13 UNK        -0.5000 
     79 N          -2.2664  -25.3299  -47.6248 N.am      14 UNK        -0.5000 
     80 CA         -1.5771  -26.5015  -48.1700 C.3       14 UNK         0.1400 
     81 CB         -0.1327  -26.5409  -47.6488 C.3       14 UNK        -0.1800 
     82 C          -1.6043  -26.5379  -49.7092 C.2       14 UNK         0.5000 
     83 O          -1.7971  -27.6051  -50.2944 O.2       14 UNK        -0.5000 
     84 N          -1.4472  -25.3668  -50.3371 N.am      15 UNK        -0.5000 
     85 CA         -1.4840  -25.1561  -51.7812 C.3       15 UNK         0.1400 
     86 CB         -0.7136  -23.8679  -52.1043 C.3       15 UNK        -0.1800 
     87 C          -2.9250  -25.1505  -52.3374 C.2       15 UNK         0.5000 
     88 O          -3.3865  -24.1345  -52.8623 O.2       15 UNK        -0.5000 
     89 N          -3.5809  -26.3149  -52.2321 N.am      16 UNK        -0.5000 
     90 CA         -4.8907  -26.6702  -52.7887 C.3       16 UNK         0.1400 
     91 CB         -4.8687  -26.6014  -54.3313 C.3       16 UNK        -0.1800 
     92 C          -6.0792  -25.9121  -52.1602 C.2       16 UNK         0.5000 
     93 O          -7.0452  -25.6051  -52.8617 O.2       16 UNK        -0.5000 
     94 N          -6.0062  -25.6768  -50.8409 N.am      17 UNK        -0.5000 
     95 CA         -6.9989  -25.0097  -49.9883 C.3       17 UNK         0.1400 
     96 CB         -8.3698  -25.7168  -50.0608 C.3       17 UNK        -0.1800 
     97 C          -7.1281  -23.4998  -50.2589 C.2       17 UNK         0.5000 
     98 O          -6.6443  -22.9867  -51.2687 O.2       17 UNK        -0.5000 
     99 N          -7.8287  -22.8054  -49.3520 N.am      18 UNK        -0.5000 
    100 CA        -8.1005  -21.3641  -49.4142 C.3       18 UNK         0.1400 
    101 CB        -8.7525  -20.9258  -48.0943 C.3       18 UNK        -0.1800 
    102 C         -8.9611  -20.9283  -50.6207 C.2       18 UNK         0.5000 
    103 O         -8.9992  -19.7396  -50.9371 O.2       18 UNK        -0.5000 
    104 N         -9.6161  -21.8911  -51.2850 N.am      19 UNK        -0.5000 
    105 CA       -10.3008  -21.7093  -52.5642 C.3       19 UNK         0.1400 
    106 CB       -11.1282  -22.9667  -52.8718 C.3       19 UNK        -0.1800 
    107 C         -9.3275  -21.4048  -53.7218 C.2       19 UNK         0.5000 
    108 O         -9.6890  -20.6503  -54.6258 O.2       19 UNK        -0.5000 
    109 N         -8.1172  -21.9792  -53.6680 N.am      20 UNK        -0.5000 
    110 CA        -7.0282  -21.7029  -54.6030 C.3       20 UNK         0.1400 
    111 CB        -6.2691  -23.0018  -54.9101 C.3       20 UNK        -0.1800 
    112 C         -6.0725  -20.6514  -54.0209 C.2       20 UNK         0.5000 
    113 O         -5.6849  -19.7277  -54.7369 O.2       20 UNK        -0.5000 
    114 N         -5.7086  -20.8158  -52.7390 N.am      21 UNK        -0.5000 
    115 CA        -4.8181  -19.9645  -51.9437 C.3       21 UNK         0.1400 
    116 CB        -5.5351  -18.6543  -51.5596 C.3       21 UNK        -0.1800 
    117 C         -3.4519  -19.7263  -52.6211 C.2       21 UNK         0.5000 
    118 O         -3.0103  -18.5828  -52.7193 O.2       21 UNK        -0.5000 
    119 N         -2.8559  -20.8159  -53.1233 N.am      22 UNK        -0.5000 
    120 CA        -1.6590  -20.8741  -53.9827 C.3       22 UNK         0.1400 
    121 C         -1.8072  -20.2824  -55.4200 C.2       22 UNK         0.5000 
    122 N         -2.9746  -19.8173  -55.8483 N.am      22 UNK        -0.7600 
    123 O         -0.8511  -20.2945  -56.1908 O.2       22 UNK        -0.5000 
    124 C124       -0.3242  -20.4970  -53.2622 C.3       23 UNK        -0.0398 
    125 S125        0.1171  -18.7204  -53.2405 S.3       23 UNK        -0.2404 
    126 C126        0.1652  -18.3435  -51.4607 C.3       23 UNK        -0.0205 
    127 H127        7.5605  -11.7279  -46.1758 H         1 UNK         0.0600 
    128 H128        6.8451  -10.4153  -47.1176 H         1 UNK         0.0600 
    129 H129        7.2814  -11.9336  -47.9077 H         1 UNK         0.0600 
    130 H130        5.4912  -13.1971  -48.3477 H         1 UNK         0.3000 
    131 H131        3.6244  -13.9833  -46.3862 H         1 UNK         0.0600 
    132 H132        2.4746  -15.1950  -48.2519 H         1 UNK         0.0800 
    133 H133        4.1791  -15.5102  -48.1495 H         1 UNK         0.0800 
    134 H134        4.6181  -15.5766  -51.8928 H         1 UNK         0.0800 
    135 H135        5.4388  -15.8260  -50.3720 H         1 UNK         0.0800 
    136 H136        1.8693  -16.2417  -51.5713 H         1 UNK         0.1150 
    137 H137        1.6286  -20.3098  -50.2797 H         1 UNK         0.1150 
    138 H138        5.2538  -18.0780  -49.6993 H         1 UNK         0.1150 
    139 H139        5.0614  -20.8135  -49.9613 H         1 UNK         0.0800 
    140 H140        4.7480  -20.2011  -48.3570 H         1 UNK         0.0800 
    141 H141        1.9919  -20.4178  -47.6062 H         1 UNK         0.0800 
    142 H142        3.0330  -21.4214  -46.6319 H         1 UNK         0.0800 
    143 H143        1.5147  -23.4058  -47.1502 H         1 UNK         0.0600 
    144 H144        1.0395  -21.3633  -45.2624 H         1 UNK         0.3000 
    145 H145       -1.6646  -22.9877  -43.5399 H         1 UNK         0.0600 
    146 H146       -0.0928  -22.6273  -41.6676 H         1 UNK         0.0600 
    147 H147        0.4790  -23.9453  -42.6787 H         1 UNK         0.0600 
    148 H148        1.2400  -22.3627  -42.7896 H         1 UNK         0.0600 
    149 H149       -0.4045  -20.4989  -43.0498 H         1 UNK         0.3000 
    150 H150       -2.4991  -18.4942  -45.1924 H         1 UNK         0.0600 
    151 H151       -3.6553  -18.7703  -43.0076 H         1 UNK         0.0600 
    152 H152       -2.6873  -17.3024  -43.0161 H         1 UNK         0.0600 
    153 H153       -2.1145  -18.7318  -42.1606 H         1 UNK         0.0600 
    154 H154       -0.2800  -17.7516  -43.5983 H         1 UNK         0.3000 
    155 H155        2.2946  -18.2895  -46.0290 H         1 UNK         0.0600 
    156 H156        1.0721  -15.7837  -44.7493 H         1 UNK         0.0600 
    157 H157        1.2675  -16.0578  -46.4685 H         1 UNK         0.0600 
    158 H158        2.6878  -15.9250  -45.4364 H         1 UNK         0.0600 
    159 H159        2.2225  -17.4054  -43.2771 H         1 UNK         0.3000 
    160 H160        2.8913  -20.5937  -41.8237 H         1 UNK         0.0600 
    161 H161        4.6926  -18.1408  -42.2091 H         1 UNK         0.0600 
    162 H162        5.1119  -19.7934  -42.6449 H         1 UNK         0.0600 
    163 H163        4.8657  -19.3719  -40.9578 H         1 UNK         0.0600 
    164 H164        2.7094  -17.9493  -40.7369 H         1 UNK         0.3000 
    165 H165       -0.8065  -17.9113  -40.1934 H         1 UNK         0.0600 
    166 H166       -0.1002  -17.5915  -37.8439 H         1 UNK         0.0600 
    167 H167        0.0947  -19.2758  -38.3005 H         1 UNK         0.0600 
    168 H168        1.5051  -18.2280  -38.2045 H         1 UNK         0.0600 
    169 H169        1.1410  -16.0503  -39.3993 H         1 UNK         0.3000 
    170 H170        0.9562  -13.9255  -40.4804 H         1 UNK         0.0600 
    171 H171        3.1961  -15.0465  -40.6313 H         1 UNK         0.0600 
    172 H172        3.1047  -15.0263  -42.3885 H         1 UNK         0.0600 
    173 H173        3.2133  -13.5153  -41.4871 H         1 UNK         0.0600 
    174 H174        1.4164  -13.4945  -43.2769 H         1 UNK         0.3000 
    175 H175       -0.7722  -13.3050  -44.8157 H         1 UNK         0.0600 
    176 H176       -2.2928  -11.1035  -43.3226 H         1 UNK         0.0600 
    177 H177       -2.3383  -11.3719  -45.0645 H         1 UNK         0.0600 
    178 H178       -2.9692  -12.5911  -43.9692 H         1 UNK         0.0600 
    179 H179        0.7712  -11.8083  -45.2635 H         1 UNK         0.3000 
    180 H180        1.5244   -8.6000  -44.2550 H         1 UNK         0.0600 
    181 H181        3.4046  -10.8861  -43.4518 H         1 UNK         0.0600 
    182 H182        2.9073   -9.5488  -42.4232 H         1 UNK         0.0600 
    183 H183        3.9065   -9.2396  -43.8347 H         1 UNK         0.0600 
    184 H184        2.9633  -10.5243  -45.8567 H         1 UNK         0.3000 
    185 H185        0.8283  -10.6246  -48.5967 H         1 UNK         0.0600 
    186 H186        1.6755   -8.3288  -49.1268 H         1 UNK         0.0600 
    187 H187        3.2901   -8.7940  -48.6043 H         1 UNK         0.0600 
    188 H188        2.5603   -9.5549  -50.0191 H         1 UNK         0.0600 
    189 H189        3.5828  -11.2478  -48.4742 H         1 UNK         0.3000 
    190 H190       -0.6352  -20.5197  -47.3593 H         1 UNK         0.3000 
    191 H191       -1.6813  -21.0283  -49.9344 H         1 UNK         0.0600 
    192 H192       -1.9158  -18.8570  -48.7733 H         1 UNK         0.0600 
    193 H193       -3.5058  -19.4715  -49.1955 H         1 UNK         0.0600 
    194 H194       -2.9357  -19.5881  -47.5380 H         1 UNK         0.0600 
    195 H195       -2.8015  -22.1866  -46.7249 H         1 UNK         0.3000 
    196 H196       -5.0935  -23.5918  -47.6806 H         1 UNK         0.0600 
    197 H197       -5.0281  -24.6803  -45.4385 H         1 UNK         0.0600 
    198 H198       -4.8200  -22.9398  -45.3117 H         1 UNK         0.0600 
    199 H199       -3.4290  -24.0081  -45.1445 H         1 UNK         0.0600 
    200 H200       -1.6974  -24.6625  -47.1108 H         1 UNK         0.3000 
    201 H201       -2.0925  -27.3935  -47.8078 H         1 UNK         0.0600 
    202 H202       -0.1084  -26.5925  -46.5602 H         1 UNK         0.0600 
    203 H203        0.4304  -25.6584  -47.9536 H         1 UNK         0.0600 
    204 H204        0.3962  -27.4160  -48.0282 H         1 UNK         0.0600 
    205 H205       -1.2542  -24.5427  -49.7744 H         1 UNK         0.3000 
    206 H206       -0.9539  -25.9797  -52.2639 H         1 UNK         0.0600 
    207 H207        0.2987  -23.8990  -51.7008 H         1 UNK         0.0600 
    208 H208       -0.6254  -23.7321  -53.1815 H         1 UNK         0.0600 
    209 H209       -1.2138  -22.9944  -51.6855 H         1 UNK         0.0600 
    210 H210       -3.1042  -27.0554  -51.7264 H         1 UNK         0.3000 
    211 H211       -5.0461  -27.7163  -52.5218 H         1 UNK         0.0600 
    212 H212       -4.7527  -25.5792  -54.6911 H         1 UNK         0.0600 
    213 H213       -5.7939  -26.9929  -54.7555 H         1 UNK         0.0600 
    214 H214       -4.0511  -27.1946  -54.7404 H         1 UNK         0.0600 
    215 H215       -5.1542  -25.9363  -50.3590 H         1 UNK         0.3000 
    216 H216       -6.6413  -25.1114  -48.9652 H         1 UNK         0.0600 
    217 H217       -9.0405  -25.3581  -49.2797 H         1 UNK         0.0600 
    218 H218       -8.2655  -26.7929  -49.9219 H         1 UNK         0.0600 
    219 H219       -8.8701  -25.5493  -51.0150 H         1 UNK         0.0600 
    220 H220       -8.2124  -23.2921  -48.5547 H         1 UNK         0.3000 
    221 H221       -7.1403  -20.8521  -49.5063 H         1 UNK         0.0600 
    222 H222       -9.7093  -21.4242  -47.9340 H         1 UNK         0.0600 
    223 H223       -8.1091  -21.1483  -47.2428 H         1 UNK         0.0600 
    224 H224       -8.9371  -19.8507  -48.0865 H         1 UNK         0.0600 
    225 H225       -9.5445  -22.8363  -50.9405 H         1 UNK         0.3000 
    226 H226      -10.9836  -20.8625  -52.4689 H         1 UNK         0.0600 
    227 H227      -11.8666  -23.1542  -52.0921 H         1 UNK         0.0600 
    228 H228      -11.6703  -22.8563  -53.8120 H         1 UNK         0.0600 
    229 H229      -10.4975  -23.8526  -52.9585 H         1 UNK         0.0600 
    230 H230       -7.8797  -22.5572  -52.8697 H         1 UNK         0.3000 
    231 H231       -7.4260  -21.3181  -55.5444 H         1 UNK         0.0600 
    232 H232       -6.9318  -23.7583  -55.3306 H         1 UNK         0.0600 
    233 H233       -5.8130  -23.4206  -54.0128 H         1 UNK         0.0600 
    234 H234       -5.4698  -22.8273  -55.6313 H         1 UNK         0.0600 
    235 H235       -6.0469  -21.6457  -52.2519 H         1 UNK         0.3000 
    236 H236       -4.6188  -20.5129  -51.0244 H         1 UNK         0.0600 
    237 H237       -4.9125  -18.0422  -50.9062 H         1 UNK         0.0600 
    238 H238       -5.7784  -18.0554  -52.4378 H         1 UNK         0.0600 
    239 H239       -6.4619  -18.8540  -51.0241 H         1 UNK         0.0600 
    240 H240       -3.3219  -21.7058  -52.9911 H         1 UNK         0.3000 
    241 H241       -1.5842  -21.9405  -54.1900 H         1 UNK         0.0600 
    242 H242       -3.0408  -19.4587  -56.7873 H         1 UNK         0.3800 
    243 H243       -3.7935  -19.7885  -55.2499 H         1 UNK         0.3800 
    244 H244       -0.3238  -20.8902  -52.2463 H         1 UNK         0.0800 
    245 H245        0.4991  -21.0108  -53.7605 H         1 UNK         0.0800 
    246 H246       -0.3199  -17.3798  -51.2987 H         1 UNK         0.0800 
    247 H247       -0.4184  -19.0663  -50.8902 H         1 UNK         0.0800 
@<TRIPOS>BOND
     1    1    2 1    
     2    1  127 1    
     3    1  128 1    
     4    1  129 1    
     5    2    3 2    
     6    2    4 am   BACKBONE|DICT|INTERRES
     7    4    5 1    
     8    4  130 1    
     9    5    6 1    
    10    5   65 1    
    11    5  131 1    
    12    6    7 1    
    13    6  132 1    
    14    6  133 1    
    15    7    8 1    
    16    8    9 1    
    17    8  134 1    
    18    8  135 1    
    19    9   10 ar   
    20    9   14 ar   
    21   10   11 ar   
    22   10  136 1    
    23   11   12 ar   
    24   11  126 1    
    25   12   13 ar   
    26   12  137 1    
    27   13   14 ar   
    28   13   15 1    
    29   14  138 1    
    30   15   16 1    
    31   15  139 1    
    32   15  140 1    
    33   16   17 1    
    34   17   18 1    
    35   17  141 1    
    36   17  142 1    
    37   18   19 1    
    38   18   67 1    
    39   18  143 1    
    40   19   20 am   BACKBONE|DICT|INTERRES
    41   19  144 1    
    42   20   21 2    
    43   20   22 1    
    44   22   23 1    
    45   22   24 1    
    46   22  145 1    
    47   23  146 1    
    48   23  147 1    
    49   23  148 1    
    50   24   25 am   BACKBONE|DICT|INTERRES
    51   24  149 1    
    52   25   26 2    
    53   25   27 1    
    54   27   28 1    
    55   27   29 1    
    56   27  150 1    
    57   28  151 1    
    58   28  152 1    
    59   28  153 1    
    60   29   30 am   BACKBONE|DICT|INTERRES
    61   29  154 1    
    62   30   31 2    
    63   30   32 1    
    64   32   33 1    
    65   32   34 1    
    66   32  155 1    
    67   33  156 1    
    68   33  157 1    
    69   33  158 1    
    70   34   35 am   BACKBONE|DICT|INTERRES
    71   34  159 1    
    72   35   36 2    
    73   35   37 1    
    74   37   38 1    
    75   37   39 1    
    76   37  160 1    
    77   38  161 1    
    78   38  162 1    
    79   38  163 1    
    80   39   40 am   BACKBONE|DICT|INTERRES
    81   39  164 1    
    82   40   41 2    
    83   40   42 1    
    84   42   43 1    
    85   42   44 1    
    86   42  165 1    
    87   43  166 1    
    88   43  167 1    
    89   43  168 1    
    90   44   45 am   BACKBONE|DICT|INTERRES
    91   44  169 1    
    92   45   46 2    
    93   45   47 1    
    94   47   48 1    
    95   47   49 1    
    96   47  170 1    
    97   48  171 1    
    98   48  172 1    
    99   48  173 1    
   100   49   50 am   BACKBONE|DICT|INTERRES
   101   49  174 1    
   102   50   51 2    
   103   50   52 1    
   104   52   53 1    
   105   52   54 1    
   106   52  175 1    
   107   53  176 1    
   108   53  177 1    
   109   53  178 1    
   110   54   55 am   BACKBONE|DICT|INTERRES
   111   54  179 1    
   112   55   56 2    
   113   55   57 1    
   114   57   58 1    
   115   57   59 1    
   116   57  180 1    
   117   58  181 1    
   118   58  182 1    
   119   58  183 1    
   120   59   60 am   BACKBONE|DICT|INTERRES
   121   59  184 1    
   122   60   61 2    
   123   60   62 1    
   124   62   63 1    
   125   62   64 1    
   126   62  185 1    
   127   63  186 1    
   128   63  187 1    
   129   63  188 1    
   130   64   65 am   BACKBONE|DICT|INTERRES
   131   64  189 1    
   132   65   66 2    
   133   67   68 2    
   134   67   69 am   BACKBONE|DICT|INTERRES
   135   69   70 1    
   136   69  190 1    
   137   70   71 1    
   138   70   72 1    
   139   70  191 1    
   140   71  192 1    
   141   71  193 1    
   142   71  194 1    
   143   72   73 2    
   144   72   74 am   BACKBONE|DICT|INTERRES
   145   74   75 1    
   146   74  195 1    
   147   75   76 1    
   148   75   77 1    
   149   75  196 1    
   150   76  197 1    
   151   76  198 1    
   152   76  199 1    
   153   77   78 2    
   154   77   79 am   BACKBONE|DICT|INTERRES
   155   79   80 1    
   156   79  200 1    
   157   80   81 1    
   158   80   82 1    
   159   80  201 1    
   160   81  202 1    
   161   81  203 1    
   162   81  204 1    
   163   82   83 2    
   164   82   84 am   BACKBONE|DICT|INTERRES
   165   84   85 1    
   166   84  205 1    
   167   85   86 1    
   168   85   87 1    
   169   85  206 1    
   170   86  207 1    
   171   86  208 1    
   172   86  209 1    
   173   87   88 2    
   174   87   89 am   BACKBONE|DICT|INTERRES
   175   89   90 1    
   176   89  210 1    
   177   90   91 1    
   178   90   92 1    
   179   90  211 1    
   180   91  212 1    
   181   91  213 1    
   182   91  214 1    
   183   92   93 2    
   184   92   94 am   BACKBONE|DICT|INTERRES
   185   94   95 1    
   186   94  215 1    
   187   95   96 1    
   188   95   97 1    
   189   95  216 1    
   190   96  217 1    
   191   96  218 1    
   192   96  219 1    
   193   97   98 2    
   194   97   99 am   BACKBONE|DICT|INTERRES
   195   99  100 1    
   196   99  220 1    
   197  100  101 1    
   198  100  102 1    
   199  100  221 1    
   200  101  222 1    
   201  101  223 1    
   202  101  224 1    
   203  102  103 2    
   204  102  104 am   BACKBONE|DICT|INTERRES
   205  104  105 1    
   206  104  225 1    
   207  105  106 1    
   208  105  107 1    
   209  105  226 1    
   210  106  227 1    
   211  106  228 1    
   212  106  229 1    
   213  107  108 2    
   214  107  109 am   BACKBONE|DICT|INTERRES
   215  109  110 1    
   216  109  230 1    
   217  110  111 1    
   218  110  112 1    
   219  110  231 1    
   220  111  232 1    
   221  111  233 1    
   222  111  234 1    
   223  112  113 2    
   224  112  114 am   BACKBONE|DICT|INTERRES
   225  114  115 1    
   226  114  235 1    
   227  115  116 1    
   228  115  117 1    
   229  115  236 1    
   230  116  237 1    
   231  116  238 1    
   232  116  239 1    
   233  117  118 2    
   234  117  119 am   BACKBONE|DICT|INTERRES
   235  119  120 1    
   236  119  240 1    
   237  120  121 1    
   238  120  124 1    
   239  120  241 1    
   240  121  122 am   BACKBONE|DICT|INTERRES
   241  121  123 2    
   242  122  242 1    
   243  122  243 1    
   244  124  125 1    
   245  124  244 1    
   246  124  245 1    
   247  125  126 1    
   248  126  246 1    
   249  126  247 1    
@<TRIPOS>SUBSTRUCTURE
     1 UNK         1 GROUP             0       ****    0 ROOT    
