@<TRIPOS>MOLECULE
3R540
247   249    1
SMALL
USER_CHARGES


@<TRIPOS>ATOM
      1 CA          2.4729  -17.6060  -48.2873 C.3       0 UNK        -0.1800 
      2 C           2.5201  -16.2080  -48.8754 C.2       0 UNK         0.5000 
      3 O           1.9306  -15.2843  -48.3163 O.2       0 UNK        -0.5000 
      4 N           3.2368  -16.0523  -49.9959 N.am      1 UNK        -0.5000 
      5 CA          3.2607  -14.8690  -50.8691 C.3       1 UNK         0.1400 
      6 C6          4.0259  -15.1336  -52.1912 C.3       23 UNK        -0.0398 
      7 S7          3.6662  -16.7322  -53.0052 S.3       23 UNK        -0.2404 
      8 C8          1.8982  -16.6010  -53.4311 C.3       23 UNK        -0.0205 
      9 C9          0.9991  -17.2377  -52.3777 C.ar      23 UNK        -0.0193 
     10 C10         0.0667  -16.4673  -51.6774 C.ar      23 UNK        -0.1150 
     11 C11        -0.7826  -17.0529  -50.7309 C.ar      23 UNK        -0.0193 
     12 C12        -0.6897  -18.4291  -50.4941 C.ar      23 UNK        -0.1150 
     13 C13         0.2320  -19.2145  -51.1920 C.ar      23 UNK        -0.0193 
     14 C14         1.0710  -18.6121  -52.1328 C.ar      23 UNK        -0.1150 
     15 C15         0.2998  -20.7188  -50.9664 C.3       23 UNK        -0.0205 
     16 S16         1.6818  -21.1897  -49.8836 S.3       23 UNK        -0.2404 
     17 C17         0.9901  -20.8318  -48.2350 C.3       23 UNK        -0.0398 
     18 CA          0.6880  -22.1056  -47.4150 C.3       11 UNK         0.1400 
     19 N           0.6400  -21.8175  -45.9814 N.am      11 UNK        -0.5000 
     20 C           0.6404  -22.7463  -45.0173 C.2       10 UNK         0.5000 
     21 O           0.7117  -23.9548  -45.2347 O.2       10 UNK        -0.5000 
     22 CA          0.4939  -22.2442  -43.5704 C.3       10 UNK         0.1400 
     23 CB          1.8461  -21.7674  -43.0205 C.3       10 UNK        -0.1800 
     24 N          -0.5012  -21.1780  -43.4411 N.am      10 UNK        -0.5000 
     25 C          -1.8077  -21.3319  -43.7018 C.2       9 UNK         0.5000 
     26 O          -2.3128  -22.3994  -44.0464 O.2       9 UNK        -0.5000 
     27 CA         -2.6966  -20.0809  -43.6029 C.3       9 UNK         0.1400 
     28 CB         -3.0346  -19.7683  -42.1378 C.3       9 UNK        -0.1800 
     29 N          -2.0983  -18.9062  -44.2361 N.am      9 UNK        -0.5000 
     30 C          -1.8084  -18.8066  -45.5425 C.2       8 UNK         0.5000 
     31 O          -2.0336  -19.6918  -46.3686 O.2       8 UNK        -0.5000 
     32 CA         -1.0921  -17.5204  -45.9894 C.3       8 UNK         0.1400 
     33 CB         -2.0703  -16.3374  -46.0422 C.3       8 UNK        -0.1800 
     34 N           0.0312  -17.1810  -45.1179 N.am      8 UNK        -0.5000 
     35 C           1.0961  -17.9620  -44.8904 C.2       7 UNK         0.5000 
     36 O           1.2756  -19.0554  -45.4253 O.2       7 UNK        -0.5000 
     37 CA          2.1013  -17.4592  -43.8424 C.3       7 UNK         0.1400 
     38 CB          3.0156  -16.3699  -44.4264 C.3       7 UNK        -0.1800 
     39 N           1.4256  -16.9552  -42.6464 N.am      7 UNK        -0.5000 
     40 C           0.7476  -17.7231  -41.7809 C.2       6 UNK         0.5000 
     41 O           0.6368  -18.9437  -41.8889 O.2       6 UNK        -0.5000 
     42 CA          0.0471  -17.0009  -40.6163 C.3       6 UNK         0.1400 
     43 CB          1.0337  -16.7383  -39.4688 C.3       6 UNK        -0.1800 
     44 N          -0.5681  -15.7388  -41.0267 N.am      6 UNK        -0.5000 
     45 C          -1.6174  -15.6454  -41.8551 C.2       5 UNK         0.5000 
     46 O          -2.1941  -16.6162  -42.3450 O.2       5 UNK        -0.5000 
     47 CA         -2.0615  -14.2222  -42.2400 C.3       5 UNK         0.1400 
     48 CB         -2.9786  -13.6294  -41.1598 C.3       5 UNK        -0.1800 
     49 N          -0.9443  -13.3045  -42.4916 N.am      5 UNK        -0.5000 
     50 C          -0.0123  -13.4931  -43.4343 C.2       4 UNK         0.5000 
     51 O           0.0568  -14.5072  -44.1319 O.2       4 UNK        -0.5000 
     52 CA          1.0354  -12.3836  -43.6217 C.3       4 UNK         0.1400 
     53 CB          2.3206  -12.7142  -42.8480 C.3       4 UNK        -0.1800 
     54 N           1.3486  -12.2597  -45.0431 N.am      4 UNK        -0.5000 
     55 C           0.5556  -11.6509  -45.9336 C.2       3 UNK         0.5000 
     56 O          -0.4026  -10.9444  -45.6142 O.2       3 UNK        -0.5000 
     57 CA          0.8442  -11.9188  -47.4235 C.3       3 UNK         0.1400 
     58 CB          0.5095  -10.7171  -48.3318 C.3       3 UNK        -0.1800 
     59 N           2.1859  -12.4426  -47.6987 N.am      3 UNK        -0.5000 
     60 C           3.3572  -11.7914  -47.6133 C.2       2 UNK         0.5000 
     61 O           3.4751  -10.6408  -47.1911 O.2       2 UNK        -0.5000 
     62 CA          4.6180  -12.5497  -48.0872 C.3       2 UNK         0.1400 
     63 CB          5.4008  -13.0869  -46.8787 C.3       2 UNK        -0.1800 
     64 N           4.3225  -13.6669  -48.9877 N.am      2 UNK        -0.5000 
     65 C           3.7643  -13.5658  -50.2029 C.2       1 UNK         0.5000 
     66 O           3.6091  -12.4930  -50.7877 O.2       1 UNK        -0.5000 
     67 C          -0.5830  -22.8380  -47.8967 C.2       11 UNK         0.5000 
     68 O          -0.4713  -23.8215  -48.6283 O.2       11 UNK        -0.5000 
     69 N          -1.7623  -22.3947  -47.4361 N.am      12 UNK        -0.5000 
     70 CA         -3.0444  -23.0557  -47.6933 C.3       12 UNK         0.1400 
     71 CB         -4.1940  -22.1661  -47.1993 C.3       12 UNK        -0.1800 
     72 C          -3.1255  -24.4633  -47.0704 C.2       12 UNK         0.5000 
     73 O          -3.6250  -25.3844  -47.7151 O.2       12 UNK        -0.5000 
     74 N          -2.5944  -24.6248  -45.8501 N.am      13 UNK        -0.5000 
     75 CA         -2.4816  -25.9130  -45.1637 C.3       13 UNK         0.1400 
     76 CB         -2.0520  -25.6930  -43.7056 C.3       13 UNK        -0.1800 
     77 C          -1.5260  -26.8867  -45.8788 C.2       13 UNK         0.5000 
     78 O          -1.8454  -28.0705  -45.9877 O.2       13 UNK        -0.5000 
     79 N          -0.3956  -26.3704  -46.3828 N.am      14 UNK        -0.5000 
     80 CA          0.5793  -27.1159  -47.1819 C.3       14 UNK         0.1400 
     81 CB          1.8588  -26.2819  -47.3478 C.3       14 UNK        -0.1800 
     82 C           0.0215  -27.5433  -48.5525 C.2       14 UNK         0.5000 
     83 O           0.2685  -28.6709  -48.9821 O.2       14 UNK        -0.5000 
     84 N          -0.7434  -26.6513  -49.1985 N.am      15 UNK        -0.5000 
     85 CA         -1.4766  -26.9232  -50.4378 C.3       15 UNK         0.1400 
     86 CB         -1.9774  -25.5946  -51.0279 C.3       15 UNK        -0.1800 
     87 C          -2.6569  -27.8960  -50.2396 C.2       15 UNK         0.5000 
     88 O          -3.0409  -28.5808  -51.1883 O.2       15 UNK        -0.5000 
     89 N          -3.2048  -27.9235  -49.0157 N.am      16 UNK        -0.5000 
     90 CA         -4.3766  -28.6755  -48.5596 C.3       16 UNK         0.1400 
     91 CB         -4.1187  -30.1951  -48.6223 C.3       16 UNK        -0.1800 
     92 C          -5.6710  -28.2426  -49.2796 C.2       16 UNK         0.5000 
     93 O          -6.5505  -29.0701  -49.5274 O.2       16 UNK        -0.5000 
     94 N          -5.7604  -26.9486  -49.6063 N.am      17 UNK        -0.5000 
     95 CA         -6.8387  -26.3205  -50.3610 C.3       17 UNK         0.1400 
     96 CB         -6.7692  -26.7512  -51.8404 C.3       17 UNK        -0.1800 
     97 C          -6.7045  -24.7965  -50.2400 C.2       17 UNK         0.5000 
     98 O          -5.6561  -24.3016  -49.8182 O.2       17 UNK        -0.5000 
     99 N          -7.7580  -24.0739  -50.6412 N.am      18 UNK        -0.5000 
    100 CA        -7.7589  -22.6170  -50.7673 C.3       18 UNK         0.1400 
    101 CB        -9.1908  -22.1290  -51.0409 C.3       18 UNK        -0.1800 
    102 C         -6.7920  -22.1785  -51.8831 C.2       18 UNK         0.5000 
    103 O         -7.0461  -22.4576  -53.0567 O.2       18 UNK        -0.5000 
    104 N         -5.6834  -21.5432  -51.4876 N.am      19 UNK        -0.5000 
    105 CA        -4.5782  -21.1719  -52.3728 C.3       19 UNK         0.1400 
    106 CB        -3.3411  -20.8768  -51.5107 C.3       19 UNK        -0.1800 
    107 C         -4.8821  -19.9771  -53.2968 C.2       19 UNK         0.5000 
    108 O         -4.1767  -19.8016  -54.2910 O.2       19 UNK        -0.5000 
    109 N         -5.9003  -19.1754  -52.9443 N.am      20 UNK        -0.5000 
    110 CA        -6.2558  -17.8872  -53.5482 C.3       20 UNK         0.1400 
    111 CB        -6.7599  -18.0665  -54.9985 C.3       20 UNK        -0.1800 
    112 C         -5.0888  -16.8920  -53.3835 C.2       20 UNK         0.5000 
    113 O         -4.6619  -16.6816  -52.2464 O.2       20 UNK        -0.5000 
    114 N         -4.5836  -16.3263  -54.4903 N.am      21 UNK        -0.5000 
    115 CA        -3.3928  -15.4742  -54.5849 C.3       21 UNK         0.1400 
    116 CB        -2.1206  -16.3355  -54.4202 C.3       21 UNK        -0.1800 
    117 C         -3.4552  -14.2623  -53.6307 C.2       21 UNK         0.5000 
    118 O         -4.1915  -13.3156  -53.9129 O.2       21 UNK        -0.5000 
    119 N         -2.7044  -14.3200  -52.5230 N.am      22 UNK        -0.5000 
    120 CA        -2.7280  -13.3326  -51.4333 C.3       22 UNK         0.1400 
    121 C         -4.0234  -13.3119  -50.5655 C.2       22 UNK         0.5000 
    122 N         -4.9071  -14.2993  -50.6539 N.am      22 UNK        -0.7600 
    123 O         -4.2379  -12.3680  -49.8100 O.2       22 UNK        -0.5000 
    124 C124       -1.4299  -13.3689  -50.5789 C.3       23 UNK        -0.0398 
    125 S125       -1.2419  -14.6658  -49.2905 S.3       23 UNK        -0.2404 
    126 C126       -1.8433  -16.2398  -49.9925 C.3       23 UNK        -0.0205 
    127 H127        3.0405  -17.6510  -47.3597 H         1 UNK         0.0600 
    128 H128        2.8797  -18.3462  -48.9766 H         1 UNK         0.0600 
    129 H129        1.4393  -17.8758  -48.0756 H         1 UNK         0.0600 
    130 H130        3.6963  -16.8618  -50.3887 H         1 UNK         0.3000 
    131 H131        2.2204  -14.6704  -51.1301 H         1 UNK         0.0600 
    132 H132        5.1020  -15.1104  -52.0096 H         1 UNK         0.0800 
    133 H133        3.8274  -14.3353  -52.9087 H         1 UNK         0.0800 
    134 H134        1.6331  -15.5565  -53.6009 H         1 UNK         0.0800 
    135 H135        1.7316  -17.1131  -54.3798 H         1 UNK         0.0800 
    136 H136        0.0003  -15.4122  -51.8836 H         1 UNK         0.1150 
    137 H137       -1.3512  -18.8958  -49.7779 H         1 UNK         0.1150 
    138 H138        1.7810  -19.2159  -52.6804 H         1 UNK         0.1150 
    139 H139       -0.6332  -21.0940  -50.5452 H         1 UNK         0.0800 
    140 H140        0.4207  -21.2212  -51.9272 H         1 UNK         0.0800 
    141 H141        0.1172  -20.1813  -48.3005 H         1 UNK         0.0800 
    142 H142        1.7540  -20.2536  -47.7167 H         1 UNK         0.0800 
    143 H143        1.5242  -22.7941  -47.5568 H         1 UNK         0.0600 
    144 H144        0.6274  -20.8362  -45.7147 H         1 UNK         0.3000 
    145 H145        0.1598  -23.0860  -42.9608 H         1 UNK         0.0600 
    146 H146        1.7704  -21.5036  -41.9655 H         1 UNK         0.0600 
    147 H147        2.6011  -22.5497  -43.1063 H         1 UNK         0.0600 
    148 H148        2.2147  -20.8933  -43.5580 H         1 UNK         0.0600 
    149 H149       -0.1613  -20.2759  -43.1216 H         1 UNK         0.3000 
    150 H150       -3.6301  -20.2977  -44.1262 H         1 UNK         0.0600 
    151 H151       -3.4847  -20.6321  -41.6469 H         1 UNK         0.0600 
    152 H152       -3.7467  -18.9461  -42.0653 H         1 UNK         0.0600 
    153 H153       -2.1461  -19.4919  -41.5693 H         1 UNK         0.0600 
    154 H154       -1.9056  -18.1153  -43.6288 H         1 UNK         0.3000 
    155 H155       -0.6989  -17.6839  -46.9944 H         1 UNK         0.0600 
    156 H156       -1.5719  -15.4321  -46.3888 H         1 UNK         0.0600 
    157 H157       -2.8946  -16.5403  -46.7265 H         1 UNK         0.0600 
    158 H158       -2.4995  -16.1228  -45.0634 H         1 UNK         0.0600 
    159 H159       -0.0111  -16.2734  -44.6590 H         1 UNK         0.3000 
    160 H160        2.7278  -18.3027  -43.5448 H         1 UNK         0.0600 
    161 H161        2.4476  -15.5271  -44.8208 H         1 UNK         0.0600 
    162 H162        3.6170  -16.7667  -45.2440 H         1 UNK         0.0600 
    163 H163        3.7077  -15.9897  -43.6751 H         1 UNK         0.0600 
    164 H164        1.4097  -15.9546  -42.5207 H         1 UNK         0.3000 
    165 H165       -0.7416  -17.6581  -40.2439 H         1 UNK         0.0600 
    166 H166        0.5294  -16.2977  -38.6086 H         1 UNK         0.0600 
    167 H167        1.4960  -17.6673  -39.1323 H         1 UNK         0.0600 
    168 H168        1.8354  -16.0632  -39.7708 H         1 UNK         0.0600 
    169 H169       -0.1523  -14.8885  -40.6765 H         1 UNK         0.3000 
    170 H170       -2.6356  -14.3006  -43.1656 H         1 UNK         0.0600 
    171 H171       -3.8272  -14.2866  -40.9646 H         1 UNK         0.0600 
    172 H172       -2.4510  -13.4854  -40.2162 H         1 UNK         0.0600 
    173 H173       -3.3817  -12.6652  -41.4702 H         1 UNK         0.0600 
    174 H174       -0.9311  -12.4520  -41.9503 H         1 UNK         0.3000 
    175 H175        0.6349  -11.4373  -43.2521 H         1 UNK         0.0600 
    176 H176        2.1215  -12.8037  -41.7794 H         1 UNK         0.0600 
    177 H177        2.7647  -13.6527  -43.1793 H         1 UNK         0.0600 
    178 H178        3.0670  -11.9297  -42.9744 H         1 UNK         0.0600 
    179 H179        2.0773  -12.8593  -45.3994 H         1 UNK         0.3000 
    180 H180        0.1655  -12.7251  -47.6975 H         1 UNK         0.0600 
    181 H181        1.0790   -9.8291  -48.0572 H         1 UNK         0.0600 
    182 H182       -0.5479  -10.4590  -48.2642 H         1 UNK         0.0600 
    183 H183        0.7210  -10.9427  -49.3771 H         1 UNK         0.0600 
    184 H184        2.2014  -13.4121  -48.0095 H         1 UNK         0.3000 
    185 H185        5.2494  -11.8387  -48.6238 H         1 UNK         0.0600 
    186 H186        5.6647  -12.2802  -46.1933 H         1 UNK         0.0600 
    187 H187        4.8198  -13.8189  -46.3158 H         1 UNK         0.0600 
    188 H188        6.3306  -13.5632  -47.1904 H         1 UNK         0.0600 
    189 H189        4.3936  -14.5925  -48.5909 H         1 UNK         0.3000 
    190 H190       -1.7891  -21.5554  -46.8632 H         1 UNK         0.3000 
    191 H191       -3.1500  -23.1696  -48.7740 H         1 UNK         0.0600 
    192 H192       -4.1356  -21.9917  -46.1247 H         1 UNK         0.0600 
    193 H193       -5.1598  -22.6282  -47.4081 H         1 UNK         0.0600 
    194 H194       -4.1819  -21.1963  -47.6969 H         1 UNK         0.0600 
    195 H195       -2.2619  -23.8075  -45.3456 H         1 UNK         0.3000 
    196 H196       -3.4728  -26.3712  -45.1552 H         1 UNK         0.0600 
    197 H197       -1.9901  -26.6410  -43.1698 H         1 UNK         0.0600 
    198 H198       -2.7681  -25.0656  -43.1747 H         1 UNK         0.0600 
    199 H199       -1.0752  -25.2145  -43.6396 H         1 UNK         0.0600 
    200 H200       -0.1734  -25.3987  -46.1861 H         1 UNK         0.3000 
    201 H201        0.8375  -28.0231  -46.6318 H         1 UNK         0.0600 
    202 H202        2.2986  -26.0388  -46.3804 H         1 UNK         0.0600 
    203 H203        1.6657  -25.3455  -47.8715 H         1 UNK         0.0600 
    204 H204        2.6100  -26.8287  -47.9188 H         1 UNK         0.0600 
    205 H205       -0.8279  -25.7128  -48.8170 H         1 UNK         0.3000 
    206 H206       -0.7860  -27.3775  -51.1512 H         1 UNK         0.0600 
    207 H207       -1.1503  -24.9120  -51.2239 H         1 UNK         0.0600 
    208 H208       -2.4975  -25.7571  -51.9727 H         1 UNK         0.0600 
    209 H209       -2.6729  -25.0921  -50.3547 H         1 UNK         0.0600 
    210 H210       -2.8511  -27.2511  -48.3456 H         1 UNK         0.3000 
    211 H211       -4.5117  -28.4087  -47.5105 H         1 UNK         0.0600 
    212 H212       -4.0403  -30.5525  -49.6493 H         1 UNK         0.0600 
    213 H213       -4.9280  -30.7484  -48.1449 H         1 UNK         0.0600 
    214 H214       -3.1967  -30.4579  -48.1032 H         1 UNK         0.0600 
    215 H215       -5.0308  -26.3062  -49.3099 H         1 UNK         0.3000 
    216 H216       -7.7963  -26.6189  -49.9298 H         1 UNK         0.0600 
    217 H217       -5.8077  -26.4912  -52.2854 H         1 UNK         0.0600 
    218 H218       -7.5466  -26.2672  -52.4325 H         1 UNK         0.0600 
    219 H219       -6.9074  -27.8264  -51.9527 H         1 UNK         0.0600 
    220 H220       -8.5709  -24.5526  -51.0005 H         1 UNK         0.3000 
    221 H221       -7.4313  -22.1885  -49.8175 H         1 UNK         0.0600 
    222 H222       -9.8616  -22.3989  -50.2250 H         1 UNK         0.0600 
    223 H223       -9.5950  -22.5529  -51.9611 H         1 UNK         0.0600 
    224 H224       -9.2197  -21.0432  -51.1395 H         1 UNK         0.0600 
    225 H225       -5.5372  -21.3900  -50.5005 H         1 UNK         0.3000 
    226 H226       -4.3491  -22.0273  -53.0121 H         1 UNK         0.0600 
    227 H227       -2.4877  -20.6122  -52.1363 H         1 UNK         0.0600 
    228 H228       -3.5148  -20.0451  -50.8266 H         1 UNK         0.0600 
    229 H229       -3.0545  -21.7471  -50.9198 H         1 UNK         0.0600 
    230 H230       -6.3892  -19.4042  -52.0914 H         1 UNK         0.3000 
    231 H231       -7.0824  -17.4866  -52.9598 H         1 UNK         0.0600 
    232 H232       -5.9837  -18.4378  -55.6681 H         1 UNK         0.0600 
    233 H233       -7.1281  -17.1239  -55.4053 H         1 UNK         0.0600 
    234 H234       -7.5886  -18.7737  -55.0346 H         1 UNK         0.0600 
    235 H235       -5.0258  -16.5486  -55.3705 H         1 UNK         0.3000 
    236 H236       -3.3805  -15.0638  -55.5956 H         1 UNK         0.0600 
    237 H237       -2.0466  -17.0708  -55.2213 H         1 UNK         0.0600 
    238 H238       -1.2173  -15.7256  -54.4623 H         1 UNK         0.0600 
    239 H239       -2.1143  -16.8857  -53.4790 H         1 UNK         0.0600 
    240 H240       -2.1740  -15.1608  -52.3532 H         1 UNK         0.3000 
    241 H241       -2.7225  -12.3594  -51.9284 H         1 UNK         0.0600 
    242 H242       -5.7412  -14.2640  -50.0909 H         1 UNK         0.3800 
    243 H243       -4.7457  -15.0985  -51.2617 H         1 UNK         0.3800 
    244 H244       -1.3498  -12.4184  -50.0496 H         1 UNK         0.0800 
    245 H245       -0.5549  -13.3853  -51.2279 H         1 UNK         0.0800 
    246 H246       -2.2166  -16.8248  -49.1512 H         1 UNK         0.0800 
    247 H247       -2.7079  -16.0891  -50.6308 H         1 UNK         0.0800 
@<TRIPOS>BOND
     1    1    2 1    
     2    1  127 1    
     3    1  128 1    
     4    1  129 1    
     5    2    3 2    
     6    2    4 am   BACKBONE|DICT|INTERRES
     7    4    5 1    
     8    4  130 1    
     9    5    6 1    
    10    5   65 1    
    11    5  131 1    
    12    6    7 1    
    13    6  132 1    
    14    6  133 1    
    15    7    8 1    
    16    8    9 1    
    17    8  134 1    
    18    8  135 1    
    19    9   10 ar   
    20    9   14 ar   
    21   10   11 ar   
    22   10  136 1    
    23   11   12 ar   
    24   11  126 1    
    25   12   13 ar   
    26   12  137 1    
    27   13   14 ar   
    28   13   15 1    
    29   14  138 1    
    30   15   16 1    
    31   15  139 1    
    32   15  140 1    
    33   16   17 1    
    34   17   18 1    
    35   17  141 1    
    36   17  142 1    
    37   18   19 1    
    38   18   67 1    
    39   18  143 1    
    40   19   20 am   BACKBONE|DICT|INTERRES
    41   19  144 1    
    42   20   21 2    
    43   20   22 1    
    44   22   23 1    
    45   22   24 1    
    46   22  145 1    
    47   23  146 1    
    48   23  147 1    
    49   23  148 1    
    50   24   25 am   BACKBONE|DICT|INTERRES
    51   24  149 1    
    52   25   26 2    
    53   25   27 1    
    54   27   28 1    
    55   27   29 1    
    56   27  150 1    
    57   28  151 1    
    58   28  152 1    
    59   28  153 1    
    60   29   30 am   BACKBONE|DICT|INTERRES
    61   29  154 1    
    62   30   31 2    
    63   30   32 1    
    64   32   33 1    
    65   32   34 1    
    66   32  155 1    
    67   33  156 1    
    68   33  157 1    
    69   33  158 1    
    70   34   35 am   BACKBONE|DICT|INTERRES
    71   34  159 1    
    72   35   36 2    
    73   35   37 1    
    74   37   38 1    
    75   37   39 1    
    76   37  160 1    
    77   38  161 1    
    78   38  162 1    
    79   38  163 1    
    80   39   40 am   BACKBONE|DICT|INTERRES
    81   39  164 1    
    82   40   41 2    
    83   40   42 1    
    84   42   43 1    
    85   42   44 1    
    86   42  165 1    
    87   43  166 1    
    88   43  167 1    
    89   43  168 1    
    90   44   45 am   BACKBONE|DICT|INTERRES
    91   44  169 1    
    92   45   46 2    
    93   45   47 1    
    94   47   48 1    
    95   47   49 1    
    96   47  170 1    
    97   48  171 1    
    98   48  172 1    
    99   48  173 1    
   100   49   50 am   BACKBONE|DICT|INTERRES
   101   49  174 1    
   102   50   51 2    
   103   50   52 1    
   104   52   53 1    
   105   52   54 1    
   106   52  175 1    
   107   53  176 1    
   108   53  177 1    
   109   53  178 1    
   110   54   55 am   BACKBONE|DICT|INTERRES
   111   54  179 1    
   112   55   56 2    
   113   55   57 1    
   114   57   58 1    
   115   57   59 1    
   116   57  180 1    
   117   58  181 1    
   118   58  182 1    
   119   58  183 1    
   120   59   60 am   BACKBONE|DICT|INTERRES
   121   59  184 1    
   122   60   61 2    
   123   60   62 1    
   124   62   63 1    
   125   62   64 1    
   126   62  185 1    
   127   63  186 1    
   128   63  187 1    
   129   63  188 1    
   130   64   65 am   BACKBONE|DICT|INTERRES
   131   64  189 1    
   132   65   66 2    
   133   67   68 2    
   134   67   69 am   BACKBONE|DICT|INTERRES
   135   69   70 1    
   136   69  190 1    
   137   70   71 1    
   138   70   72 1    
   139   70  191 1    
   140   71  192 1    
   141   71  193 1    
   142   71  194 1    
   143   72   73 2    
   144   72   74 am   BACKBONE|DICT|INTERRES
   145   74   75 1    
   146   74  195 1    
   147   75   76 1    
   148   75   77 1    
   149   75  196 1    
   150   76  197 1    
   151   76  198 1    
   152   76  199 1    
   153   77   78 2    
   154   77   79 am   BACKBONE|DICT|INTERRES
   155   79   80 1    
   156   79  200 1    
   157   80   81 1    
   158   80   82 1    
   159   80  201 1    
   160   81  202 1    
   161   81  203 1    
   162   81  204 1    
   163   82   83 2    
   164   82   84 am   BACKBONE|DICT|INTERRES
   165   84   85 1    
   166   84  205 1    
   167   85   86 1    
   168   85   87 1    
   169   85  206 1    
   170   86  207 1    
   171   86  208 1    
   172   86  209 1    
   173   87   88 2    
   174   87   89 am   BACKBONE|DICT|INTERRES
   175   89   90 1    
   176   89  210 1    
   177   90   91 1    
   178   90   92 1    
   179   90  211 1    
   180   91  212 1    
   181   91  213 1    
   182   91  214 1    
   183   92   93 2    
   184   92   94 am   BACKBONE|DICT|INTERRES
   185   94   95 1    
   186   94  215 1    
   187   95   96 1    
   188   95   97 1    
   189   95  216 1    
   190   96  217 1    
   191   96  218 1    
   192   96  219 1    
   193   97   98 2    
   194   97   99 am   BACKBONE|DICT|INTERRES
   195   99  100 1    
   196   99  220 1    
   197  100  101 1    
   198  100  102 1    
   199  100  221 1    
   200  101  222 1    
   201  101  223 1    
   202  101  224 1    
   203  102  103 2    
   204  102  104 am   BACKBONE|DICT|INTERRES
   205  104  105 1    
   206  104  225 1    
   207  105  106 1    
   208  105  107 1    
   209  105  226 1    
   210  106  227 1    
   211  106  228 1    
   212  106  229 1    
   213  107  108 2    
   214  107  109 am   BACKBONE|DICT|INTERRES
   215  109  110 1    
   216  109  230 1    
   217  110  111 1    
   218  110  112 1    
   219  110  231 1    
   220  111  232 1    
   221  111  233 1    
   222  111  234 1    
   223  112  113 2    
   224  112  114 am   BACKBONE|DICT|INTERRES
   225  114  115 1    
   226  114  235 1    
   227  115  116 1    
   228  115  117 1    
   229  115  236 1    
   230  116  237 1    
   231  116  238 1    
   232  116  239 1    
   233  117  118 2    
   234  117  119 am   BACKBONE|DICT|INTERRES
   235  119  120 1    
   236  119  240 1    
   237  120  121 1    
   238  120  124 1    
   239  120  241 1    
   240  121  122 am   BACKBONE|DICT|INTERRES
   241  121  123 2    
   242  122  242 1    
   243  122  243 1    
   244  124  125 1    
   245  124  244 1    
   246  124  245 1    
   247  125  126 1    
   248  126  246 1    
   249  126  247 1    
@<TRIPOS>SUBSTRUCTURE
     1 UNK         1 GROUP             0       ****    0 ROOT    
