@<TRIPOS>MOLECULE
3R540
247   249    1
SMALL
USER_CHARGES


@<TRIPOS>ATOM
      1 CA         -3.6702  -10.0788  -48.0475 C.3       0 UNK        -0.1800 
      2 C          -2.3894  -10.4854  -47.3327 C.2       0 UNK         0.5000 
      3 O          -2.1977  -10.1323  -46.1695 O.2       0 UNK        -0.5000 
      4 N          -1.5143  -11.2270  -48.0230 N.am      1 UNK        -0.5000 
      5 CA         -0.2392  -11.7325  -47.4967 C.3       1 UNK         0.1400 
      6 C6          0.7851  -11.9764  -48.6336 C.3       23 UNK        -0.0398 
      7 S7          0.2779  -13.2673  -49.8261 S.3       23 UNK        -0.2404 
      8 C8          1.4351  -14.5965  -49.3756 C.3       23 UNK        -0.0205 
      9 C9          1.0017  -15.9332  -49.9522 C.ar      23 UNK        -0.0193 
     10 C10         1.2093  -16.2181  -51.3052 C.ar      23 UNK        -0.1150 
     11 C11         0.8359  -17.4571  -51.8341 C.ar      23 UNK        -0.0193 
     12 C12         0.2577  -18.4159  -50.9980 C.ar      23 UNK        -0.1150 
     13 C13         0.0520  -18.1439  -49.6430 C.ar      23 UNK        -0.0193 
     14 C14         0.4161  -16.8974  -49.1265 C.ar      23 UNK        -0.1150 
     15 C15        -0.5326  -19.2063  -48.7300 C.3       23 UNK        -0.0205 
     16 S16         0.7988  -20.0729  -47.8431 S.3       23 UNK        -0.2404 
     17 C17         0.3919  -21.8319  -48.0897 C.3       23 UNK        -0.0398 
     18 CA         -0.4945  -22.4539  -46.9856 C.3       11 UNK         0.1400 
     19 N           0.0854  -22.3536  -45.6405 N.am      11 UNK        -0.5000 
     20 C          -0.3310  -23.1007  -44.6075 C.2       10 UNK         0.5000 
     21 O          -1.2289  -23.9394  -44.6948 O.2       10 UNK        -0.5000 
     22 CA          0.3220  -22.8401  -43.2394 C.3       10 UNK         0.1400 
     23 CB          1.7228  -23.4663  -43.1689 C.3       10 UNK        -0.1800 
     24 N           0.3949  -21.4205  -42.8931 N.am      10 UNK        -0.5000 
     25 C          -0.6645  -20.6091  -42.7607 C.2       9 UNK         0.5000 
     26 O          -1.8255  -20.9611  -42.9583 O.2       9 UNK        -0.5000 
     27 CA         -0.3782  -19.1532  -42.3670 C.3       9 UNK         0.1400 
     28 CB         -0.0973  -19.0440  -40.8590 C.3       9 UNK        -0.1800 
     29 N           0.7492  -18.6204  -43.1268 N.am      9 UNK        -0.5000 
     30 C           0.6869  -18.2229  -44.4041 C.2       8 UNK         0.5000 
     31 O          -0.3689  -18.1010  -45.0240 O.2       8 UNK        -0.5000 
     32 CA          2.0152  -17.8651  -45.0959 C.3       8 UNK         0.1400 
     33 CB          2.2356  -16.3463  -45.0881 C.3       8 UNK        -0.1800 
     34 N           3.1717  -18.5337  -44.4981 N.am      8 UNK        -0.5000 
     35 C           3.4223  -19.8492  -44.5794 C.2       7 UNK         0.5000 
     36 O           2.7057  -20.6543  -45.1741 O.2       7 UNK        -0.5000 
     37 CA          4.6592  -20.3520  -43.8131 C.3       7 UNK         0.1400 
     38 CB          5.9401  -20.1061  -44.6242 C.3       7 UNK        -0.1800 
     39 N           4.7872  -19.7250  -42.4957 N.am      7 UNK        -0.5000 
     40 C           3.9304  -19.9227  -41.4840 C.2       6 UNK         0.5000 
     41 O           2.9649  -20.6835  -41.5490 O.2       6 UNK        -0.5000 
     42 CA          4.1573  -19.0854  -40.2100 C.3       6 UNK         0.1400 
     43 CB          5.2017  -19.7524  -39.3028 C.3       6 UNK        -0.1800 
     44 N           4.5580  -17.6992  -40.4813 N.am      6 UNK        -0.5000 
     45 C           3.8155  -16.8177  -41.1631 C.2       5 UNK         0.5000 
     46 O           2.7231  -17.0955  -41.6663 O.2       5 UNK        -0.5000 
     47 CA          4.3922  -15.4054  -41.3449 C.3       5 UNK         0.1400 
     48 CB          5.5861  -15.4101  -42.3159 C.3       5 UNK        -0.1800 
     49 N           3.3286  -14.5708  -41.8857 N.am      5 UNK        -0.5000 
     50 C           3.1767  -13.2501  -41.7575 C.2       4 UNK         0.5000 
     51 O           3.9878  -12.5212  -41.1851 O.2       4 UNK        -0.5000 
     52 CA          1.8981  -12.6400  -42.3747 C.3       4 UNK         0.1400 
     53 CB          2.2413  -11.8687  -43.6580 C.3       4 UNK        -0.1800 
     54 N           0.8648  -13.6415  -42.6756 N.am      4 UNK        -0.5000 
     55 C           0.1117  -14.2480  -41.7440 C.2       3 UNK         0.5000 
     56 O           0.1637  -13.9542  -40.5488 O.2       3 UNK        -0.5000 
     57 CA         -0.8017  -15.4098  -42.1971 C.3       3 UNK         0.1400 
     58 CB         -2.0759  -15.5479  -41.3392 C.3       3 UNK        -0.1800 
     59 N          -1.1289  -15.4322  -43.6266 N.am      3 UNK        -0.5000 
     60 C          -1.8089  -14.5059  -44.3117 C.2       2 UNK         0.5000 
     61 O          -2.2904  -13.4850  -43.8163 O.2       2 UNK        -0.5000 
     62 CA         -1.9613  -14.7695  -45.8209 C.3       2 UNK         0.1400 
     63 CB         -3.4017  -15.1813  -46.1596 C.3       2 UNK        -0.1800 
     64 N          -1.5981  -13.5998  -46.6184 N.am      2 UNK        -0.5000 
     65 C          -0.4082  -12.9804  -46.5979 C.2       1 UNK         0.5000 
     66 O           0.5455  -13.3696  -45.9228 O.2       1 UNK        -0.5000 
     67 C          -1.9450  -21.9324  -47.0502 C.2       11 UNK         0.5000 
     68 O          -2.7405  -22.4703  -47.8202 O.2       11 UNK        -0.5000 
     69 N          -2.2743  -20.9208  -46.2340 N.am      12 UNK        -0.5000 
     70 CA         -3.6247  -20.3723  -46.1129 C.3       12 UNK         0.1400 
     71 CB         -3.5676  -19.0111  -45.4052 C.3       12 UNK        -0.1800 
     72 C          -4.5790  -21.3398  -45.3899 C.2       12 UNK         0.5000 
     73 O          -5.7292  -21.4760  -45.8058 O.2       12 UNK        -0.5000 
     74 N          -4.0754  -22.0169  -44.3481 N.am      13 UNK        -0.5000 
     75 CA         -4.7816  -23.0598  -43.6040 C.3       13 UNK         0.1400 
     76 CB         -3.9993  -23.3996  -42.3261 C.3       13 UNK        -0.1800 
     77 C          -5.0256  -24.3229  -44.4490 C.2       13 UNK         0.5000 
     78 O          -6.1161  -24.8919  -44.3833 O.2       13 UNK        -0.5000 
     79 N          -4.0213  -24.7236  -45.2435 N.am      14 UNK        -0.5000 
     80 CA         -4.1242  -25.8111  -46.2200 C.3       14 UNK         0.1400 
     81 CB         -2.7243  -26.1561  -46.7505 C.3       14 UNK        -0.1800 
     82 C          -5.0706  -25.4652  -47.3856 C.2       14 UNK         0.5000 
     83 O          -5.7913  -26.3397  -47.8652 O.2       14 UNK        -0.5000 
     84 N          -5.0369  -24.1944  -47.8117 N.am      15 UNK        -0.5000 
     85 CA         -5.8610  -23.5289  -48.8266 C.3       15 UNK         0.1400 
     86 CB         -7.3591  -23.6193  -48.4780 C.3       15 UNK        -0.1800 
     87 C          -5.5894  -23.9605  -50.2808 C.2       15 UNK         0.5000 
     88 O          -6.1338  -23.3399  -51.1935 O.2       15 UNK        -0.5000 
     89 N          -4.7392  -24.9734  -50.4950 N.am      16 UNK        -0.5000 
     90 CA         -4.3933  -25.5171  -51.8097 C.3       16 UNK         0.1400 
     91 CB         -3.5196  -26.7673  -51.6285 C.3       16 UNK        -0.1800 
     92 C          -3.6977  -24.4917  -52.7215 C.2       16 UNK         0.5000 
     93 O          -4.0347  -24.3989  -53.9013 O.2       16 UNK        -0.5000 
     94 N          -2.7740  -23.7081  -52.1471 N.am      17 UNK        -0.5000 
     95 CA         -2.0613  -22.6373  -52.8463 C.3       17 UNK         0.1400 
     96 CB         -0.8816  -22.1621  -51.9883 C.3       17 UNK        -0.1800 
     97 C          -2.9789  -21.4537  -53.1991 C.2       17 UNK         0.5000 
     98 O          -2.8120  -20.8539  -54.2605 O.2       17 UNK        -0.5000 
     99 N          -3.9455  -21.1611  -52.3173 N.am      18 UNK        -0.5000 
    100 CA        -4.9631  -20.1307  -52.5171 C.3       18 UNK         0.1400 
    101 CB        -5.6672  -19.8310  -51.1846 C.3       18 UNK        -0.1800 
    102 C         -5.9716  -20.5319  -53.6075 C.2       18 UNK         0.5000 
    103 O         -6.2885  -19.7117  -54.4683 O.2       18 UNK        -0.5000 
    104 N         -6.4095  -21.7995  -53.5903 N.am      19 UNK        -0.5000 
    105 CA        -7.2754  -22.4044  -54.6061 C.3       19 UNK         0.1400 
    106 CB        -7.7009  -23.8059  -54.1430 C.3       19 UNK        -0.1800 
    107 C         -6.6139  -22.4660  -55.9967 C.2       19 UNK         0.5000 
    108 O         -7.2881  -22.2469  -57.0034 O.2       19 UNK        -0.5000 
    109 N         -5.2979  -22.7158  -56.0218 N.am      20 UNK        -0.5000 
    110 CA        -4.4522  -22.6741  -57.2163 C.3       20 UNK         0.1400 
    111 CB        -3.1775  -23.4892  -56.9437 C.3       20 UNK        -0.1800 
    112 C         -4.0859  -21.2437  -57.6679 C.2       20 UNK         0.5000 
    113 O         -3.4288  -21.0976  -58.7000 O.2       20 UNK        -0.5000 
    114 N         -4.4695  -20.2219  -56.8851 N.am      21 UNK        -0.5000 
    115 CA        -4.1884  -18.7935  -57.0752 C.3       21 UNK         0.1400 
    116 CB        -5.0001  -18.2429  -58.2656 C.3       21 UNK        -0.1800 
    117 C         -2.6786  -18.4861  -57.1786 C.2       21 UNK         0.5000 
    118 O         -2.2697  -17.6439  -57.9803 O.2       21 UNK        -0.5000 
    119 N         -1.8810  -19.2107  -56.3830 N.am      22 UNK        -0.5000 
    120 CA        -0.4089  -19.2185  -56.3774 C.3       22 UNK         0.1400 
    121 C          0.2461  -19.8113  -57.6649 C.2       22 UNK         0.5000 
    122 N         -0.4898  -20.4625  -58.5592 N.am      22 UNK        -0.7600 
    123 O          1.4571  -19.7136  -57.8448 O.2       22 UNK        -0.5000 
    124 C124        0.2133  -17.8536  -55.9654 C.3       23 UNK        -0.0398 
    125 S125       -0.3499  -17.2902  -54.3220 S.3       23 UNK        -0.2404 
    126 C126        1.0760  -17.7695  -53.3017 C.3       23 UNK        -0.0205 
    127 H127       -4.5372  -10.4715  -47.5163 H         1 UNK         0.0600 
    128 H128       -3.7527   -8.9925  -48.0808 H         1 UNK         0.0600 
    129 H129       -3.7001  -10.4532  -49.0710 H         1 UNK         0.0600 
    130 H130       -1.7209  -11.4872  -48.9777 H         1 UNK         0.3000 
    131 H131        0.1849  -10.9578  -46.8540 H         1 UNK         0.0600 
    132 H132        1.7633  -12.2196  -48.2147 H         1 UNK         0.0800 
    133 H133        0.9355  -11.0501  -49.1896 H         1 UNK         0.0800 
    134 H134        1.5106  -14.6682  -48.2893 H         1 UNK         0.0800 
    135 H135        2.4332  -14.3449  -49.7370 H         1 UNK         0.0800 
    136 H136        1.6615  -15.4739  -51.9458 H         1 UNK         0.1150 
    137 H137       -0.0213  -19.3781  -51.4005 H         1 UNK         0.1150 
    138 H138        0.2629  -16.6894  -48.0765 H         1 UNK         0.1150 
    139 H139       -1.2013  -18.7444  -48.0018 H         1 UNK         0.0800 
    140 H140       -1.1415  -19.9050  -49.3045 H         1 UNK         0.0800 
    141 H141       -0.0529  -21.9762  -49.0740 H         1 UNK         0.0800 
    142 H142        1.3381  -22.3734  -48.1246 H         1 UNK         0.0800 
    143 H143       -0.5542  -23.5195  -47.2173 H         1 UNK         0.0600 
    144 H144        0.8369  -21.6839  -45.5077 H         1 UNK         0.3000 
    145 H145       -0.2996  -23.3255  -42.4842 H         1 UNK         0.0600 
    146 H146        2.4090  -23.0056  -43.8793 H         1 UNK         0.0600 
    147 H147        2.1522  -23.3590  -42.1726 H         1 UNK         0.0600 
    148 H148        1.6851  -24.5330  -43.3934 H         1 UNK         0.0600 
    149 H149        1.3163  -21.0574  -42.6730 H         1 UNK         0.3000 
    150 H150       -1.2676  -18.5601  -42.5905 H         1 UNK         0.0600 
    151 H151        0.1305  -18.0214  -40.5612 H         1 UNK         0.0600 
    152 H152        0.7423  -19.6680  -40.5544 H         1 UNK         0.0600 
    153 H153       -0.9653  -19.3638  -40.2814 H         1 UNK         0.0600 
    154 H154        1.6431  -18.5776  -42.6520 H         1 UNK         0.3000 
    155 H155        1.9476  -18.1790  -46.1367 H         1 UNK         0.0600 
    156 H156        1.4278  -15.8400  -45.6163 H         1 UNK         0.0600 
    157 H157        3.1657  -16.0762  -45.5883 H         1 UNK         0.0600 
    158 H158        2.2679  -15.9463  -44.0767 H         1 UNK         0.0600 
    159 H159        3.7912  -17.9594  -43.9474 H         1 UNK         0.3000 
    160 H160        4.5478  -21.4290  -43.6694 H         1 UNK         0.0600 
    161 H161        6.1241  -19.0422  -44.7788 H         1 UNK         0.0600 
    162 H162        5.8743  -20.5743  -45.6073 H         1 UNK         0.0600 
    163 H163        6.8110  -20.5280  -44.1223 H         1 UNK         0.0600 
    164 H164        5.5546  -19.0832  -42.3624 H         1 UNK         0.3000 
    165 H165        3.2091  -19.0541  -39.6690 H         1 UNK         0.0600 
    166 H166        6.1857  -19.7805  -39.7723 H         1 UNK         0.0600 
    167 H167        5.2965  -19.2226  -38.3548 H         1 UNK         0.0600 
    168 H168        4.9185  -20.7803  -39.0717 H         1 UNK         0.0600 
    169 H169        5.4463  -17.4044  -40.1017 H         1 UNK         0.3000 
    170 H170        4.6995  -15.0255  -40.3686 H         1 UNK         0.0600 
    171 H171        6.4033  -16.0242  -41.9364 H         1 UNK         0.0600 
    172 H172        5.3059  -15.8002  -43.2953 H         1 UNK         0.0600 
    173 H173        5.9801  -14.4039  -42.4595 H         1 UNK         0.0600 
    174 H174        2.5760  -15.1051  -42.2987 H         1 UNK         0.3000 
    175 H175        1.4922  -11.9292  -41.6519 H         1 UNK         0.0600 
    176 H176        1.3568  -11.3913  -44.0801 H         1 UNK         0.0600 
    177 H177        2.9702  -11.0821  -43.4593 H         1 UNK         0.0600 
    178 H178        2.6664  -12.5247  -44.4187 H         1 UNK         0.0600 
    179 H179        0.7435  -13.8867  -43.6505 H         1 UNK         0.3000 
    180 H180       -0.2013  -16.2997  -42.0263 H         1 UNK         0.0600 
    181 H181       -2.6726  -16.4035  -41.6555 H         1 UNK         0.0600 
    182 H182       -1.8280  -15.7007  -40.2883 H         1 UNK         0.0600 
    183 H183       -2.7036  -14.6586  -41.4010 H         1 UNK         0.0600 
    184 H184       -0.8144  -16.2536  -44.1312 H         1 UNK         0.3000 
    185 H185       -1.2941  -15.5849  -46.1089 H         1 UNK         0.0600 
    186 H186       -3.4916  -15.4811  -47.2039 H         1 UNK         0.0600 
    187 H187       -3.7210  -16.0261  -45.5490 H         1 UNK         0.0600 
    188 H188       -4.1048  -14.3669  -45.9801 H         1 UNK         0.0600 
    189 H189       -2.3258  -13.1987  -47.1899 H         1 UNK         0.3000 
    190 H190       -1.5665  -20.5300  -45.6281 H         1 UNK         0.3000 
    191 H191       -4.0174  -20.2094  -47.1191 H         1 UNK         0.0600 
    192 H192       -4.5620  -18.5708  -45.3242 H         1 UNK         0.0600 
    193 H193       -2.9449  -18.3104  -45.9611 H         1 UNK         0.0600 
    194 H194       -3.1605  -19.0921  -44.3974 H         1 UNK         0.0600 
    195 H195       -3.1411  -21.7839  -44.0211 H         1 UNK         0.3000 
    196 H196       -5.7551  -22.6621  -43.3099 H         1 UNK         0.0600 
    197 H197       -4.5128  -24.1665  -41.7451 H         1 UNK         0.0600 
    198 H198       -3.8920  -22.5235  -41.6863 H         1 UNK         0.0600 
    199 H199       -2.9994  -23.7714  -42.5519 H         1 UNK         0.0600 
    200 H200       -3.1251  -24.2506  -45.1755 H         1 UNK         0.3000 
    201 H201       -4.5246  -26.6902  -45.7109 H         1 UNK         0.0600 
    202 H202       -2.0577  -26.4511  -45.9398 H         1 UNK         0.0600 
    203 H203       -2.2689  -25.3102  -47.2659 H         1 UNK         0.0600 
    204 H204       -2.7670  -26.9872  -47.4555 H         1 UNK         0.0600 
    205 H205       -4.3255  -23.5925  -47.4097 H         1 UNK         0.3000 
    206 H206       -5.5805  -22.4758  -48.7754 H         1 UNK         0.0600 
    207 H207       -7.5472  -23.2696  -47.4626 H         1 UNK         0.0600 
    208 H208       -7.9539  -22.9992  -49.1497 H         1 UNK         0.0600 
    209 H209       -7.7361  -24.6390  -48.5589 H         1 UNK         0.0600 
    210 H210       -4.3535  -25.4420  -49.6892 H         1 UNK         0.3000 
    211 H211       -5.3218  -25.8176  -52.2997 H         1 UNK         0.0600 
    212 H212       -3.2587  -27.2043  -52.5934 H         1 UNK         0.0600 
    213 H213       -4.0433  -27.5339  -51.0569 H         1 UNK         0.0600 
    214 H214       -2.5886  -26.5385  -51.1084 H         1 UNK         0.0600 
    215 H215       -2.5644  -23.8422  -51.1689 H         1 UNK         0.3000 
    216 H216       -1.6632  -23.0441  -53.7783 H         1 UNK         0.0600 
    217 H217       -0.2780  -21.4352  -52.5328 H         1 UNK         0.0600 
    218 H218       -0.2258  -22.9901  -51.7188 H         1 UNK         0.0600 
    219 H219       -1.2246  -21.6869  -51.0694 H         1 UNK         0.0600 
    220 H220       -4.0342  -21.7339  -51.4921 H         1 UNK         0.3000 
    221 H221       -4.4612  -19.2179  -52.8457 H         1 UNK         0.0600 
    222 H222       -6.2001  -20.7000  -50.7989 H         1 UNK         0.0600 
    223 H223       -4.9538  -19.5108  -50.4249 H         1 UNK         0.0600 
    224 H224       -6.3963  -19.0287  -51.3040 H         1 UNK         0.0600 
    225 H225       -6.1442  -22.3968  -52.8106 H         1 UNK         0.3000 
    226 H226       -8.1713  -21.7861  -54.6916 H         1 UNK         0.0600 
    227 H227       -8.3684  -24.2721  -54.8686 H         1 UNK         0.0600 
    228 H228       -6.8418  -24.4650  -54.0144 H         1 UNK         0.0600 
    229 H229       -8.2324  -23.7619  -53.1922 H         1 UNK         0.0600 
    230 H230       -4.8355  -22.9618  -55.1531 H         1 UNK         0.3000 
    231 H231       -4.9890  -23.1473  -58.0409 H         1 UNK         0.0600 
    232 H232       -2.5396  -23.5328  -57.8273 H         1 UNK         0.0600 
    233 H233       -3.4172  -24.5162  -56.6677 H         1 UNK         0.0600 
    234 H234       -2.5892  -23.0534  -56.1357 H         1 UNK         0.0600 
    235 H235       -4.9902  -20.4423  -56.0456 H         1 UNK         0.3000 
    236 H236       -4.5384  -18.2893  -56.1735 H         1 UNK         0.0600 
    237 H237       -4.6707  -18.6719  -59.2125 H         1 UNK         0.0600 
    238 H238       -6.0621  -18.4597  -58.1504 H         1 UNK         0.0600 
    239 H239       -4.8975  -17.1599  -58.3425 H         1 UNK         0.0600 
    240 H240       -2.3148  -19.8589  -55.7284 H         1 UNK         0.3000 
    241 H241       -0.1424  -19.9330  -55.5978 H         1 UNK         0.0600 
    242 H242       -0.0418  -20.8465  -59.3758 H         1 UNK         0.3800 
    243 H243       -1.4941  -20.5561  -58.4539 H         1 UNK         0.3800 
    244 H244       -0.0325  -17.0832  -56.6969 H         1 UNK         0.0800 
    245 H245        1.3028  -17.9122  -55.9569 H         1 UNK         0.0800 
    246 H246        1.2715  -18.8355  -53.4290 H         1 UNK         0.0800 
    247 H247        1.9675  -17.2468  -53.6522 H         1 UNK         0.0800 
@<TRIPOS>BOND
     1    1    2 1    
     2    1  127 1    
     3    1  128 1    
     4    1  129 1    
     5    2    3 2    
     6    2    4 am   BACKBONE|DICT|INTERRES
     7    4    5 1    
     8    4  130 1    
     9    5    6 1    
    10    5   65 1    
    11    5  131 1    
    12    6    7 1    
    13    6  132 1    
    14    6  133 1    
    15    7    8 1    
    16    8    9 1    
    17    8  134 1    
    18    8  135 1    
    19    9   10 ar   
    20    9   14 ar   
    21   10   11 ar   
    22   10  136 1    
    23   11   12 ar   
    24   11  126 1    
    25   12   13 ar   
    26   12  137 1    
    27   13   14 ar   
    28   13   15 1    
    29   14  138 1    
    30   15   16 1    
    31   15  139 1    
    32   15  140 1    
    33   16   17 1    
    34   17   18 1    
    35   17  141 1    
    36   17  142 1    
    37   18   19 1    
    38   18   67 1    
    39   18  143 1    
    40   19   20 am   BACKBONE|DICT|INTERRES
    41   19  144 1    
    42   20   21 2    
    43   20   22 1    
    44   22   23 1    
    45   22   24 1    
    46   22  145 1    
    47   23  146 1    
    48   23  147 1    
    49   23  148 1    
    50   24   25 am   BACKBONE|DICT|INTERRES
    51   24  149 1    
    52   25   26 2    
    53   25   27 1    
    54   27   28 1    
    55   27   29 1    
    56   27  150 1    
    57   28  151 1    
    58   28  152 1    
    59   28  153 1    
    60   29   30 am   BACKBONE|DICT|INTERRES
    61   29  154 1    
    62   30   31 2    
    63   30   32 1    
    64   32   33 1    
    65   32   34 1    
    66   32  155 1    
    67   33  156 1    
    68   33  157 1    
    69   33  158 1    
    70   34   35 am   BACKBONE|DICT|INTERRES
    71   34  159 1    
    72   35   36 2    
    73   35   37 1    
    74   37   38 1    
    75   37   39 1    
    76   37  160 1    
    77   38  161 1    
    78   38  162 1    
    79   38  163 1    
    80   39   40 am   BACKBONE|DICT|INTERRES
    81   39  164 1    
    82   40   41 2    
    83   40   42 1    
    84   42   43 1    
    85   42   44 1    
    86   42  165 1    
    87   43  166 1    
    88   43  167 1    
    89   43  168 1    
    90   44   45 am   BACKBONE|DICT|INTERRES
    91   44  169 1    
    92   45   46 2    
    93   45   47 1    
    94   47   48 1    
    95   47   49 1    
    96   47  170 1    
    97   48  171 1    
    98   48  172 1    
    99   48  173 1    
   100   49   50 am   BACKBONE|DICT|INTERRES
   101   49  174 1    
   102   50   51 2    
   103   50   52 1    
   104   52   53 1    
   105   52   54 1    
   106   52  175 1    
   107   53  176 1    
   108   53  177 1    
   109   53  178 1    
   110   54   55 am   BACKBONE|DICT|INTERRES
   111   54  179 1    
   112   55   56 2    
   113   55   57 1    
   114   57   58 1    
   115   57   59 1    
   116   57  180 1    
   117   58  181 1    
   118   58  182 1    
   119   58  183 1    
   120   59   60 am   BACKBONE|DICT|INTERRES
   121   59  184 1    
   122   60   61 2    
   123   60   62 1    
   124   62   63 1    
   125   62   64 1    
   126   62  185 1    
   127   63  186 1    
   128   63  187 1    
   129   63  188 1    
   130   64   65 am   BACKBONE|DICT|INTERRES
   131   64  189 1    
   132   65   66 2    
   133   67   68 2    
   134   67   69 am   BACKBONE|DICT|INTERRES
   135   69   70 1    
   136   69  190 1    
   137   70   71 1    
   138   70   72 1    
   139   70  191 1    
   140   71  192 1    
   141   71  193 1    
   142   71  194 1    
   143   72   73 2    
   144   72   74 am   BACKBONE|DICT|INTERRES
   145   74   75 1    
   146   74  195 1    
   147   75   76 1    
   148   75   77 1    
   149   75  196 1    
   150   76  197 1    
   151   76  198 1    
   152   76  199 1    
   153   77   78 2    
   154   77   79 am   BACKBONE|DICT|INTERRES
   155   79   80 1    
   156   79  200 1    
   157   80   81 1    
   158   80   82 1    
   159   80  201 1    
   160   81  202 1    
   161   81  203 1    
   162   81  204 1    
   163   82   83 2    
   164   82   84 am   BACKBONE|DICT|INTERRES
   165   84   85 1    
   166   84  205 1    
   167   85   86 1    
   168   85   87 1    
   169   85  206 1    
   170   86  207 1    
   171   86  208 1    
   172   86  209 1    
   173   87   88 2    
   174   87   89 am   BACKBONE|DICT|INTERRES
   175   89   90 1    
   176   89  210 1    
   177   90   91 1    
   178   90   92 1    
   179   90  211 1    
   180   91  212 1    
   181   91  213 1    
   182   91  214 1    
   183   92   93 2    
   184   92   94 am   BACKBONE|DICT|INTERRES
   185   94   95 1    
   186   94  215 1    
   187   95   96 1    
   188   95   97 1    
   189   95  216 1    
   190   96  217 1    
   191   96  218 1    
   192   96  219 1    
   193   97   98 2    
   194   97   99 am   BACKBONE|DICT|INTERRES
   195   99  100 1    
   196   99  220 1    
   197  100  101 1    
   198  100  102 1    
   199  100  221 1    
   200  101  222 1    
   201  101  223 1    
   202  101  224 1    
   203  102  103 2    
   204  102  104 am   BACKBONE|DICT|INTERRES
   205  104  105 1    
   206  104  225 1    
   207  105  106 1    
   208  105  107 1    
   209  105  226 1    
   210  106  227 1    
   211  106  228 1    
   212  106  229 1    
   213  107  108 2    
   214  107  109 am   BACKBONE|DICT|INTERRES
   215  109  110 1    
   216  109  230 1    
   217  110  111 1    
   218  110  112 1    
   219  110  231 1    
   220  111  232 1    
   221  111  233 1    
   222  111  234 1    
   223  112  113 2    
   224  112  114 am   BACKBONE|DICT|INTERRES
   225  114  115 1    
   226  114  235 1    
   227  115  116 1    
   228  115  117 1    
   229  115  236 1    
   230  116  237 1    
   231  116  238 1    
   232  116  239 1    
   233  117  118 2    
   234  117  119 am   BACKBONE|DICT|INTERRES
   235  119  120 1    
   236  119  240 1    
   237  120  121 1    
   238  120  124 1    
   239  120  241 1    
   240  121  122 am   BACKBONE|DICT|INTERRES
   241  121  123 2    
   242  122  242 1    
   243  122  243 1    
   244  124  125 1    
   245  124  244 1    
   246  124  245 1    
   247  125  126 1    
   248  126  246 1    
   249  126  247 1    
@<TRIPOS>SUBSTRUCTURE
     1 UNK         1 GROUP             0       ****    0 ROOT    
