@<TRIPOS>MOLECULE
3R540
247   249    1
SMALL
USER_CHARGES


@<TRIPOS>ATOM
      1 CA         -2.3185   -9.3008  -50.8801 C.3       0 UNK        -0.1800 
      2 C          -1.3317  -10.4228  -50.5916 C.2       0 UNK         0.5000 
      3 O          -0.2619  -10.4729  -51.2002 O.2       0 UNK        -0.5000 
      4 N          -1.6775  -11.3177  -49.6583 N.am      1 UNK        -0.5000 
      5 CA         -0.8766  -12.4766  -49.2429 C.3       1 UNK         0.1400 
      6 C6         -1.7598  -13.6226  -48.6789 C.3       23 UNK        -0.0398 
      7 S7         -3.0356  -14.1871  -49.8560 S.3       23 UNK        -0.2404 
      8 C8         -4.5587  -13.5617  -49.0751 C.3       23 UNK        -0.0205 
      9 C9         -5.2719  -14.6411  -48.2732 C.ar      23 UNK        -0.0193 
     10 C10        -6.2508  -15.4202  -48.8932 C.ar      23 UNK        -0.1150 
     11 C11        -6.9342  -16.4096  -48.1828 C.ar      23 UNK        -0.0193 
     12 C12        -6.6502  -16.5982  -46.8269 C.ar      23 UNK        -0.1150 
     13 C13        -5.6889  -15.8121  -46.1850 C.ar      23 UNK        -0.0193 
     14 C14        -4.9922  -14.8425  -46.9170 C.ar      23 UNK        -0.1150 
     15 C15        -5.4472  -15.9691  -44.6896 C.3       23 UNK        -0.0205 
     16 S16        -4.0272  -17.0424  -44.3204 S.3       23 UNK        -0.2404 
     17 C17        -4.7416  -18.7271  -44.3521 C.3       23 UNK        -0.0398 
     18 CA         -4.5953  -19.4549  -45.7138 C.3       11 UNK         0.1400 
     19 N          -3.2830  -19.2397  -46.3202 N.am      11 UNK        -0.5000 
     20 C          -3.0053  -19.3887  -47.6189 C.2       10 UNK         0.5000 
     21 O          -3.7915  -19.8490  -48.4454 O.2       10 UNK        -0.5000 
     22 CA         -1.6086  -18.9225  -48.0611 C.3       10 UNK         0.1400 
     23 CB         -1.6365  -17.4189  -48.3748 C.3       10 UNK        -0.1800 
     24 N          -0.5898  -19.1988  -47.0446 N.am      10 UNK        -0.5000 
     25 C          -0.1092  -20.4267  -46.7993 C.2       9 UNK         0.5000 
     26 O          -0.4114  -21.4222  -47.4511 O.2       9 UNK        -0.5000 
     27 CA          0.8458  -20.5787  -45.6068 C.3       9 UNK         0.1400 
     28 CB          2.2839  -20.2272  -46.0170 C.3       9 UNK        -0.1800 
     29 N           0.4585  -19.7527  -44.4681 N.am      9 UNK        -0.5000 
     30 C          -0.6540  -19.8878  -43.7352 C.2       8 UNK         0.5000 
     31 O          -1.5173  -20.7347  -43.9651 O.2       8 UNK        -0.5000 
     32 CA         -0.8551  -18.8813  -42.5817 C.3       8 UNK         0.1400 
     33 CB         -1.4775  -19.5331  -41.3313 C.3       8 UNK        -0.1800 
     34 N           0.3539  -18.1183  -42.2462 N.am      8 UNK        -0.5000 
     35 C           1.5096  -18.5630  -41.7281 C.2       7 UNK         0.5000 
     36 O           1.7043  -19.7249  -41.3717 O.2       7 UNK        -0.5000 
     37 CA          2.6648  -17.5436  -41.6373 C.3       7 UNK         0.1400 
     38 CB          3.6857  -17.8033  -42.7567 C.3       7 UNK        -0.1800 
     39 N           2.2148  -16.1542  -41.7355 N.am      7 UNK        -0.5000 
     40 C           1.5668  -15.4896  -40.7697 C.2       6 UNK         0.5000 
     41 O           1.3570  -15.9433  -39.6445 O.2       6 UNK        -0.5000 
     42 CA          1.0205  -14.1029  -41.1497 C.3       6 UNK         0.1400 
     43 CB          2.1060  -13.0244  -41.0093 C.3       6 UNK        -0.1800 
     44 N           0.4765  -14.0795  -42.5100 N.am      6 UNK        -0.5000 
     45 C          -0.6621  -14.6807  -42.8846 C.2       5 UNK         0.5000 
     46 O          -1.3750  -15.3304  -42.1213 O.2       5 UNK        -0.5000 
     47 CA         -1.0613  -14.5402  -44.3632 C.3       5 UNK         0.1400 
     48 CB         -1.7604  -13.1903  -44.5823 C.3       5 UNK        -0.1800 
     49 N           0.0858  -14.6683  -45.2639 N.am      5 UNK        -0.5000 
     50 C           0.7260  -15.8209  -45.5082 C.2       4 UNK         0.5000 
     51 O           0.3295  -16.9148  -45.1092 O.2       4 UNK        -0.5000 
     52 CA          2.0429  -15.7598  -46.3047 C.3       4 UNK         0.1400 
     53 CB          1.8054  -16.0622  -47.7892 C.3       4 UNK        -0.1800 
     54 N           2.7515  -14.4878  -46.1804 N.am      4 UNK        -0.5000 
     55 C           3.2898  -14.0006  -45.0571 C.2       3 UNK         0.5000 
     56 O           3.2225  -14.5808  -43.9732 O.2       3 UNK        -0.5000 
     57 CA          3.9838  -12.6241  -45.1365 C.3       3 UNK         0.1400 
     58 CB          5.4723  -12.7741  -45.5016 C.3       3 UNK        -0.1800 
     59 N           3.3050  -11.6476  -46.0041 N.am      3 UNK        -0.5000 
     60 C           3.1425  -11.6714  -47.3347 C.2       2 UNK         0.5000 
     61 O           3.6181  -12.5324  -48.0782 O.2       2 UNK        -0.5000 
     62 CA          2.2295  -10.5824  -47.9273 C.3       2 UNK         0.1400 
     63 CB          3.0274   -9.6264  -48.8267 C.3       2 UNK        -0.1800 
     64 N           1.1215  -11.1536  -48.6964 N.am      2 UNK        -0.5000 
     65 C           0.2218  -12.0394  -48.2460 C.2       1 UNK         0.5000 
     66 O           0.2199  -12.4739  -47.0929 O.2       1 UNK        -0.5000 
     67 C          -4.9183  -20.9564  -45.5732 C.2       11 UNK         0.5000 
     68 O          -6.0629  -21.3563  -45.7876 O.2       11 UNK        -0.5000 
     69 N          -3.9010  -21.7549  -45.2260 N.am      12 UNK        -0.5000 
     70 CA         -3.9652  -23.2019  -45.0449 C.3       12 UNK         0.1400 
     71 CB         -3.7257  -23.5293  -43.5597 C.3       12 UNK        -0.1800 
     72 C          -2.9433  -23.8696  -45.9812 C.2       12 UNK         0.5000 
     73 O          -2.0493  -24.5859  -45.5285 O.2       12 UNK        -0.5000 
     74 N          -3.0936  -23.6080  -47.2861 N.am      13 UNK        -0.5000 
     75 CA         -2.1859  -24.0574  -48.3466 C.3       13 UNK         0.1400 
     76 CB         -2.3663  -23.1409  -49.5627 C.3       13 UNK        -0.1800 
     77 C          -2.3501  -25.5334  -48.7607 C.2       13 UNK         0.5000 
     78 O          -1.6231  -25.9819  -49.6496 O.2       13 UNK        -0.5000 
     79 N          -3.3039  -26.2517  -48.1490 N.am      14 UNK        -0.5000 
     80 CA         -3.6156  -27.6703  -48.3656 C.3       14 UNK         0.1400 
     81 CB         -2.4527  -28.5593  -47.8753 C.3       14 UNK        -0.1800 
     82 C          -4.0331  -27.9632  -49.8218 C.2       14 UNK         0.5000 
     83 O          -3.4791  -28.8581  -50.4605 O.2       14 UNK        -0.5000 
     84 N          -4.9909  -27.1654  -50.3194 N.am      15 UNK        -0.5000 
     85 CA         -5.5092  -27.1609  -51.6944 C.3       15 UNK         0.1400 
     86 CB         -6.2177  -28.4903  -52.0328 C.3       15 UNK        -0.1800 
     87 C          -4.4337  -26.7581  -52.7265 C.2       15 UNK         0.5000 
     88 O          -4.3384  -27.3608  -53.7971 O.2       15 UNK        -0.5000 
     89 N          -3.6511  -25.7297  -52.3659 N.am      16 UNK        -0.5000 
     90 CA         -2.5476  -25.1368  -53.1290 C.3       16 UNK         0.1400 
     91 CB         -3.0619  -24.4660  -54.4208 C.3       16 UNK        -0.1800 
     92 C          -1.3860  -26.1230  -53.3756 C.2       16 UNK         0.5000 
     93 O          -0.8398  -26.1776  -54.4796 O.2       16 UNK        -0.5000 
     94 N          -1.0357  -26.8896  -52.3360 N.am      17 UNK        -0.5000 
     95 CA          0.0808  -27.8327  -52.3376 C.3       17 UNK         0.1400 
     96 CB         -0.3668  -29.1488  -51.6847 C.3       17 UNK        -0.1800 
     97 C           1.2956  -27.2546  -51.5949 C.2       17 UNK         0.5000 
     98 O           2.4257  -27.4422  -52.0472 O.2       17 UNK        -0.5000 
     99 N           1.0497  -26.5663  -50.4715 N.am      18 UNK        -0.5000 
    100 CA         2.0857  -25.9906  -49.6110 C.3       18 UNK         0.1400 
    101 CB         1.5823  -26.0018  -48.1589 C.3       18 UNK        -0.1800 
    102 C          2.4903  -24.5641  -50.0276 C.2       18 UNK         0.5000 
    103 O          3.5452  -24.0902  -49.6035 O.2       18 UNK        -0.5000 
    104 N          1.6555  -23.9029  -50.8361 N.am      19 UNK        -0.5000 
    105 CA         1.8243  -22.5377  -51.3231 C.3       19 UNK         0.1400 
    106 CB         1.4996  -21.5345  -50.1972 C.3       19 UNK        -0.1800 
    107 C          0.8953  -22.3302  -52.5290 C.2       19 UNK         0.5000 
    108 O          0.1478  -23.2400  -52.8919 O.2       19 UNK        -0.5000 
    109 N          0.9184  -21.1187  -53.0996 N.am      20 UNK        -0.5000 
    110 CA         0.0350  -20.6801  -54.1884 C.3       20 UNK         0.1400 
    111 CB         0.6239  -19.4030  -54.8094 C.3       20 UNK        -0.1800 
    112 C         -1.4336  -20.4492  -53.7601 C.2       20 UNK         0.5000 
    113 O         -2.2790  -20.1986  -54.6203 O.2       20 UNK        -0.5000 
    114 N         -1.7046  -20.5348  -52.4502 N.am      21 UNK        -0.5000 
    115 CA        -2.9949  -20.3448  -51.7882 C.3       21 UNK         0.1400 
    116 CB        -4.0283  -21.3938  -52.2606 C.3       21 UNK        -0.1800 
    117 C         -3.4871  -18.8865  -51.8598 C.2       21 UNK         0.5000 
    118 O         -2.6689  -17.9651  -51.8391 O.2       21 UNK        -0.5000 
    119 N         -4.8109  -18.7078  -51.8980 N.am      22 UNK        -0.5000 
    120 CA        -5.5093  -17.4148  -51.8507 C.3       22 UNK         0.1400 
    121 C         -5.3480  -16.5190  -53.1162 C.2       22 UNK         0.5000 
    122 N         -4.7504  -16.9914  -54.2036 N.am      22 UNK        -0.7600 
    123 O         -5.7787  -15.3692  -53.1111 O.2       22 UNK        -0.5000 
    124 C124       -7.0111  -17.6097  -51.5095 C.3       23 UNK        -0.0398 
    125 S125       -7.2950  -18.5266  -49.9509 S.3       23 UNK        -0.2404 
    126 C126       -8.0057  -17.2461  -48.8672 C.3       23 UNK        -0.0205 
    127 H127       -3.2194   -9.3866  -50.2719 H         1 UNK         0.0600 
    128 H128       -1.8587   -8.3344  -50.6731 H         1 UNK         0.0600 
    129 H129       -2.6135   -9.3218  -51.9291 H         1 UNK         0.0600 
    130 H130       -2.5574  -11.2055  -49.1771 H         1 UNK         0.3000 
    131 H131       -0.3613  -12.8736  -50.1204 H         1 UNK         0.0600 
    132 H132       -1.1427  -14.4841  -48.4224 H         1 UNK         0.0800 
    133 H133       -2.2419  -13.3149  -47.7540 H         1 UNK         0.0800 
    134 H134       -5.2191  -13.1968  -49.8634 H         1 UNK         0.0800 
    135 H135       -4.3495  -12.6963  -48.4454 H         1 UNK         0.0800 
    136 H136       -6.4818  -15.2487  -49.9341 H         1 UNK         0.1150 
    137 H137       -7.1925  -17.3449  -46.2641 H         1 UNK         0.1150 
    138 H138       -4.2494  -14.2314  -46.4248 H         1 UNK         0.1150 
    139 H139       -5.2547  -14.9869  -44.2554 H         1 UNK         0.0800 
    140 H140       -6.3410  -16.3447  -44.1896 H         1 UNK         0.0800 
    141 H141       -5.7909  -18.6854  -44.0562 H         1 UNK         0.0800 
    142 H142       -4.2329  -19.2893  -43.5663 H         1 UNK         0.0800 
    143 H143       -5.3365  -19.0329  -46.3946 H         1 UNK         0.0600 
    144 H144       -2.5739  -18.8538  -45.7164 H         1 UNK         0.3000 
    145 H145       -1.3511  -19.4571  -48.9777 H         1 UNK         0.0600 
    146 H146       -0.7255  -17.1037  -48.8803 H         1 UNK         0.0600 
    147 H147       -2.4656  -17.1747  -49.0411 H         1 UNK         0.0600 
    148 H148       -1.7563  -16.8169  -47.4729 H         1 UNK         0.0600 
    149 H149       -0.3033  -18.4344  -46.4434 H         1 UNK         0.3000 
    150 H150        0.8206  -21.6232  -45.2889 H         1 UNK         0.0600 
    151 H151        2.3723  -19.1846  -46.3251 H         1 UNK         0.0600 
    152 H152        2.6133  -20.8463  -46.8526 H         1 UNK         0.0600 
    153 H153        2.9803  -20.3941  -45.1949 H         1 UNK         0.0600 
    154 H154        1.0500  -18.9617  -44.2597 H         1 UNK         0.3000 
    155 H155       -1.5677  -18.1451  -42.9540 H         1 UNK         0.0600 
    156 H156       -0.8566  -20.3397  -40.9411 H         1 UNK         0.0600 
    157 H157       -2.4560  -19.9577  -41.5586 H         1 UNK         0.0600 
    158 H158       -1.6196  -18.8012  -40.5362 H         1 UNK         0.0600 
    159 H159        0.3177  -17.1432  -42.5092 H         1 UNK         0.3000 
    160 H160        3.1607  -17.6850  -40.6748 H         1 UNK         0.0600 
    161 H161        3.2406  -17.6753  -43.7440 H         1 UNK         0.0600 
    162 H162        4.0790  -18.8192  -42.7023 H         1 UNK         0.0600 
    163 H163        4.5337  -17.1220  -42.6826 H         1 UNK         0.0600 
    164 H164        2.4142  -15.6683  -42.6062 H         1 UNK         0.3000 
    165 H165        0.2125  -13.8612  -40.4557 H         1 UNK         0.0600 
    166 H166        1.7094  -12.0341  -41.2332 H         1 UNK         0.0600 
    167 H167        2.4947  -12.9956  -39.9906 H         1 UNK         0.0600 
    168 H168        2.9499  -13.2066  -41.6751 H         1 UNK         0.0600 
    169 H169        1.0281  -13.6084  -43.2113 H         1 UNK         0.3000 
    170 H170       -1.7701  -15.3334  -44.6002 H         1 UNK         0.0600 
    171 H171       -2.1747  -13.1157  -45.5834 H         1 UNK         0.0600 
    172 H172       -1.0765  -12.3525  -44.4406 H         1 UNK         0.0600 
    173 H173       -2.5897  -13.0615  -43.8854 H         1 UNK         0.0600 
    174 H174        0.4060  -13.8200  -45.7230 H         1 UNK         0.3000 
    175 H175        2.6975  -16.5366  -45.9052 H         1 UNK         0.0600 
    176 H176        1.3822  -17.0584  -47.9174 H         1 UNK         0.0600 
    177 H177        2.7397  -16.0379  -48.3505 H         1 UNK         0.0600 
    178 H178        1.1241  -15.3429  -48.2440 H         1 UNK         0.0600 
    179 H179        2.8735  -13.9400  -47.0269 H         1 UNK         0.3000 
    180 H180        3.9388  -12.2016  -44.1314 H         1 UNK         0.0600 
    181 H181        5.9765  -11.8078  -45.5062 H         1 UNK         0.0600 
    182 H182        5.6108  -13.2304  -46.4819 H         1 UNK         0.0600 
    183 H183        5.9864  -13.4057  -44.7759 H         1 UNK         0.0600 
    184 H184        2.8347  -10.9082  -45.5005 H         1 UNK         0.3000 
    185 H185        1.7943  -10.0011  -47.1120 H         1 UNK         0.0600 
    186 H186        2.3980   -8.8189  -49.2012 H         1 UNK         0.0600 
    187 H187        3.8510   -9.1689  -48.2771 H         1 UNK         0.0600 
    188 H188        3.4536  -10.1455  -49.6863 H         1 UNK         0.0600 
    189 H189        1.0213  -10.8377  -49.6551 H         1 UNK         0.3000 
    190 H190       -2.9913  -21.3377  -45.0421 H         1 UNK         0.3000 
    191 H191       -4.9494  -23.5847  -45.3222 H         1 UNK         0.0600 
    192 H192       -3.7775  -24.6040  -43.3814 H         1 UNK         0.0600 
    193 H193       -4.4786  -23.0582  -42.9277 H         1 UNK         0.0600 
    194 H194       -2.7465  -23.1847  -43.2246 H         1 UNK         0.0600 
    195 H195       -3.8408  -22.9893  -47.5674 H         1 UNK         0.3000 
    196 H196       -1.1614  -23.9408  -47.9902 H         1 UNK         0.0600 
    197 H197       -3.3706  -23.2188  -49.9787 H         1 UNK         0.0600 
    198 H198       -2.1961  -22.1037  -49.2814 H         1 UNK         0.0600 
    199 H199       -1.6517  -23.3784  -50.3513 H         1 UNK         0.0600 
    200 H200       -3.8548  -25.7824  -47.4454 H         1 UNK         0.3000 
    201 H201       -4.4845  -27.8984  -47.7467 H         1 UNK         0.0600 
    202 H202       -1.5432  -28.3995  -48.4545 H         1 UNK         0.0600 
    203 H203       -2.7085  -29.6166  -47.9535 H         1 UNK         0.0600 
    204 H204       -2.2200  -28.3587  -46.8296 H         1 UNK         0.0600 
    205 H205       -5.3776  -26.4611  -49.7068 H         1 UNK         0.3000 
    206 H206       -6.2659  -26.3758  -51.7306 H         1 UNK         0.0600 
    207 H207       -6.9714  -28.7370  -51.2851 H         1 UNK         0.0600 
    208 H208       -6.7259  -28.4258  -52.9955 H         1 UNK         0.0600 
    209 H209       -5.5173  -29.3237  -52.0915 H         1 UNK         0.0600 
    210 H210       -3.8022  -25.3380  -51.4488 H         1 UNK         0.3000 
    211 H211       -2.1439  -24.3490  -52.4947 H         1 UNK         0.0600 
    212 H212       -2.2732  -23.8752  -54.8885 H         1 UNK         0.0600 
    213 H213       -3.8928  -23.7915  -54.2168 H         1 UNK         0.0600 
    214 H214       -3.3998  -25.2000  -55.1527 H         1 UNK         0.0600 
    215 H215       -1.5177  -26.7602  -51.4522 H         1 UNK         0.3000 
    216 H216        0.3896  -28.0574  -53.3605 H         1 UNK         0.0600 
    217 H217       -0.6690  -29.0026  -50.6474 H         1 UNK         0.0600 
    218 H218        0.4388  -29.8838  -51.6926 H         1 UNK         0.0600 
    219 H219       -1.2119  -29.5841  -52.2184 H         1 UNK         0.0600 
    220 H220        0.0875  -26.4370  -50.1681 H         1 UNK         0.3000 
    221 H221        2.9818  -26.6130  -49.6580 H         1 UNK         0.0600 
    222 H222        1.3088  -27.0087  -47.8428 H         1 UNK         0.0600 
    223 H223        0.7102  -25.3621  -48.0298 H         1 UNK         0.0600 
    224 H224        2.3533  -25.6442  -47.4754 H         1 UNK         0.0600 
    225 H225        0.8436  -24.3786  -51.2090 H         1 UNK         0.3000 
    226 H226        2.8546  -22.4020  -51.6578 H         1 UNK         0.0600 
    227 H227        1.7015  -20.5077  -50.5029 H         1 UNK         0.0600 
    228 H228        0.4496  -21.5923  -49.9106 H         1 UNK         0.0600 
    229 H229        2.0967  -21.7211  -49.3048 H         1 UNK         0.0600 
    230 H230        1.5629  -20.4255  -52.7473 H         1 UNK         0.3000 
    231 H231        0.0254  -21.4586  -54.9542 H         1 UNK         0.0600 
    232 H232        0.6570  -18.5848  -54.0888 H         1 UNK         0.0600 
    233 H233        0.0268  -19.0676  -55.6585 H         1 UNK         0.0600 
    234 H234        1.6369  -19.5719  -55.1751 H         1 UNK         0.0600 
    235 H235       -0.9224  -20.6989  -51.8361 H         1 UNK         0.3000 
    236 H236       -2.8058  -20.5280  -50.7343 H         1 UNK         0.0600 
    237 H237       -3.6002  -22.3942  -52.2450 H         1 UNK         0.0600 
    238 H238       -4.9004  -21.4145  -51.6061 H         1 UNK         0.0600 
    239 H239       -4.3759  -21.2000  -53.2758 H         1 UNK         0.0600 
    240 H240       -5.4060  -19.5227  -51.8939 H         1 UNK         0.3000 
    241 H241       -5.0527  -16.8493  -51.0368 H         1 UNK         0.0600 
    242 H242       -4.6527  -16.3992  -55.0131 H         1 UNK         0.3800 
    243 H243       -4.3673  -17.9239  -54.2141 H         1 UNK         0.3800 
    244 H244       -7.5037  -18.1622  -52.3113 H         1 UNK         0.0800 
    245 H245       -7.5252  -16.6490  -51.4613 H         1 UNK         0.0800 
    246 H246       -8.6817  -16.6018  -49.4309 H         1 UNK         0.0800 
    247 H247       -8.6251  -17.7415  -48.1180 H         1 UNK         0.0800 
@<TRIPOS>BOND
     1    1    2 1    
     2    1  127 1    
     3    1  128 1    
     4    1  129 1    
     5    2    3 2    
     6    2    4 am   BACKBONE|DICT|INTERRES
     7    4    5 1    
     8    4  130 1    
     9    5    6 1    
    10    5   65 1    
    11    5  131 1    
    12    6    7 1    
    13    6  132 1    
    14    6  133 1    
    15    7    8 1    
    16    8    9 1    
    17    8  134 1    
    18    8  135 1    
    19    9   10 ar   
    20    9   14 ar   
    21   10   11 ar   
    22   10  136 1    
    23   11   12 ar   
    24   11  126 1    
    25   12   13 ar   
    26   12  137 1    
    27   13   14 ar   
    28   13   15 1    
    29   14  138 1    
    30   15   16 1    
    31   15  139 1    
    32   15  140 1    
    33   16   17 1    
    34   17   18 1    
    35   17  141 1    
    36   17  142 1    
    37   18   19 1    
    38   18   67 1    
    39   18  143 1    
    40   19   20 am   BACKBONE|DICT|INTERRES
    41   19  144 1    
    42   20   21 2    
    43   20   22 1    
    44   22   23 1    
    45   22   24 1    
    46   22  145 1    
    47   23  146 1    
    48   23  147 1    
    49   23  148 1    
    50   24   25 am   BACKBONE|DICT|INTERRES
    51   24  149 1    
    52   25   26 2    
    53   25   27 1    
    54   27   28 1    
    55   27   29 1    
    56   27  150 1    
    57   28  151 1    
    58   28  152 1    
    59   28  153 1    
    60   29   30 am   BACKBONE|DICT|INTERRES
    61   29  154 1    
    62   30   31 2    
    63   30   32 1    
    64   32   33 1    
    65   32   34 1    
    66   32  155 1    
    67   33  156 1    
    68   33  157 1    
    69   33  158 1    
    70   34   35 am   BACKBONE|DICT|INTERRES
    71   34  159 1    
    72   35   36 2    
    73   35   37 1    
    74   37   38 1    
    75   37   39 1    
    76   37  160 1    
    77   38  161 1    
    78   38  162 1    
    79   38  163 1    
    80   39   40 am   BACKBONE|DICT|INTERRES
    81   39  164 1    
    82   40   41 2    
    83   40   42 1    
    84   42   43 1    
    85   42   44 1    
    86   42  165 1    
    87   43  166 1    
    88   43  167 1    
    89   43  168 1    
    90   44   45 am   BACKBONE|DICT|INTERRES
    91   44  169 1    
    92   45   46 2    
    93   45   47 1    
    94   47   48 1    
    95   47   49 1    
    96   47  170 1    
    97   48  171 1    
    98   48  172 1    
    99   48  173 1    
   100   49   50 am   BACKBONE|DICT|INTERRES
   101   49  174 1    
   102   50   51 2    
   103   50   52 1    
   104   52   53 1    
   105   52   54 1    
   106   52  175 1    
   107   53  176 1    
   108   53  177 1    
   109   53  178 1    
   110   54   55 am   BACKBONE|DICT|INTERRES
   111   54  179 1    
   112   55   56 2    
   113   55   57 1    
   114   57   58 1    
   115   57   59 1    
   116   57  180 1    
   117   58  181 1    
   118   58  182 1    
   119   58  183 1    
   120   59   60 am   BACKBONE|DICT|INTERRES
   121   59  184 1    
   122   60   61 2    
   123   60   62 1    
   124   62   63 1    
   125   62   64 1    
   126   62  185 1    
   127   63  186 1    
   128   63  187 1    
   129   63  188 1    
   130   64   65 am   BACKBONE|DICT|INTERRES
   131   64  189 1    
   132   65   66 2    
   133   67   68 2    
   134   67   69 am   BACKBONE|DICT|INTERRES
   135   69   70 1    
   136   69  190 1    
   137   70   71 1    
   138   70   72 1    
   139   70  191 1    
   140   71  192 1    
   141   71  193 1    
   142   71  194 1    
   143   72   73 2    
   144   72   74 am   BACKBONE|DICT|INTERRES
   145   74   75 1    
   146   74  195 1    
   147   75   76 1    
   148   75   77 1    
   149   75  196 1    
   150   76  197 1    
   151   76  198 1    
   152   76  199 1    
   153   77   78 2    
   154   77   79 am   BACKBONE|DICT|INTERRES
   155   79   80 1    
   156   79  200 1    
   157   80   81 1    
   158   80   82 1    
   159   80  201 1    
   160   81  202 1    
   161   81  203 1    
   162   81  204 1    
   163   82   83 2    
   164   82   84 am   BACKBONE|DICT|INTERRES
   165   84   85 1    
   166   84  205 1    
   167   85   86 1    
   168   85   87 1    
   169   85  206 1    
   170   86  207 1    
   171   86  208 1    
   172   86  209 1    
   173   87   88 2    
   174   87   89 am   BACKBONE|DICT|INTERRES
   175   89   90 1    
   176   89  210 1    
   177   90   91 1    
   178   90   92 1    
   179   90  211 1    
   180   91  212 1    
   181   91  213 1    
   182   91  214 1    
   183   92   93 2    
   184   92   94 am   BACKBONE|DICT|INTERRES
   185   94   95 1    
   186   94  215 1    
   187   95   96 1    
   188   95   97 1    
   189   95  216 1    
   190   96  217 1    
   191   96  218 1    
   192   96  219 1    
   193   97   98 2    
   194   97   99 am   BACKBONE|DICT|INTERRES
   195   99  100 1    
   196   99  220 1    
   197  100  101 1    
   198  100  102 1    
   199  100  221 1    
   200  101  222 1    
   201  101  223 1    
   202  101  224 1    
   203  102  103 2    
   204  102  104 am   BACKBONE|DICT|INTERRES
   205  104  105 1    
   206  104  225 1    
   207  105  106 1    
   208  105  107 1    
   209  105  226 1    
   210  106  227 1    
   211  106  228 1    
   212  106  229 1    
   213  107  108 2    
   214  107  109 am   BACKBONE|DICT|INTERRES
   215  109  110 1    
   216  109  230 1    
   217  110  111 1    
   218  110  112 1    
   219  110  231 1    
   220  111  232 1    
   221  111  233 1    
   222  111  234 1    
   223  112  113 2    
   224  112  114 am   BACKBONE|DICT|INTERRES
   225  114  115 1    
   226  114  235 1    
   227  115  116 1    
   228  115  117 1    
   229  115  236 1    
   230  116  237 1    
   231  116  238 1    
   232  116  239 1    
   233  117  118 2    
   234  117  119 am   BACKBONE|DICT|INTERRES
   235  119  120 1    
   236  119  240 1    
   237  120  121 1    
   238  120  124 1    
   239  120  241 1    
   240  121  122 am   BACKBONE|DICT|INTERRES
   241  121  123 2    
   242  122  242 1    
   243  122  243 1    
   244  124  125 1    
   245  124  244 1    
   246  124  245 1    
   247  125  126 1    
   248  126  246 1    
   249  126  247 1    
@<TRIPOS>SUBSTRUCTURE
     1 UNK         1 GROUP             0       ****    0 ROOT    
