@<TRIPOS>MOLECULE
3R540
247   249    1
SMALL
USER_CHARGES


@<TRIPOS>ATOM
      1 CA         -2.3984  -16.2984  -47.6374 C.3       0 UNK        -0.1800 
      2 C          -1.4598  -15.2599  -48.2290 C.2       0 UNK         0.5000 
      3 O          -1.7712  -14.6737  -49.2657 O.2       0 UNK        -0.5000 
      4 N          -0.3225  -15.0080  -47.5694 N.am      1 UNK        -0.5000 
      5 CA          0.6570  -13.9857  -47.9525 C.3       1 UNK         0.1400 
      6 C6          2.0995  -14.3967  -47.5610 C.3       23 UNK        -0.0398 
      7 S7          2.7574  -15.6639  -48.6928 S.3       23 UNK        -0.2404 
      8 C8          2.4154  -17.1903  -47.7680 C.3       23 UNK        -0.0205 
      9 C9          2.3814  -18.3884  -48.7010 C.ar      23 UNK        -0.0193 
     10 C10         1.2917  -18.5752  -49.5549 C.ar      23 UNK        -0.1150 
     11 C11         1.2589  -19.6415  -50.4578 C.ar      23 UNK        -0.0193 
     12 C12         2.3348  -20.5400  -50.4828 C.ar      23 UNK        -0.1150 
     13 C13         3.4235  -20.3748  -49.6200 C.ar      23 UNK        -0.0193 
     14 C14         3.4404  -19.2975  -48.7298 C.ar      23 UNK        -0.1150 
     15 C15         4.5961  -21.3457  -49.6646 C.3       23 UNK        -0.0205 
     16 S16         4.1469  -23.0096  -49.0776 S.3       23 UNK        -0.2404 
     17 C17         3.4771  -22.6364  -47.4223 C.3       23 UNK        -0.0398 
     18 CA          3.5381  -23.8250  -46.4331 C.3       11 UNK         0.1400 
     19 N           3.2863  -23.3606  -45.0640 N.am      11 UNK        -0.5000 
     20 C           3.4799  -24.0829  -43.9520 C.2       10 UNK         0.5000 
     21 O           3.9841  -25.2063  -43.9434 O.2       10 UNK        -0.5000 
     22 CA          3.0063  -23.4516  -42.6286 C.3       10 UNK         0.1400 
     23 CB          4.0609  -22.4787  -42.0800 C.3       10 UNK        -0.1800 
     24 N           1.7224  -22.7589  -42.7612 N.am      10 UNK        -0.5000 
     25 C           0.5501  -23.3646  -43.0018 C.2       9 UNK         0.5000 
     26 O           0.4154  -24.5856  -43.0782 O.2       9 UNK        -0.5000 
     27 CA         -0.6712  -22.4547  -43.2349 C.3       9 UNK         0.1400 
     28 CB         -1.3049  -22.0225  -41.9053 C.3       9 UNK        -0.1800 
     29 N          -0.3534  -21.2740  -44.0393 N.am      9 UNK        -0.5000 
     30 C           0.0345  -21.3174  -45.3212 C.2       8 UNK         0.5000 
     31 O           0.1086  -22.3564  -45.9709 O.2       8 UNK        -0.5000 
     32 CA          0.4556  -19.9920  -45.9756 C.3       8 UNK         0.1400 
     33 CB         -0.7635  -19.2417  -46.5215 C.3       8 UNK        -0.1800 
     34 N           1.2058  -19.1348  -45.0572 N.am      8 UNK        -0.5000 
     35 C           2.4334  -19.4261  -44.6032 C.2       7 UNK         0.5000 
     36 O           3.0772  -20.4119  -44.9612 O.2       7 UNK        -0.5000 
     37 CA          3.0113  -18.4936  -43.5245 C.3       7 UNK         0.1400 
     38 CB          3.6546  -17.2486  -44.1520 C.3       7 UNK        -0.1800 
     39 N           1.9961  -18.0856  -42.5535 N.am      7 UNK        -0.5000 
     40 C           1.4331  -18.9154  -41.6631 C.2       6 UNK         0.5000 
     41 O           1.7456  -20.0991  -41.5434 O.2       6 UNK        -0.5000 
     42 CA          0.3006  -18.3391  -40.7929 C.3       6 UNK         0.1400 
     43 CB          0.8737  -17.6892  -39.5251 C.3       6 UNK        -0.1800 
     44 N          -0.5267  -17.3631  -41.5044 N.am      6 UNK        -0.5000 
     45 C          -1.2804  -17.6336  -42.5809 C.2       5 UNK         0.5000 
     46 O          -1.3829  -18.7560  -43.0726 O.2       5 UNK        -0.5000 
     47 CA         -1.9910  -16.4406  -43.2480 C.3       5 UNK         0.1400 
     48 CB         -3.4076  -16.2657  -42.6839 C.3       5 UNK        -0.1800 
     49 N          -1.2442  -15.1923  -43.0820 N.am      5 UNK        -0.5000 
     50 C          -0.0712  -14.9239  -43.6679 C.2       4 UNK         0.5000 
     51 O           0.4341  -15.6369  -44.5392 O.2       4 UNK        -0.5000 
     52 CA          0.6444  -13.6570  -43.1636 C.3       4 UNK         0.1400 
     53 CB          2.1173  -13.5755  -43.5976 C.3       4 UNK        -0.1800 
     54 N          -0.0632  -12.4485  -43.5819 N.am      4 UNK        -0.5000 
     55 C          -1.1165  -11.9223  -42.9391 C.2       3 UNK         0.5000 
     56 O          -1.6052  -12.4239  -41.9250 O.2       3 UNK        -0.5000 
     57 CA         -1.7345  -10.6300  -43.5101 C.3       3 UNK         0.1400 
     58 CB         -1.1886   -9.4018  -42.7661 C.3       3 UNK        -0.1800 
     59 N          -1.4991  -10.4590  -44.9436 N.am      3 UNK        -0.5000 
     60 C          -2.0933  -11.1808  -45.9016 C.2       2 UNK         0.5000 
     61 O          -2.9522  -12.0354  -45.6784 O.2       2 UNK        -0.5000 
     62 CA         -1.6345  -10.9438  -47.3546 C.3       2 UNK         0.1400 
     63 CB         -0.8201   -9.6470  -47.5673 C.3       2 UNK        -0.1800 
     64 N          -0.9022  -12.1104  -47.8515 N.am      2 UNK        -0.5000 
     65 C           0.2185  -12.6413  -47.3404 C.2       1 UNK         0.5000 
     66 O           0.8488  -12.1437  -46.4059 O.2       1 UNK        -0.5000 
     67 C           2.5717  -24.9609  -46.8493 C.2       11 UNK         0.5000 
     68 O           2.9808  -25.8719  -47.5707 O.2       11 UNK        -0.5000 
     69 N           1.3285  -24.8740  -46.3559 N.am      12 UNK        -0.5000 
     70 CA          0.1204  -25.6318  -46.6831 C.3       12 UNK         0.1400 
     71 CB          0.3660  -27.1522  -46.7705 C.3       12 UNK        -0.1800 
     72 C          -0.5509  -25.0689  -47.9577 C.2       12 UNK         0.5000 
     73 O           0.1470  -24.6269  -48.8707 O.2       12 UNK        -0.5000 
     74 N          -1.8861  -25.0797  -48.0669 N.am      13 UNK        -0.5000 
     75 CA         -2.8705  -25.5133  -47.0793 C.3       13 UNK         0.1400 
     76 CB         -4.1492  -25.9693  -47.7996 C.3       13 UNK        -0.1800 
     77 C          -3.1841  -24.4012  -46.0652 C.2       13 UNK         0.5000 
     78 O          -3.1189  -24.6726  -44.8674 O.2       13 UNK        -0.5000 
     79 N          -3.4953  -23.1898  -46.5547 N.am      14 UNK        -0.5000 
     80 CA         -3.8449  -22.0018  -45.7575 C.3       14 UNK         0.1400 
     81 CB         -4.9860  -22.2893  -44.7531 C.3       14 UNK        -0.1800 
     82 C          -4.2632  -20.7989  -46.6219 C.2       14 UNK         0.5000 
     83 O          -4.1454  -19.6646  -46.1570 O.2       14 UNK        -0.5000 
     84 N          -4.7879  -21.0478  -47.8294 N.am      15 UNK        -0.5000 
     85 CA         -5.2774  -20.0126  -48.7433 C.3       15 UNK         0.1400 
     86 CB         -6.2520  -20.6600  -49.7444 C.3       15 UNK        -0.1800 
     87 C          -4.1322  -19.2854  -49.4755 C.2       15 UNK         0.5000 
     88 O          -2.9634  -19.6420  -49.3215 O.2       15 UNK        -0.5000 
     89 N          -4.4941  -18.2879  -50.2898 N.am      16 UNK        -0.5000 
     90 CA         -3.5921  -17.6375  -51.2392 C.3       16 UNK         0.1400 
     91 CB         -4.1092  -16.2193  -51.5246 C.3       16 UNK        -0.1800 
     92 C          -3.4917  -18.4499  -52.5451 C.2       16 UNK         0.5000 
     93 O          -4.3650  -19.2758  -52.8392 O.2       16 UNK        -0.5000 
     94 N          -2.4426  -18.1736  -53.3306 N.am      17 UNK        -0.5000 
     95 CA         -2.1844  -18.8039  -54.6291 C.3       17 UNK         0.1400 
     96 CB         -0.8119  -18.3603  -55.1574 C.3       17 UNK        -0.1800 
     97 C          -3.2857  -18.5056  -55.6610 C.2       17 UNK         0.5000 
     98 O          -3.7536  -19.4182  -56.3411 O.2       17 UNK        -0.5000 
     99 N          -3.7110  -17.2373  -55.7173 N.am      18 UNK        -0.5000 
    100 CA        -4.7829  -16.7646  -56.5941 C.3       18 UNK         0.1400 
    101 CB        -4.7030  -15.2332  -56.6915 C.3       18 UNK        -0.1800 
    102 C         -6.1862  -17.2001  -56.1295 C.2       18 UNK         0.5000 
    103 O         -7.1045  -17.2387  -56.9493 O.2       18 UNK        -0.5000 
    104 N         -6.3347  -17.4992  -54.8311 N.am      19 UNK        -0.5000 
    105 CA        -7.5993  -17.9006  -54.2215 C.3       19 UNK         0.1400 
    106 CB        -7.5646  -17.6286  -52.7091 C.3       19 UNK        -0.1800 
    107 C         -7.9361  -19.3711  -54.5068 C.2       19 UNK         0.5000 
    108 O         -9.0348  -19.6520  -54.9886 O.2       19 UNK        -0.5000 
    109 N         -7.0031  -20.2814  -54.1933 N.am      20 UNK        -0.5000 
    110 CA        -7.2447  -21.7254  -54.2499 C.3       20 UNK         0.1400 
    111 CB        -8.0980  -22.1632  -53.0383 C.3       20 UNK        -0.1800 
    112 C         -5.9413  -22.5329  -54.3680 C.2       20 UNK         0.5000 
    113 O         -5.8471  -23.6144  -53.7843 O.2       20 UNK        -0.5000 
    114 N         -4.9420  -22.0025  -55.0925 N.am      21 UNK        -0.5000 
    115 CA        -3.6229  -22.6195  -55.3210 C.3       21 UNK         0.1400 
    116 CB        -3.7521  -23.8462  -56.2480 C.3       21 UNK        -0.1800 
    117 C         -2.8725  -22.9342  -54.0068 C.2       21 UNK         0.5000 
    118 O         -2.2123  -23.9676  -53.8913 O.2       21 UNK        -0.5000 
    119 N         -3.0372  -22.0323  -53.0332 N.am      22 UNK        -0.5000 
    120 CA        -2.5775  -22.1154  -51.6403 C.3       22 UNK         0.1400 
    121 C         -3.4301  -23.0454  -50.7287 C.2       22 UNK         0.5000 
    122 N         -4.4506  -23.7361  -51.2216 N.am      22 UNK        -0.7600 
    123 O         -3.2080  -23.0979  -49.5234 O.2       22 UNK        -0.5000 
    124 C124       -1.0475  -22.3306  -51.4526 C.3       23 UNK        -0.0398 
    125 S125       -0.0316  -21.2065  -52.4745 S.3       23 UNK        -0.2404 
    126 C126        0.0684  -19.7248  -51.4132 C.3       23 UNK        -0.0205 
    127 H127       -2.1321  -16.5414  -46.6104 H         1 UNK         0.0600 
    128 H128       -2.3592  -17.2127  -48.2269 H         1 UNK         0.0600 
    129 H129       -3.4244  -15.9308  -47.6434 H         1 UNK         0.0600 
    130 H130       -0.1422  -15.4637  -46.6826 H         1 UNK         0.3000 
    131 H131        0.6399  -13.8484  -49.0362 H         1 UNK         0.0600 
    132 H132        2.1459  -14.7586  -46.5340 H         1 UNK         0.0800 
    133 H133        2.7755  -13.5417  -47.6171 H         1 UNK         0.0800 
    134 H134        1.4643  -17.1084  -47.2444 H         1 UNK         0.0800 
    135 H135        3.1810  -17.3204  -47.0041 H         1 UNK         0.0800 
    136 H136        0.4771  -17.8642  -49.5353 H         1 UNK         0.1150 
    137 H137        2.3453  -21.3689  -51.1748 H         1 UNK         0.1150 
    138 H138        4.2840  -19.1582  -48.0685 H         1 UNK         0.1150 
    139 H139        4.9610  -21.4191  -50.6899 H         1 UNK         0.0800 
    140 H140        5.4315  -20.9733  -49.0695 H         1 UNK         0.0800 
    141 H141        2.4543  -22.2710  -47.5311 H         1 UNK         0.0800 
    142 H142        4.0543  -21.8036  -47.0184 H         1 UNK         0.0800 
    143 H143        4.5515  -24.2316  -46.4526 H         1 UNK         0.0600 
    144 H144        2.9382  -22.4118  -44.9685 H         1 UNK         0.3000 
    145 H145        2.8798  -24.2575  -41.9027 H         1 UNK         0.0600 
    146 H146        3.7664  -22.0873  -41.1061 H         1 UNK         0.0600 
    147 H147        4.2144  -21.6307  -42.7479 H         1 UNK         0.0600 
    148 H148        5.0232  -22.9761  -41.9534 H         1 UNK         0.0600 
    149 H149        1.7342  -21.7518  -42.6331 H         1 UNK         0.3000 
    150 H150       -1.4120  -23.0366  -43.7833 H         1 UNK         0.0600 
    151 H151       -1.6156  -22.8909  -41.3234 H         1 UNK         0.0600 
    152 H152       -2.1900  -21.4079  -42.0717 H         1 UNK         0.0600 
    153 H153       -0.6084  -21.4506  -41.2933 H         1 UNK         0.0600 
    154 H154       -0.4699  -20.3682  -43.5943 H         1 UNK         0.3000 
    155 H155        1.1040  -20.2347  -46.8199 H         1 UNK         0.0600 
    156 H156       -1.3225  -19.8710  -47.2145 H         1 UNK         0.0600 
    157 H157       -0.4649  -18.3513  -47.0699 H         1 UNK         0.0600 
    158 H158       -1.4479  -18.9388  -45.7295 H         1 UNK         0.0600 
    159 H159        0.7302  -18.3219  -44.6926 H         1 UNK         0.3000 
    160 H160        3.7905  -19.0442  -42.9930 H         1 UNK         0.0600 
    161 H161        2.9241  -16.6372  -44.6817 H         1 UNK         0.0600 
    162 H162        4.4309  -17.5292  -44.8649 H         1 UNK         0.0600 
    163 H163        4.1251  -16.6245  -43.3923 H         1 UNK         0.0600 
    164 H164        1.6668  -17.1340  -42.6089 H         1 UNK         0.3000 
    165 H165       -0.3429  -19.1677  -40.4916 H         1 UNK         0.0600 
    166 H166        0.0780  -17.3475  -38.8628 H         1 UNK         0.0600 
    167 H167        1.4797  -18.4006  -38.9623 H         1 UNK         0.0600 
    168 H168        1.5067  -16.8328  -39.7606 H         1 UNK         0.0600 
    169 H169       -0.5090  -16.4157  -41.1580 H         1 UNK         0.3000 
    170 H170       -2.0715  -16.6588  -44.3134 H         1 UNK         0.0600 
    171 H171       -3.3926  -16.0348  -41.6181 H         1 UNK         0.0600 
    172 H172       -3.9374  -15.4612  -43.1947 H         1 UNK         0.0600 
    173 H173       -3.9943  -17.1759  -42.8161 H         1 UNK         0.0600 
    174 H174       -1.6144  -14.5141  -42.4256 H         1 UNK         0.3000 
    175 H175        0.6470  -13.7073  -42.0726 H         1 UNK         0.0600 
    176 H176        2.2243  -13.4777  -44.6750 H         1 UNK         0.0600 
    177 H177        2.6119  -12.7194  -43.1390 H         1 UNK         0.0600 
    178 H178        2.6655  -14.4667  -43.2914 H         1 UNK         0.0600 
    179 H179        0.2418  -12.0348  -44.4572 H         1 UNK         0.3000 
    180 H180       -2.8124  -10.6787  -43.3412 H         1 UNK         0.0600 
    181 H181       -1.6698   -8.4859  -43.1098 H         1 UNK         0.0600 
    182 H182       -0.1128   -9.2906  -42.9075 H         1 UNK         0.0600 
    183 H183       -1.3723   -9.4809  -41.6936 H         1 UNK         0.0600 
    184 H184       -0.7853   -9.7971  -45.2119 H         1 UNK         0.3000 
    185 H185       -2.5423  -10.8651  -47.9546 H         1 UNK         0.0600 
    186 H186        0.1288   -9.6529  -47.0306 H         1 UNK         0.0600 
    187 H187       -0.5958   -9.5016  -48.6240 H         1 UNK         0.0600 
    188 H188       -1.3832   -8.7729  -47.2377 H         1 UNK         0.0600 
    189 H189       -1.3759  -12.6495  -48.5678 H         1 UNK         0.3000 
    190 H190        1.1200  -24.0198  -45.8487 H         1 UNK         0.3000 
    191 H191       -0.5261  -25.4483  -45.8265 H         1 UNK         0.0600 
    192 H192        0.9239  -27.5137  -45.9065 H         1 UNK         0.0600 
    193 H193        0.9191  -27.4246  -47.6696 H         1 UNK         0.0600 
    194 H194       -0.5754  -27.7002  -46.8012 H         1 UNK         0.0600 
    195 H195       -2.2863  -24.5982  -48.8654 H         1 UNK         0.3000 
    196 H196       -2.4916  -26.3781  -46.5339 H         1 UNK         0.0600 
    197 H197       -4.6099  -25.1609  -48.3674 H         1 UNK         0.0600 
    198 H198       -4.8903  -26.3296  -47.0850 H         1 UNK         0.0600 
    199 H199       -3.9410  -26.7862  -48.4908 H         1 UNK         0.0600 
    200 H200       -3.4157  -23.0508  -47.5587 H         1 UNK         0.3000 
    201 H201       -2.9579  -21.6987  -45.2010 H         1 UNK         0.0600 
    202 H202       -4.6567  -22.9183  -43.9274 H         1 UNK         0.0600 
    203 H203       -5.8312  -22.7794  -45.2373 H         1 UNK         0.0600 
    204 H204       -5.3584  -21.3691  -44.3001 H         1 UNK         0.0600 
    205 H205       -4.8143  -21.9953  -48.1751 H         1 UNK         0.3000 
    206 H206       -5.8275  -19.2690  -48.1628 H         1 UNK         0.0600 
    207 H207       -5.7392  -21.3276  -50.4352 H         1 UNK         0.0600 
    208 H208       -7.0229  -21.2359  -49.2321 H         1 UNK         0.0600 
    209 H209       -6.7642  -19.9079  -50.3449 H         1 UNK         0.0600 
    210 H210       -5.4733  -18.0653  -50.3826 H         1 UNK         0.3000 
    211 H211       -2.5952  -17.5589  -50.7997 H         1 UNK         0.0600 
    212 H212       -5.0856  -16.2284  -52.0075 H         1 UNK         0.0600 
    213 H213       -3.4259  -15.6747  -52.1771 H         1 UNK         0.0600 
    214 H214       -4.1970  -15.6426  -50.6034 H         1 UNK         0.0600 
    215 H215       -1.7805  -17.4706  -53.0362 H         1 UNK         0.3000 
    216 H216       -2.1504  -19.8832  -54.4815 H         1 UNK         0.0600 
    217 H217       -0.7530  -17.2780  -55.2774 H         1 UNK         0.0600 
    218 H218       -0.6047  -18.8101  -56.1293 H         1 UNK         0.0600 
    219 H219       -0.0107  -18.6677  -54.4860 H         1 UNK         0.0600 
    220 H220       -3.2734  -16.5503  -55.1214 H         1 UNK         0.3000 
    221 H221       -4.6229  -17.1791  -57.5919 H         1 UNK         0.0600 
    222 H222       -4.8456  -14.7596  -55.7193 H         1 UNK         0.0600 
    223 H223       -3.7378  -14.9125  -57.0840 H         1 UNK         0.0600 
    224 H224       -5.4701  -14.8434  -57.3620 H         1 UNK         0.0600 
    225 H225       -5.5205  -17.4865  -54.2369 H         1 UNK         0.3000 
    226 H226       -8.3991  -17.2885  -54.6445 H         1 UNK         0.0600 
    227 H227       -7.4293  -16.5668  -52.5041 H         1 UNK         0.0600 
    228 H228       -8.5012  -17.9304  -52.2385 H         1 UNK         0.0600 
    229 H229       -6.7622  -18.1754  -52.2161 H         1 UNK         0.0600 
    230 H230       -6.1205  -19.9779  -53.7944 H         1 UNK         0.3000 
    231 H231       -7.8064  -21.9504  -55.1589 H         1 UNK         0.0600 
    232 H232       -8.3361  -23.2265  -53.0847 H         1 UNK         0.0600 
    233 H233       -9.0476  -21.6299  -52.9992 H         1 UNK         0.0600 
    234 H234       -7.5754  -21.9835  -52.0986 H         1 UNK         0.0600 
    235 H235       -5.0798  -21.1022  -55.5355 H         1 UNK         0.3000 
    236 H236       -3.0143  -21.8828  -55.8450 H         1 UNK         0.0600 
    237 H237       -4.3011  -24.6593  -55.7721 H         1 UNK         0.0600 
    238 H238       -4.2691  -23.5881  -57.1722 H         1 UNK         0.0600 
    239 H239       -2.7704  -24.2327  -56.5242 H         1 UNK         0.0600 
    240 H240       -3.6260  -21.2313  -53.2264 H         1 UNK         0.3000 
    241 H241       -2.7872  -21.1199  -51.2670 H         1 UNK         0.0600 
    242 H242       -4.9960  -24.3158  -50.6066 H         1 UNK         0.3800 
    243 H243       -4.7044  -23.6884  -52.2030 H         1 UNK         0.3800 
    244 H244       -0.7755  -23.3567  -51.7034 H         1 UNK         0.0800 
    245 H245       -0.7682  -22.1965  -50.4055 H         1 UNK         0.0800 
    246 H246       -0.8565  -19.6284  -50.8457 H         1 UNK         0.0800 
    247 H247        0.1152  -18.8546  -52.0674 H         1 UNK         0.0800 
@<TRIPOS>BOND
     1    1    2 1    
     2    1  127 1    
     3    1  128 1    
     4    1  129 1    
     5    2    3 2    
     6    2    4 am   BACKBONE|DICT|INTERRES
     7    4    5 1    
     8    4  130 1    
     9    5    6 1    
    10    5   65 1    
    11    5  131 1    
    12    6    7 1    
    13    6  132 1    
    14    6  133 1    
    15    7    8 1    
    16    8    9 1    
    17    8  134 1    
    18    8  135 1    
    19    9   10 ar   
    20    9   14 ar   
    21   10   11 ar   
    22   10  136 1    
    23   11   12 ar   
    24   11  126 1    
    25   12   13 ar   
    26   12  137 1    
    27   13   14 ar   
    28   13   15 1    
    29   14  138 1    
    30   15   16 1    
    31   15  139 1    
    32   15  140 1    
    33   16   17 1    
    34   17   18 1    
    35   17  141 1    
    36   17  142 1    
    37   18   19 1    
    38   18   67 1    
    39   18  143 1    
    40   19   20 am   BACKBONE|DICT|INTERRES
    41   19  144 1    
    42   20   21 2    
    43   20   22 1    
    44   22   23 1    
    45   22   24 1    
    46   22  145 1    
    47   23  146 1    
    48   23  147 1    
    49   23  148 1    
    50   24   25 am   BACKBONE|DICT|INTERRES
    51   24  149 1    
    52   25   26 2    
    53   25   27 1    
    54   27   28 1    
    55   27   29 1    
    56   27  150 1    
    57   28  151 1    
    58   28  152 1    
    59   28  153 1    
    60   29   30 am   BACKBONE|DICT|INTERRES
    61   29  154 1    
    62   30   31 2    
    63   30   32 1    
    64   32   33 1    
    65   32   34 1    
    66   32  155 1    
    67   33  156 1    
    68   33  157 1    
    69   33  158 1    
    70   34   35 am   BACKBONE|DICT|INTERRES
    71   34  159 1    
    72   35   36 2    
    73   35   37 1    
    74   37   38 1    
    75   37   39 1    
    76   37  160 1    
    77   38  161 1    
    78   38  162 1    
    79   38  163 1    
    80   39   40 am   BACKBONE|DICT|INTERRES
    81   39  164 1    
    82   40   41 2    
    83   40   42 1    
    84   42   43 1    
    85   42   44 1    
    86   42  165 1    
    87   43  166 1    
    88   43  167 1    
    89   43  168 1    
    90   44   45 am   BACKBONE|DICT|INTERRES
    91   44  169 1    
    92   45   46 2    
    93   45   47 1    
    94   47   48 1    
    95   47   49 1    
    96   47  170 1    
    97   48  171 1    
    98   48  172 1    
    99   48  173 1    
   100   49   50 am   BACKBONE|DICT|INTERRES
   101   49  174 1    
   102   50   51 2    
   103   50   52 1    
   104   52   53 1    
   105   52   54 1    
   106   52  175 1    
   107   53  176 1    
   108   53  177 1    
   109   53  178 1    
   110   54   55 am   BACKBONE|DICT|INTERRES
   111   54  179 1    
   112   55   56 2    
   113   55   57 1    
   114   57   58 1    
   115   57   59 1    
   116   57  180 1    
   117   58  181 1    
   118   58  182 1    
   119   58  183 1    
   120   59   60 am   BACKBONE|DICT|INTERRES
   121   59  184 1    
   122   60   61 2    
   123   60   62 1    
   124   62   63 1    
   125   62   64 1    
   126   62  185 1    
   127   63  186 1    
   128   63  187 1    
   129   63  188 1    
   130   64   65 am   BACKBONE|DICT|INTERRES
   131   64  189 1    
   132   65   66 2    
   133   67   68 2    
   134   67   69 am   BACKBONE|DICT|INTERRES
   135   69   70 1    
   136   69  190 1    
   137   70   71 1    
   138   70   72 1    
   139   70  191 1    
   140   71  192 1    
   141   71  193 1    
   142   71  194 1    
   143   72   73 2    
   144   72   74 am   BACKBONE|DICT|INTERRES
   145   74   75 1    
   146   74  195 1    
   147   75   76 1    
   148   75   77 1    
   149   75  196 1    
   150   76  197 1    
   151   76  198 1    
   152   76  199 1    
   153   77   78 2    
   154   77   79 am   BACKBONE|DICT|INTERRES
   155   79   80 1    
   156   79  200 1    
   157   80   81 1    
   158   80   82 1    
   159   80  201 1    
   160   81  202 1    
   161   81  203 1    
   162   81  204 1    
   163   82   83 2    
   164   82   84 am   BACKBONE|DICT|INTERRES
   165   84   85 1    
   166   84  205 1    
   167   85   86 1    
   168   85   87 1    
   169   85  206 1    
   170   86  207 1    
   171   86  208 1    
   172   86  209 1    
   173   87   88 2    
   174   87   89 am   BACKBONE|DICT|INTERRES
   175   89   90 1    
   176   89  210 1    
   177   90   91 1    
   178   90   92 1    
   179   90  211 1    
   180   91  212 1    
   181   91  213 1    
   182   91  214 1    
   183   92   93 2    
   184   92   94 am   BACKBONE|DICT|INTERRES
   185   94   95 1    
   186   94  215 1    
   187   95   96 1    
   188   95   97 1    
   189   95  216 1    
   190   96  217 1    
   191   96  218 1    
   192   96  219 1    
   193   97   98 2    
   194   97   99 am   BACKBONE|DICT|INTERRES
   195   99  100 1    
   196   99  220 1    
   197  100  101 1    
   198  100  102 1    
   199  100  221 1    
   200  101  222 1    
   201  101  223 1    
   202  101  224 1    
   203  102  103 2    
   204  102  104 am   BACKBONE|DICT|INTERRES
   205  104  105 1    
   206  104  225 1    
   207  105  106 1    
   208  105  107 1    
   209  105  226 1    
   210  106  227 1    
   211  106  228 1    
   212  106  229 1    
   213  107  108 2    
   214  107  109 am   BACKBONE|DICT|INTERRES
   215  109  110 1    
   216  109  230 1    
   217  110  111 1    
   218  110  112 1    
   219  110  231 1    
   220  111  232 1    
   221  111  233 1    
   222  111  234 1    
   223  112  113 2    
   224  112  114 am   BACKBONE|DICT|INTERRES
   225  114  115 1    
   226  114  235 1    
   227  115  116 1    
   228  115  117 1    
   229  115  236 1    
   230  116  237 1    
   231  116  238 1    
   232  116  239 1    
   233  117  118 2    
   234  117  119 am   BACKBONE|DICT|INTERRES
   235  119  120 1    
   236  119  240 1    
   237  120  121 1    
   238  120  124 1    
   239  120  241 1    
   240  121  122 am   BACKBONE|DICT|INTERRES
   241  121  123 2    
   242  122  242 1    
   243  122  243 1    
   244  124  125 1    
   245  124  244 1    
   246  124  245 1    
   247  125  126 1    
   248  126  246 1    
   249  126  247 1    
@<TRIPOS>SUBSTRUCTURE
     1 UNK         1 GROUP             0       ****    0 ROOT    
