@<TRIPOS>MOLECULE
3R540
247   249    1
SMALL
USER_CHARGES


@<TRIPOS>ATOM
      1 CA          3.6912  -14.5012  -50.0443 C.3       0 UNK        -0.1800 
      2 C           2.9756  -13.5632  -49.0826 C.2       0 UNK         0.5000 
      3 O           3.5209  -13.2313  -48.0311 O.2       0 UNK        -0.5000 
      4 N           1.7564  -13.1454  -49.4384 N.am      1 UNK        -0.5000 
      5 CA          0.9197  -12.2130  -48.6789 C.3       1 UNK         0.1400 
      6 C6         -0.5894  -12.3641  -49.0226 C.3       23 UNK        -0.0398 
      7 S7         -0.9697  -12.5267  -50.8074 S.3       23 UNK        -0.2404 
      8 C8         -2.3243  -13.7573  -50.7948 C.3       23 UNK        -0.0205 
      9 C9         -1.8952  -15.2276  -50.7732 C.ar      23 UNK        -0.0193 
     10 C10        -2.7478  -16.1863  -51.3312 C.ar      23 UNK        -0.1150 
     11 C11        -2.4164  -17.5448  -51.3104 C.ar      23 UNK        -0.0193 
     12 C12        -1.2198  -17.9512  -50.7138 C.ar      23 UNK        -0.1150 
     13 C13        -0.3555  -17.0090  -50.1506 C.ar      23 UNK        -0.0193 
     14 C14        -0.6997  -15.6565  -50.1848 C.ar      23 UNK        -0.1150 
     15 C15         0.9470  -17.4478  -49.4945 C.3       23 UNK        -0.0205 
     16 S16         0.9941  -17.1102  -47.6996 S.3       23 UNK        -0.2404 
     17 C17        -0.5557  -17.8751  -47.1130 C.3       23 UNK        -0.0398 
     18 CA         -0.5259  -19.4201  -47.1634 C.3       11 UNK         0.1400 
     19 N           0.3615  -20.0134  -46.1577 N.am      11 UNK        -0.5000 
     20 C           0.6935  -21.3122  -46.1223 C.2       10 UNK         0.5000 
     21 O           0.3321  -22.1297  -46.9684 O.2       10 UNK        -0.5000 
     22 CA          1.5190  -21.7963  -44.9165 C.3       10 UNK         0.1400 
     23 CB          3.0084  -21.4693  -45.0989 C.3       10 UNK        -0.1800 
     24 N           1.0356  -21.2474  -43.6488 N.am      10 UNK        -0.5000 
     25 C          -0.1742  -21.4991  -43.1274 C.2       9 UNK         0.5000 
     26 O          -0.9871  -22.2715  -43.6344 O.2       9 UNK        -0.5000 
     27 CA         -0.5664  -20.7180  -41.8585 C.3       9 UNK         0.1400 
     28 CB          0.0216  -21.3754  -40.6018 C.3       9 UNK        -0.1800 
     29 N          -0.1648  -19.3117  -41.9176 N.am      9 UNK        -0.5000 
     30 C          -0.6206  -18.4328  -42.8219 C.2       8 UNK         0.5000 
     31 O          -1.4754  -18.6985  -43.6655 O.2       8 UNK        -0.5000 
     32 CA          0.0276  -17.0391  -42.8239 C.3       8 UNK         0.1400 
     33 CB         -0.6353  -16.1262  -41.7842 C.3       8 UNK        -0.1800 
     34 N           1.4746  -17.1050  -42.6066 N.am      8 UNK        -0.5000 
     35 C           2.3301  -17.6485  -43.4855 C.2       7 UNK         0.5000 
     36 O           1.9886  -18.0866  -44.5827 O.2       7 UNK        -0.5000 
     37 CA          3.7965  -17.7851  -43.0405 C.3       7 UNK         0.1400 
     38 CB          4.5856  -16.4913  -43.2878 C.3       7 UNK        -0.1800 
     39 N           3.9038  -18.1760  -41.6349 N.am      7 UNK        -0.5000 
     40 C           3.5929  -19.3998  -41.1839 C.2       6 UNK         0.5000 
     41 O           3.2237  -20.3179  -41.9153 O.2       6 UNK        -0.5000 
     42 CA          3.6712  -19.6368  -39.6644 C.3       6 UNK         0.1400 
     43 CB          5.0662  -20.1452  -39.2720 C.3       6 UNK        -0.1800 
     44 N           3.3471  -18.4556  -38.8632 N.am      6 UNK        -0.5000 
     45 C           2.1674  -17.8201  -38.8614 C.2       5 UNK         0.5000 
     46 O           1.2136  -18.1602  -39.5644 O.2       5 UNK        -0.5000 
     47 CA          2.0249  -16.5909  -37.9353 C.3       5 UNK         0.1400 
     48 CB          3.2948  -16.2683  -37.1148 C.3       5 UNK        -0.1800 
     49 N           1.5806  -15.3883  -38.6492 N.am      5 UNK        -0.5000 
     50 C           2.1495  -14.8380  -39.7302 C.2       4 UNK         0.5000 
     51 O           3.1101  -15.3265  -40.3328 O.2       4 UNK        -0.5000 
     52 CA          1.5446  -13.5112  -40.2124 C.3       4 UNK         0.1400 
     53 CB          1.9929  -12.3412  -39.3200 C.3       4 UNK        -0.1800 
     54 N           1.9781  -13.2675  -41.5841 N.am      4 UNK        -0.5000 
     55 C           1.2577  -12.6662  -42.5344 C.2       3 UNK         0.5000 
     56 O           0.1285  -12.2019  -42.3538 O.2       3 UNK        -0.5000 
     57 CA          1.9029  -12.6000  -43.9264 C.3       3 UNK         0.1400 
     58 CB          1.9020  -13.9835  -44.6001 C.3       3 UNK        -0.1800 
     59 N           1.1593  -11.6740  -44.7742 N.am      3 UNK        -0.5000 
     60 C           1.6991  -10.8221  -45.6488 C.2       2 UNK         0.5000 
     61 O           2.9107  -10.6406  -45.7844 O.2       2 UNK        -0.5000 
     62 CA          0.7032  -10.0557  -46.5387 C.3       2 UNK         0.1400 
     63 CB          0.3716   -8.6903  -45.9180 C.3       2 UNK        -0.1800 
     64 N           1.2320   -9.8453  -47.8897 N.am      2 UNK        -0.5000 
     65 C           1.4181  -10.7544  -48.8610 C.2       1 UNK         0.5000 
     66 O           1.9541  -10.4345  -49.9239 O.2       1 UNK        -0.5000 
     67 C          -1.9544  -19.9943  -47.0936 C.2       11 UNK         0.5000 
     68 O          -2.5262  -20.2958  -48.1400 O.2       11 UNK        -0.5000 
     69 N          -2.4934  -20.1743  -45.8796 N.am      12 UNK        -0.5000 
     70 CA         -3.7975  -20.7959  -45.6415 C.3       12 UNK         0.1400 
     71 CB         -4.1766  -20.6624  -44.1593 C.3       12 UNK        -0.1800 
     72 C          -3.8429  -22.2669  -46.0931 C.2       12 UNK         0.5000 
     73 O          -4.8196  -22.6773  -46.7197 O.2       12 UNK        -0.5000 
     74 N          -2.7704  -23.0206  -45.8122 N.am      13 UNK        -0.5000 
     75 CA         -2.5832  -24.3949  -46.2767 C.3       13 UNK         0.1400 
     76 CB         -1.3476  -25.0103  -45.6037 C.3       13 UNK        -0.1800 
     77 C          -2.4829  -24.4862  -47.8099 C.2       13 UNK         0.5000 
     78 O          -3.1266  -25.3496  -48.4050 O.2       13 UNK        -0.5000 
     79 N          -1.7226  -23.5700  -48.4263 N.am      14 UNK        -0.5000 
     80 CA         -1.5954  -23.4400  -49.8786 C.3       14 UNK         0.1400 
     81 CB         -0.5135  -22.4047  -50.2163 C.3       14 UNK        -0.1800 
     82 C          -2.9281  -23.0838  -50.5608 C.2       14 UNK         0.5000 
     83 O          -3.2701  -23.6972  -51.5709 O.2       14 UNK        -0.5000 
     84 N          -3.6753  -22.1390  -49.9726 N.am      15 UNK        -0.5000 
     85 CA         -5.0132  -21.7382  -50.4098 C.3       15 UNK         0.1400 
     86 CB         -5.4844  -20.5297  -49.5856 C.3       15 UNK        -0.1800 
     87 C          -6.0415  -22.8792  -50.3156 C.2       15 UNK         0.5000 
     88 O          -6.8940  -22.9975  -51.1929 O.2       15 UNK        -0.5000 
     89 N          -5.9435  -23.7092  -49.2692 N.am      16 UNK        -0.5000 
     90 CA         -6.7757  -24.8979  -49.0938 C.3       16 UNK         0.1400 
     91 CB         -6.6524  -25.4048  -47.6486 C.3       16 UNK        -0.1800 
     92 C          -6.4274  -26.0107  -50.1001 C.2       16 UNK         0.5000 
     93 O          -7.3344  -26.6247  -50.6631 O.2       16 UNK        -0.5000 
     94 N          -5.1257  -26.2535  -50.3017 N.am      17 UNK        -0.5000 
     95 CA         -4.6050  -27.3217  -51.1520 C.3       17 UNK         0.1400 
     96 CB         -3.1314  -27.5794  -50.7989 C.3       17 UNK        -0.1800 
     97 C          -4.7553  -27.0416  -52.6571 C.2       17 UNK         0.5000 
     98 O          -5.2139  -27.9189  -53.3903 O.2       17 UNK        -0.5000 
     99 N          -4.3378  -25.8475  -53.0957 N.am      18 UNK        -0.5000 
    100 CA        -4.2018  -25.4907  -54.5106 C.3       18 UNK         0.1400 
    101 CB        -2.8289  -24.8319  -54.7146 C.3       18 UNK        -0.1800 
    102 C         -5.3205  -24.5661  -55.0196 C.2       18 UNK         0.5000 
    103 O         -5.2944  -24.1946  -56.1941 O.2       18 UNK        -0.5000 
    104 N         -6.2683  -24.1907  -54.1492 N.am      19 UNK        -0.5000 
    105 CA        -7.3476  -23.2334  -54.4098 C.3       19 UNK         0.1400 
    106 CB        -8.3485  -23.7996  -55.4447 C.3       19 UNK        -0.1800 
    107 C         -6.7800  -21.8397  -54.7619 C.2       19 UNK         0.5000 
    108 O         -5.8276  -21.3910  -54.1205 O.2       19 UNK        -0.5000 
    109 N         -7.3526  -21.1855  -55.7800 N.am      20 UNK        -0.5000 
    110 CA        -6.9670  -19.8547  -56.2545 C.3       20 UNK         0.1400 
    111 CB        -8.0534  -19.3450  -57.2151 C.3       20 UNK        -0.1800 
    112 C         -5.5779  -19.7867  -56.9242 C.2       20 UNK         0.5000 
    113 O         -5.0656  -18.6830  -57.1155 O.2       20 UNK        -0.5000 
    114 N         -4.9944  -20.9406  -57.2835 N.am      21 UNK        -0.5000 
    115 CA        -3.6554  -21.0274  -57.8704 C.3       21 UNK         0.1400 
    116 CB        -3.4741  -22.3966  -58.5425 C.3       21 UNK        -0.1800 
    117 C         -2.5360  -20.7760  -56.8419 C.2       21 UNK         0.5000 
    118 O         -1.4787  -20.2717  -57.2212 O.2       21 UNK        -0.5000 
    119 N         -2.7888  -21.1258  -55.5714 N.am      22 UNK        -0.5000 
    120 CA        -1.9013  -20.9123  -54.4105 C.3       22 UNK         0.1400 
    121 C         -0.5318  -21.6629  -54.4608 C.2       22 UNK         0.5000 
    122 N         -0.3351  -22.6385  -55.3384 N.am      22 UNK        -0.7600 
    123 O          0.3655  -21.3765  -53.6738 O.2       22 UNK        -0.5000 
    124 C124       -1.7256  -19.4069  -54.0613 C.3       23 UNK        -0.0398 
    125 S125       -3.3135  -18.5671  -53.7340 S.3       23 UNK        -0.2404 
    126 C126       -3.3643  -18.5703  -51.9152 C.3       23 UNK        -0.0205 
    127 H127        3.9328  -15.4382  -49.5423 H         1 UNK         0.0600 
    128 H128        4.6203  -14.0479  -50.3896 H         1 UNK         0.0600 
    129 H129        3.0792  -14.7316  -50.9168 H         1 UNK         0.0600 
    130 H130        1.3880  -13.3977  -50.3444 H         1 UNK         0.3000 
    131 H131        1.0305  -12.4985  -47.6344 H         1 UNK         0.0600 
    132 H132       -0.9761  -13.2420  -48.5038 H         1 UNK         0.0800 
    133 H133       -1.1701  -11.5294  -48.6270 H         1 UNK         0.0800 
    134 H134       -2.9251  -13.5781  -51.6878 H         1 UNK         0.0800 
    135 H135       -2.9824  -13.5667  -49.9461 H         1 UNK         0.0800 
    136 H136       -3.6792  -15.8769  -51.7849 H         1 UNK         0.1150 
    137 H137       -0.9651  -19.0013  -50.6841 H         1 UNK         0.1150 
    138 H138       -0.0299  -14.9516  -49.7266 H         1 UNK         0.1150 
    139 H139        1.1309  -18.5089  -49.6672 H         1 UNK         0.0800 
    140 H140        1.7752  -16.9212  -49.9695 H         1 UNK         0.0800 
    141 H141       -1.3788  -17.4734  -47.7065 H         1 UNK         0.0800 
    142 H142       -0.7388  -17.5347  -46.0932 H         1 UNK         0.0800 
    143 H143       -0.1372  -19.7177  -48.1381 H         1 UNK         0.0600 
    144 H144        0.7518  -19.3833  -45.4634 H         1 UNK         0.3000 
    145 H145        1.4193  -22.8824  -44.8641 H         1 UNK         0.0600 
    146 H146        3.6031  -21.8712  -44.2785 H         1 UNK         0.0600 
    147 H147        3.3917  -21.9044  -46.0226 H         1 UNK         0.0600 
    148 H148        3.1857  -20.3953  -45.1452 H         1 UNK         0.0600 
    149 H149        1.6754  -20.6472  -43.1386 H         1 UNK         0.3000 
    150 H150       -1.6546  -20.7452  -41.7748 H         1 UNK         0.0600 
    151 H151       -0.3381  -22.3996  -40.4959 H         1 UNK         0.0600 
    152 H152       -0.2652  -20.8336  -39.7004 H         1 UNK         0.0600 
    153 H153        1.1096  -21.4147  -40.6379 H         1 UNK         0.0600 
    154 H154        0.4980  -18.9902  -41.2188 H         1 UNK         0.3000 
    155 H155       -0.1449  -16.6000  -43.8088 H         1 UNK         0.0600 
    156 H156       -0.4255  -16.4462  -40.7640 H         1 UNK         0.0600 
    157 H157       -1.7191  -16.1183  -41.9075 H         1 UNK         0.0600 
    158 H158       -0.2967  -15.0991  -41.8980 H         1 UNK         0.0600 
    159 H159        1.8255  -16.8136  -41.7044 H         1 UNK         0.3000 
    160 H160        4.2517  -18.5694  -43.6493 H         1 UNK         0.0600 
    161 H161        4.5197  -16.1890  -44.3338 H         1 UNK         0.0600 
    162 H162        5.6420  -16.6267  -43.0559 H         1 UNK         0.0600 
    163 H163        4.2161  -15.6650  -42.6820 H         1 UNK         0.0600 
    164 H164        4.1468  -17.4517  -40.9720 H         1 UNK         0.3000 
    165 H165        2.9451  -20.4127  -39.4151 H         1 UNK         0.0600 
    166 H166        5.1090  -20.4047  -38.2141 H         1 UNK         0.0600 
    167 H167        5.3277  -21.0419  -39.8357 H         1 UNK         0.0600 
    168 H168        5.8367  -19.3983  -39.4673 H         1 UNK         0.0600 
    169 H169        4.0818  -18.0997  -38.2693 H         1 UNK         0.3000 
    170 H170        1.2318  -16.8413  -37.2295 H         1 UNK         0.0600 
    171 H171        3.5902  -17.1114  -36.4888 H         1 UNK         0.0600 
    172 H172        4.1404  -16.0074  -37.7526 H         1 UNK         0.0600 
    173 H173        3.1192  -15.4259  -36.4455 H         1 UNK         0.0600 
    174 H174        0.7722  -14.9311  -38.2514 H         1 UNK         0.3000 
    175 H175        0.4570  -13.5995  -40.1733 H         1 UNK         0.0600 
    176 H176        1.6803  -12.4907  -38.2860 H         1 UNK         0.0600 
    177 H177        1.5573  -11.4001  -39.6565 H         1 UNK         0.0600 
    178 H178        3.0777  -12.2276  -39.3231 H         1 UNK         0.0600 
    179 H179        2.8715  -13.6858  -41.8105 H         1 UNK         0.3000 
    180 H180        2.9323  -12.2578  -43.7998 H         1 UNK         0.0600 
    181 H181        0.8901  -14.3674  -44.7354 H         1 UNK         0.0600 
    182 H182        2.4497  -14.7099  -44.0039 H         1 UNK         0.0600 
    183 H183        2.3784  -13.9476  -45.5798 H         1 UNK         0.0600 
    184 H184        0.1575  -11.6906  -44.6326 H         1 UNK         0.3000 
    185 H185       -0.2239  -10.6268  -46.6098 H         1 UNK         0.0600 
    186 H186       -0.0498   -8.8065  -44.9185 H         1 UNK         0.0600 
    187 H187        1.2589   -8.0621  -45.8283 H         1 UNK         0.0600 
    188 H188       -0.3622   -8.1513  -46.5177 H         1 UNK         0.0600 
    189 H189        1.5862   -8.9157  -48.0578 H         1 UNK         0.3000 
    190 H190       -1.9884  -19.8445  -45.0606 H         1 UNK         0.3000 
    191 H191       -4.5368  -20.2475  -46.2287 H         1 UNK         0.0600 
    192 H192       -5.1621  -21.0891  -43.9693 H         1 UNK         0.0600 
    193 H193       -3.4662  -21.1767  -43.5124 H         1 UNK         0.0600 
    194 H194       -4.2098  -19.6165  -43.8539 H         1 UNK         0.0600 
    195 H195       -2.0290  -22.6254  -45.2408 H         1 UNK         0.3000 
    196 H196       -3.4574  -24.9716  -45.9677 H         1 UNK         0.0600 
    197 H197       -1.2071  -26.0451  -45.9183 H         1 UNK         0.0600 
    198 H198       -1.4501  -25.0106  -44.5184 H         1 UNK         0.0600 
    199 H199       -0.4371  -24.4651  -45.8520 H         1 UNK         0.0600 
    200 H200       -1.1814  -22.9215  -47.8609 H         1 UNK         0.3000 
    201 H201       -1.2715  -24.4065  -50.2697 H         1 UNK         0.0600 
    202 H202        0.4476  -22.6819  -49.7834 H         1 UNK         0.0600 
    203 H203       -0.7720  -21.4122  -49.8489 H         1 UNK         0.0600 
    204 H204       -0.3746  -22.3293  -51.2943 H         1 UNK         0.0600 
    205 H205       -3.2944  -21.6435  -49.1696 H         1 UNK         0.3000 
    206 H206       -4.9428  -21.4362  -51.4569 H         1 UNK         0.0600 
    207 H207       -5.6196  -20.7879  -48.5352 H         1 UNK         0.0600 
    208 H208       -4.7705  -19.7086  -49.6314 H         1 UNK         0.0600 
    209 H209       -6.4386  -20.1545  -49.9571 H         1 UNK         0.0600 
    210 H210       -5.2624  -23.5100  -48.5442 H         1 UNK         0.3000 
    211 H211       -7.8169  -24.6127  -49.2596 H         1 UNK         0.0600 
    212 H212       -5.6284  -25.6876  -47.4039 H         1 UNK         0.0600 
    213 H213       -7.2827  -26.2800  -47.4867 H         1 UNK         0.0600 
    214 H214       -6.9658  -24.6413  -46.9363 H         1 UNK         0.0600 
    215 H215       -4.4418  -25.7328  -49.7589 H         1 UNK         0.3000 
    216 H216       -5.1629  -28.2337  -50.9288 H         1 UNK         0.0600 
    217 H217       -2.7132  -28.3760  -51.4154 H         1 UNK         0.0600 
    218 H218       -3.0243  -27.8840  -49.7577 H         1 UNK         0.0600 
    219 H219       -2.5193  -26.6892  -50.9499 H         1 UNK         0.0600 
    220 H220       -3.9881  -25.1604  -52.4294 H         1 UNK         0.3000 
    221 H221       -4.2298  -26.3887  -55.1310 H         1 UNK         0.0600 
    222 H222       -2.6444  -24.6267  -55.7695 H         1 UNK         0.0600 
    223 H223       -2.0231  -25.4774  -54.3649 H         1 UNK         0.0600 
    224 H224       -2.7572  -23.8867  -54.1774 H         1 UNK         0.0600 
    225 H225       -6.1784  -24.4972  -53.1906 H         1 UNK         0.3000 
    226 H226       -7.8976  -23.1117  -53.4783 H         1 UNK         0.0600 
    227 H227       -9.2384  -23.1735  -55.5174 H         1 UNK         0.0600 
    228 H228       -7.9149  -23.8799  -56.4420 H         1 UNK         0.0600 
    229 H229       -8.6861  -24.7941  -55.1527 H         1 UNK         0.0600 
    230 H230       -8.1137  -21.6327  -56.2700 H         1 UNK         0.3000 
    231 H231       -6.9361  -19.1879  -55.3902 H         1 UNK         0.0600 
    232 H232       -9.0271  -19.3067  -56.7263 H         1 UNK         0.0600 
    233 H233       -8.1426  -19.9831  -58.0952 H         1 UNK         0.0600 
    234 H234       -7.8279  -18.3360  -57.5630 H         1 UNK         0.0600 
    235 H235       -5.4675  -21.8127  -57.0882 H         1 UNK         0.3000 
    236 H236       -3.5710  -20.2621  -58.6451 H         1 UNK         0.0600 
    237 H237       -4.2562  -22.5838  -59.2785 H         1 UNK         0.0600 
    238 H238       -2.5178  -22.4485  -59.0644 H         1 UNK         0.0600 
    239 H239       -3.4925  -23.2098  -57.8175 H         1 UNK         0.0600 
    240 H240       -3.7047  -21.4947  -55.3534 H         1 UNK         0.3000 
    241 H241       -2.4230  -21.3726  -53.5703 H         1 UNK         0.0600 
    242 H242        0.5518  -23.1163  -55.3540 H         1 UNK         0.3800 
    243 H243       -1.0472  -22.8772  -56.0077 H         1 UNK         0.3800 
    244 H244       -1.2250  -18.8838  -54.8769 H         1 UNK         0.0800 
    245 H245       -1.0792  -19.2828  -53.1926 H         1 UNK         0.0800 
    246 H246       -3.1398  -19.5723  -51.5463 H         1 UNK         0.0800 
    247 H247       -4.3833  -18.3465  -51.5976 H         1 UNK         0.0800 
@<TRIPOS>BOND
     1    1    2 1    
     2    1  127 1    
     3    1  128 1    
     4    1  129 1    
     5    2    3 2    
     6    2    4 am   BACKBONE|DICT|INTERRES
     7    4    5 1    
     8    4  130 1    
     9    5    6 1    
    10    5   65 1    
    11    5  131 1    
    12    6    7 1    
    13    6  132 1    
    14    6  133 1    
    15    7    8 1    
    16    8    9 1    
    17    8  134 1    
    18    8  135 1    
    19    9   10 ar   
    20    9   14 ar   
    21   10   11 ar   
    22   10  136 1    
    23   11   12 ar   
    24   11  126 1    
    25   12   13 ar   
    26   12  137 1    
    27   13   14 ar   
    28   13   15 1    
    29   14  138 1    
    30   15   16 1    
    31   15  139 1    
    32   15  140 1    
    33   16   17 1    
    34   17   18 1    
    35   17  141 1    
    36   17  142 1    
    37   18   19 1    
    38   18   67 1    
    39   18  143 1    
    40   19   20 am   BACKBONE|DICT|INTERRES
    41   19  144 1    
    42   20   21 2    
    43   20   22 1    
    44   22   23 1    
    45   22   24 1    
    46   22  145 1    
    47   23  146 1    
    48   23  147 1    
    49   23  148 1    
    50   24   25 am   BACKBONE|DICT|INTERRES
    51   24  149 1    
    52   25   26 2    
    53   25   27 1    
    54   27   28 1    
    55   27   29 1    
    56   27  150 1    
    57   28  151 1    
    58   28  152 1    
    59   28  153 1    
    60   29   30 am   BACKBONE|DICT|INTERRES
    61   29  154 1    
    62   30   31 2    
    63   30   32 1    
    64   32   33 1    
    65   32   34 1    
    66   32  155 1    
    67   33  156 1    
    68   33  157 1    
    69   33  158 1    
    70   34   35 am   BACKBONE|DICT|INTERRES
    71   34  159 1    
    72   35   36 2    
    73   35   37 1    
    74   37   38 1    
    75   37   39 1    
    76   37  160 1    
    77   38  161 1    
    78   38  162 1    
    79   38  163 1    
    80   39   40 am   BACKBONE|DICT|INTERRES
    81   39  164 1    
    82   40   41 2    
    83   40   42 1    
    84   42   43 1    
    85   42   44 1    
    86   42  165 1    
    87   43  166 1    
    88   43  167 1    
    89   43  168 1    
    90   44   45 am   BACKBONE|DICT|INTERRES
    91   44  169 1    
    92   45   46 2    
    93   45   47 1    
    94   47   48 1    
    95   47   49 1    
    96   47  170 1    
    97   48  171 1    
    98   48  172 1    
    99   48  173 1    
   100   49   50 am   BACKBONE|DICT|INTERRES
   101   49  174 1    
   102   50   51 2    
   103   50   52 1    
   104   52   53 1    
   105   52   54 1    
   106   52  175 1    
   107   53  176 1    
   108   53  177 1    
   109   53  178 1    
   110   54   55 am   BACKBONE|DICT|INTERRES
   111   54  179 1    
   112   55   56 2    
   113   55   57 1    
   114   57   58 1    
   115   57   59 1    
   116   57  180 1    
   117   58  181 1    
   118   58  182 1    
   119   58  183 1    
   120   59   60 am   BACKBONE|DICT|INTERRES
   121   59  184 1    
   122   60   61 2    
   123   60   62 1    
   124   62   63 1    
   125   62   64 1    
   126   62  185 1    
   127   63  186 1    
   128   63  187 1    
   129   63  188 1    
   130   64   65 am   BACKBONE|DICT|INTERRES
   131   64  189 1    
   132   65   66 2    
   133   67   68 2    
   134   67   69 am   BACKBONE|DICT|INTERRES
   135   69   70 1    
   136   69  190 1    
   137   70   71 1    
   138   70   72 1    
   139   70  191 1    
   140   71  192 1    
   141   71  193 1    
   142   71  194 1    
   143   72   73 2    
   144   72   74 am   BACKBONE|DICT|INTERRES
   145   74   75 1    
   146   74  195 1    
   147   75   76 1    
   148   75   77 1    
   149   75  196 1    
   150   76  197 1    
   151   76  198 1    
   152   76  199 1    
   153   77   78 2    
   154   77   79 am   BACKBONE|DICT|INTERRES
   155   79   80 1    
   156   79  200 1    
   157   80   81 1    
   158   80   82 1    
   159   80  201 1    
   160   81  202 1    
   161   81  203 1    
   162   81  204 1    
   163   82   83 2    
   164   82   84 am   BACKBONE|DICT|INTERRES
   165   84   85 1    
   166   84  205 1    
   167   85   86 1    
   168   85   87 1    
   169   85  206 1    
   170   86  207 1    
   171   86  208 1    
   172   86  209 1    
   173   87   88 2    
   174   87   89 am   BACKBONE|DICT|INTERRES
   175   89   90 1    
   176   89  210 1    
   177   90   91 1    
   178   90   92 1    
   179   90  211 1    
   180   91  212 1    
   181   91  213 1    
   182   91  214 1    
   183   92   93 2    
   184   92   94 am   BACKBONE|DICT|INTERRES
   185   94   95 1    
   186   94  215 1    
   187   95   96 1    
   188   95   97 1    
   189   95  216 1    
   190   96  217 1    
   191   96  218 1    
   192   96  219 1    
   193   97   98 2    
   194   97   99 am   BACKBONE|DICT|INTERRES
   195   99  100 1    
   196   99  220 1    
   197  100  101 1    
   198  100  102 1    
   199  100  221 1    
   200  101  222 1    
   201  101  223 1    
   202  101  224 1    
   203  102  103 2    
   204  102  104 am   BACKBONE|DICT|INTERRES
   205  104  105 1    
   206  104  225 1    
   207  105  106 1    
   208  105  107 1    
   209  105  226 1    
   210  106  227 1    
   211  106  228 1    
   212  106  229 1    
   213  107  108 2    
   214  107  109 am   BACKBONE|DICT|INTERRES
   215  109  110 1    
   216  109  230 1    
   217  110  111 1    
   218  110  112 1    
   219  110  231 1    
   220  111  232 1    
   221  111  233 1    
   222  111  234 1    
   223  112  113 2    
   224  112  114 am   BACKBONE|DICT|INTERRES
   225  114  115 1    
   226  114  235 1    
   227  115  116 1    
   228  115  117 1    
   229  115  236 1    
   230  116  237 1    
   231  116  238 1    
   232  116  239 1    
   233  117  118 2    
   234  117  119 am   BACKBONE|DICT|INTERRES
   235  119  120 1    
   236  119  240 1    
   237  120  121 1    
   238  120  124 1    
   239  120  241 1    
   240  121  122 am   BACKBONE|DICT|INTERRES
   241  121  123 2    
   242  122  242 1    
   243  122  243 1    
   244  124  125 1    
   245  124  244 1    
   246  124  245 1    
   247  125  126 1    
   248  126  246 1    
   249  126  247 1    
@<TRIPOS>SUBSTRUCTURE
     1 UNK         1 GROUP             0       ****    0 ROOT    
