@<TRIPOS>MOLECULE
3R540
247   249    1
SMALL
USER_CHARGES


@<TRIPOS>ATOM
      1 CA          1.7971  -14.0680  -52.7021 C.3       0 UNK        -0.1800 
      2 C           2.3865  -13.7937  -51.3262 C.2       0 UNK         0.5000 
      3 O           1.6442  -13.7870  -50.3462 O.2       0 UNK        -0.5000 
      4 N           3.7104  -13.5743  -51.2693 N.am      1 UNK        -0.5000 
      5 CA          4.5530  -13.3143  -50.0899 C.3       1 UNK         0.1400 
      6 C6          5.1569  -14.5975  -49.4415 C.3       23 UNK        -0.0398 
      7 S7          3.9717  -15.8787  -48.8923 S.3       23 UNK        -0.2404 
      8 C8          4.0708  -17.0331  -50.2953 C.3       23 UNK        -0.0205 
      9 C9          3.0019  -18.1099  -50.2154 C.ar      23 UNK        -0.0193 
     10 C10         1.6648  -17.7791  -50.4500 C.ar      23 UNK        -0.1150 
     11 C11         0.6688  -18.7581  -50.4007 C.ar      23 UNK        -0.0193 
     12 C12         1.0260  -20.0819  -50.1279 C.ar      23 UNK        -0.1150 
     13 C13         2.3620  -20.4311  -49.9051 C.ar      23 UNK        -0.0193 
     14 C14         3.3458  -19.4380  -49.9450 C.ar      23 UNK        -0.1150 
     15 C15         2.7410  -21.8891  -49.6711 C.3       23 UNK        -0.0205 
     16 S16         3.5087  -22.2043  -48.0445 S.3       23 UNK        -0.2404 
     17 C17         2.2741  -21.5588  -46.8669 C.3       23 UNK        -0.0398 
     18 CA          1.2440  -22.6138  -46.3900 C.3       11 UNK         0.1400 
     19 N           0.6672  -22.2629  -45.0875 N.am      11 UNK        -0.5000 
     20 C          -0.1951  -23.0199  -44.3924 C.2       10 UNK         0.5000 
     21 O          -0.5422  -24.1505  -44.7316 O.2       10 UNK        -0.5000 
     22 CA         -0.8224  -22.3862  -43.1375 C.3       10 UNK         0.1400 
     23 CB          0.1237  -22.4980  -41.9332 C.3       10 UNK        -0.1800 
     24 N          -1.1991  -20.9874  -43.3487 N.am      10 UNK        -0.5000 
     25 C          -2.1386  -20.5780  -44.2141 C.2       9 UNK         0.5000 
     26 O          -2.8406  -21.3485  -44.8692 O.2       9 UNK        -0.5000 
     27 CA         -2.2803  -19.0575  -44.4258 C.3       9 UNK         0.1400 
     28 CB         -3.1315  -18.4226  -43.3172 C.3       9 UNK        -0.1800 
     29 N          -0.9858  -18.3784  -44.5052 N.am      9 UNK        -0.5000 
     30 C          -0.0725  -18.6073  -45.4598 C.2       8 UNK         0.5000 
     31 O          -0.2543  -19.3732  -46.4029 O.2       8 UNK        -0.5000 
     32 CA          1.2980  -17.9297  -45.2997 C.3       8 UNK         0.1400 
     33 CB          1.2843  -16.5082  -45.8698 C.3       8 UNK        -0.1800 
     34 N           1.7294  -17.9036  -43.9028 N.am      8 UNK        -0.5000 
     35 C           2.1334  -18.9886  -43.2276 C.2       7 UNK         0.5000 
     36 O           2.2090  -20.1117  -43.7250 O.2       7 UNK        -0.5000 
     37 CA          2.4690  -18.7933  -41.7382 C.3       7 UNK         0.1400 
     38 CB          3.8873  -18.2282  -41.5701 C.3       7 UNK        -0.1800 
     39 N           1.5133  -17.9185  -41.0584 N.am      7 UNK        -0.5000 
     40 C           0.2226  -18.2193  -40.8564 C.2       6 UNK         0.5000 
     41 O          -0.2893  -19.2871  -41.1886 O.2       6 UNK        -0.5000 
     42 CA         -0.6537  -17.1263  -40.2163 C.3       6 UNK         0.1400 
     43 CB         -0.6203  -17.2377  -38.6849 C.3       6 UNK        -0.1800 
     44 N          -0.2741  -15.7674  -40.6132 N.am      6 UNK        -0.5000 
     45 C          -0.3015  -15.3038  -41.8696 C.2       5 UNK         0.5000 
     46 O          -0.6185  -15.9889  -42.8450 O.2       5 UNK        -0.5000 
     47 CA          0.1737  -13.8548  -42.0650 C.3       5 UNK         0.1400 
     48 CB          1.6927  -13.8275  -42.2986 C.3       5 UNK        -0.1800 
     49 N          -0.5004  -13.2100  -43.1909 N.am      5 UNK        -0.5000 
     50 C          -1.7738  -12.7905  -43.1719 C.2       4 UNK         0.5000 
     51 O          -2.4988  -12.8780  -42.1792 O.2       4 UNK        -0.5000 
     52 CA         -2.3398  -12.1337  -44.4495 C.3       4 UNK         0.1400 
     53 CB         -2.3698  -10.6049  -44.2957 C.3       4 UNK        -0.1800 
     54 N          -1.6008  -12.4643  -45.6678 N.am      4 UNK        -0.5000 
     55 C          -1.6352  -13.6519  -46.2858 C.2       3 UNK         0.5000 
     56 O          -2.3524  -14.5849  -45.9245 O.2       3 UNK        -0.5000 
     57 CA         -0.7264  -13.8313  -47.5215 C.3       3 UNK         0.1400 
     58 CB         -1.5332  -13.5376  -48.7958 C.3       3 UNK        -0.1800 
     59 N           0.5114  -13.0364  -47.5635 N.am      3 UNK        -0.5000 
     60 C           1.4052  -12.8457  -46.5820 C.2       2 UNK         0.5000 
     61 O           1.2711  -13.2719  -45.4371 O.2       2 UNK        -0.5000 
     62 CA          2.6716  -12.0656  -46.9623 C.3       2 UNK         0.1400 
     63 CB          3.6144  -11.8191  -45.7693 C.3       2 UNK        -0.1800 
     64 N           3.3779  -12.8182  -47.9892 N.am      2 UNK        -0.5000 
     65 C           3.9326  -12.3089  -49.0919 C.2       1 UNK         0.5000 
     66 O           3.9636  -11.1038  -49.3508 O.2       1 UNK        -0.5000 
     67 C           0.1449  -22.8413  -47.4478 C.2       11 UNK         0.5000 
     68 O           0.1555  -23.8662  -48.1283 O.2       11 UNK        -0.5000 
     69 N          -0.8046  -21.9000  -47.5334 N.am      12 UNK        -0.5000 
     70 CA         -1.9566  -21.9386  -48.4303 C.3       12 UNK         0.1400 
     71 CB         -2.7365  -20.6228  -48.3070 C.3       12 UNK        -0.1800 
     72 C          -2.8659  -23.1526  -48.1833 C.2       12 UNK         0.5000 
     73 O          -3.2511  -23.8237  -49.1404 O.2       12 UNK        -0.5000 
     74 N          -3.1492  -23.4382  -46.9054 N.am      13 UNK        -0.5000 
     75 CA         -3.9143  -24.6032  -46.4642 C.3       13 UNK         0.1400 
     76 CB         -4.2145  -24.4787  -44.9630 C.3       13 UNK        -0.1800 
     77 C          -3.2096  -25.9375  -46.7737 C.2       13 UNK         0.5000 
     78 O          -3.8712  -26.8784  -47.2128 O.2       13 UNK        -0.5000 
     79 N          -1.8866  -25.9912  -46.5613 N.am      14 UNK        -0.5000 
     80 CA         -1.0440  -27.1528  -46.8529 C.3       14 UNK         0.1400 
     81 CB          0.3409  -26.9598  -46.2162 C.3       14 UNK        -0.1800 
     82 C          -0.9173  -27.4336  -48.3613 C.2       14 UNK         0.5000 
     83 O          -0.9926  -28.5928  -48.7712 O.2       14 UNK        -0.5000 
     84 N          -0.7455  -26.3705  -49.1589 N.am      15 UNK        -0.5000 
     85 CA         -0.6996  -26.4225  -50.6213 C.3       15 UNK         0.1400 
     86 CB         -0.1784  -25.0794  -51.1521 C.3       15 UNK        -0.1800 
     87 C          -2.0641  -26.7553  -51.2538 C.2       15 UNK         0.5000 
     88 O          -2.1028  -27.3492  -52.3321 O.2       15 UNK        -0.5000 
     89 N          -3.1500  -26.3526  -50.5789 N.am      16 UNK        -0.5000 
     90 CA         -4.5716  -26.5434  -50.8852 C.3       16 UNK         0.1400 
     91 CB         -4.9371  -28.0354  -50.9912 C.3       16 UNK        -0.1800 
     92 C          -5.0624  -25.7511  -52.1098 C.2       16 UNK         0.5000 
     93 O          -6.0873  -25.0772  -52.0201 O.2       16 UNK        -0.5000 
     94 N          -4.3199  -25.8071  -53.2215 N.am      17 UNK        -0.5000 
     95 CA         -4.5930  -25.0534  -54.4473 C.3       17 UNK         0.1400 
     96 CB         -3.7067  -25.5949  -55.5786 C.3       17 UNK        -0.1800 
     97 C          -4.3782  -23.5385  -54.2686 C.2       17 UNK         0.5000 
     98 O          -5.0998  -22.7405  -54.8672 O.2       17 UNK        -0.5000 
     99 N          -3.4069  -23.1718  -53.4214 N.am      18 UNK        -0.5000 
    100 CA        -3.0529  -21.7883  -53.1020 C.3       18 UNK         0.1400 
    101 CB        -1.5916  -21.7451  -52.6324 C.3       18 UNK        -0.1800 
    102 C         -3.9954  -21.1335  -52.0709 C.2       18 UNK         0.5000 
    103 O         -3.8564  -19.9388  -51.8150 O.2       18 UNK        -0.5000 
    104 N         -4.9484  -21.8971  -51.5117 N.am      19 UNK        -0.5000 
    105 CA        -5.9896  -21.4093  -50.5991 C.3       19 UNK         0.1400 
    106 CB        -6.6816  -22.6036  -49.9261 C.3       19 UNK        -0.1800 
    107 C         -7.0249  -20.4895  -51.2778 C.2       19 UNK         0.5000 
    108 O         -7.7710  -19.8027  -50.5783 O.2       19 UNK        -0.5000 
    109 N         -7.0481  -20.4743  -52.6180 N.am      20 UNK        -0.5000 
    110 CA        -7.7997  -19.5379  -53.4481 C.3       20 UNK         0.1400 
    111 CB        -7.8040  -20.0587  -54.8956 C.3       20 UNK        -0.1800 
    112 C         -7.2003  -18.1209  -53.3399 C.2       20 UNK         0.5000 
    113 O         -6.3400  -17.7493  -54.1396 O.2       20 UNK        -0.5000 
    114 N         -7.6305  -17.3843  -52.3076 N.am      21 UNK        -0.5000 
    115 CA        -7.2734  -16.0118  -51.9221 C.3       21 UNK         0.1400 
    116 CB        -7.5847  -15.0116  -53.0520 C.3       21 UNK        -0.1800 
    117 C         -5.8362  -15.8181  -51.3950 C.2       21 UNK         0.5000 
    118 O         -5.6343  -14.9486  -50.5459 O.2       21 UNK        -0.5000 
    119 N         -4.8706  -16.6023  -51.8904 N.am      22 UNK        -0.5000 
    120 CA        -3.4303  -16.5900  -51.5677 C.3       22 UNK         0.1400 
    121 C         -2.6788  -15.3025  -52.0257 C.2       22 UNK         0.5000 
    122 N         -3.2189  -14.1124  -51.8030 N.am      22 UNK        -0.7600 
    123 O         -1.6127  -15.3887  -52.6277 O.2       22 UNK        -0.5000 
    124 C124       -3.1599  -16.9713  -50.0810 C.3       23 UNK        -0.0398 
    125 S125       -1.4111  -17.1131  -49.5628 S.3       23 UNK        -0.2404 
    126 C126       -0.7803  -18.3927  -50.6929 C.3       23 UNK        -0.0205 
    127 H127        1.3379  -15.0567  -52.7196 H         1 UNK         0.0600 
    128 H128        2.5534  -14.0293  -53.4864 H         1 UNK         0.0600 
    129 H129        1.0264  -13.3327  -52.9333 H         1 UNK         0.0600 
    130 H130        4.2182  -13.5707  -52.1423 H         1 UNK         0.3000 
    131 H131        5.4100  -12.7754  -50.4977 H         1 UNK         0.0600 
    132 H132        5.8505  -15.0540  -50.1487 H         1 UNK         0.0800 
    133 H133        5.7766  -14.3259  -48.5851 H         1 UNK         0.0800 
    134 H134        5.0663  -17.4787  -50.3235 H         1 UNK         0.0800 
    135 H135        3.9502  -16.4853  -51.2307 H         1 UNK         0.0800 
    136 H136        1.3971  -16.7541  -50.6675 H         1 UNK         0.1150 
    137 H137        0.2655  -20.8471  -50.1110 H         1 UNK         0.1150 
    138 H138        4.3798  -19.7050  -49.7777 H         1 UNK         0.1150 
    139 H139        1.8738  -22.5392  -49.7906 H         1 UNK         0.0800 
    140 H140        3.4450  -22.1921  -50.4471 H         1 UNK         0.0800 
    141 H141        1.7922  -20.6703  -47.2736 H         1 UNK         0.0800 
    142 H142        2.8503  -21.2050  -46.0121 H         1 UNK         0.0800 
    143 H143        1.7649  -23.5630  -46.2477 H         1 UNK         0.0600 
    144 H144        0.9364  -21.3637  -44.7029 H         1 UNK         0.3000 
    145 H145       -1.7317  -22.9440  -42.9046 H         1 UNK         0.0600 
    146 H146        1.0421  -21.9312  -42.0855 H         1 UNK         0.0600 
    147 H147       -0.3508  -22.1263  -41.0249 H         1 UNK         0.0600 
    148 H148        0.4041  -23.5363  -41.7522 H         1 UNK         0.0600 
    149 H149       -0.7099  -20.2948  -42.7892 H         1 UNK         0.3000 
    150 H150       -2.7922  -18.9007  -45.3775 H         1 UNK         0.0600 
    151 H151       -4.1286  -18.8636  -43.2924 H         1 UNK         0.0600 
    152 H152       -3.2514  -17.3506  -43.4769 H         1 UNK         0.0600 
    153 H153       -2.6852  -18.5673  -42.3339 H         1 UNK         0.0600 
    154 H154       -0.7848  -17.6814  -43.7936 H         1 UNK         0.3000 
    155 H155        2.0271  -18.5081  -45.8713 H         1 UNK         0.0600 
    156 H156        0.5279  -15.8889  -45.3866 H         1 UNK         0.0600 
    157 H157        2.2506  -16.0191  -45.7460 H         1 UNK         0.0600 
    158 H158        1.0685  -16.5295  -46.9387 H         1 UNK         0.0600 
    159 H159        1.6300  -17.0276  -43.4120 H         1 UNK         0.3000 
    160 H160        2.4328  -19.7734  -41.2577 H         1 UNK         0.0600 
    161 H161        4.6227  -18.8698  -42.0575 H         1 UNK         0.0600 
    162 H162        3.9805  -17.2323  -42.0053 H         1 UNK         0.0600 
    163 H163        4.1629  -18.1618  -40.5174 H         1 UNK         0.0600 
    164 H164        1.8520  -17.0191  -40.7510 H         1 UNK         0.3000 
    165 H165       -1.6808  -17.2919  -40.5463 H         1 UNK         0.0600 
    166 H166       -1.3061  -16.5276  -38.2224 H         1 UNK         0.0600 
    167 H167       -0.9199  -18.2350  -38.3598 H         1 UNK         0.0600 
    168 H168        0.3780  -17.0491  -38.2881 H         1 UNK         0.0600 
    169 H169        0.0124  -15.1476  -39.8690 H         1 UNK         0.3000 
    170 H170       -0.0472  -13.2837  -41.1607 H         1 UNK         0.0600 
    171 H171        2.2303  -14.2084  -41.4296 H         1 UNK         0.0600 
    172 H172        1.9803  -14.4396  -43.1545 H         1 UNK         0.0600 
    173 H173        2.0470  -12.8127  -42.4809 H         1 UNK         0.0600 
    174 H174        0.0279  -13.1633  -44.0592 H         1 UNK         0.3000 
    175 H175       -3.3676  -12.4835  -44.5671 H         1 UNK         0.0600 
    176 H176       -1.3659  -10.1925  -44.1866 H         1 UNK         0.0600 
    177 H177       -2.8373  -10.1300  -45.1585 H         1 UNK         0.0600 
    178 H178       -2.9428  -10.3111  -43.4152 H         1 UNK         0.0600 
    179 H179       -0.9758  -11.7583  -46.0267 H         1 UNK         0.3000 
    180 H180       -0.4327  -14.8802  -47.5497 H         1 UNK         0.0600 
    181 H181       -1.7789  -12.4788  -48.8823 H         1 UNK         0.0600 
    182 H182       -2.4713  -14.0938  -48.8064 H         1 UNK         0.0600 
    183 H183       -0.9809  -13.8297  -49.6890 H         1 UNK         0.0600 
    184 H184        0.7794  -12.7281  -48.4900 H         1 UNK         0.3000 
    185 H185        2.3448  -11.0992  -47.3518 H         1 UNK         0.0600 
    186 H186        4.4841  -11.2346  -46.0695 H         1 UNK         0.0600 
    187 H187        3.1073  -11.2657  -44.9780 H         1 UNK         0.0600 
    188 H188        3.9724  -12.7556  -45.3395 H         1 UNK         0.0600 
    189 H189        3.3341  -13.8269  -47.9059 H         1 UNK         0.3000 
    190 H190       -0.7060  -21.0592  -46.9673 H         1 UNK         0.3000 
    191 H191       -1.5727  -22.0150  -49.4459 H         1 UNK         0.0600 
    192 H192       -3.3020  -20.5643  -47.3773 H         1 UNK         0.0600 
    193 H193       -3.4382  -20.5122  -49.1292 H         1 UNK         0.0600 
    194 H194       -2.0706  -19.7623  -48.3406 H         1 UNK         0.0600 
    195 H195       -2.8261  -22.8022  -46.1815 H         1 UNK         0.3000 
    196 H196       -4.8647  -24.5980  -47.0020 H         1 UNK         0.0600 
    197 H197       -4.8080  -25.3234  -44.6115 H         1 UNK         0.0600 
    198 H198       -4.7794  -23.5713  -44.7486 H         1 UNK         0.0600 
    199 H199       -3.2997  -24.4494  -44.3705 H         1 UNK         0.0600 
    200 H200       -1.4224  -25.1876  -46.1477 H         1 UNK         0.3000 
    201 H201       -1.5075  -28.0271  -46.3912 H         1 UNK         0.0600 
    202 H202        0.2643  -26.8501  -45.1344 H         1 UNK         0.0600 
    203 H203        0.8448  -26.0750  -46.6062 H         1 UNK         0.0600 
    204 H204        0.9846  -27.8183  -46.4115 H         1 UNK         0.0600 
    205 H205       -0.6200  -25.4547  -48.7325 H         1 UNK         0.3000 
    206 H206        0.0023  -27.2049  -50.9166 H         1 UNK         0.0600 
    207 H207        0.8375  -24.8877  -50.8063 H         1 UNK         0.0600 
    208 H208       -0.1618  -25.0611  -52.2426 H         1 UNK         0.0600 
    209 H209       -0.8045  -24.2550  -50.8130 H         1 UNK         0.0600 
    210 H210       -2.9849  -25.7741  -49.7621 H         1 UNK         0.3000 
    211 H211       -5.1042  -26.1404  -50.0219 H         1 UNK         0.0600 
    212 H212       -4.4599  -28.5160  -51.8454 H         1 UNK         0.0600 
    213 H213       -6.0140  -28.1630  -51.1065 H         1 UNK         0.0600 
    214 H214       -4.6396  -28.5756  -50.0921 H         1 UNK         0.0600 
    215 H215       -3.4893  -26.3933  -53.2018 H         1 UNK         0.3000 
    216 H216       -5.6377  -25.2123  -54.7225 H         1 UNK         0.0600 
    217 H217       -3.8966  -25.0639  -56.5123 H         1 UNK         0.0600 
    218 H218       -3.9027  -26.6518  -55.7605 H         1 UNK         0.0600 
    219 H219       -2.6463  -25.4859  -55.3472 H         1 UNK         0.0600 
    220 H220       -2.8788  -23.8957  -52.9576 H         1 UNK         0.3000 
    221 H221       -3.1231  -21.1947  -54.0161 H         1 UNK         0.0600 
    222 H222       -1.4608  -22.2593  -51.6835 H         1 UNK         0.0600 
    223 H223       -0.9270  -22.2102  -53.3607 H         1 UNK         0.0600 
    224 H224       -1.2530  -20.7174  -52.5028 H         1 UNK         0.0600 
    225 H225       -5.0030  -22.8723  -51.7708 H         1 UNK         0.3000 
    226 H226       -5.5124  -20.8183  -49.8179 H         1 UNK         0.0600 
    227 H227       -5.9591  -23.2731  -49.4591 H         1 UNK         0.0600 
    228 H228       -7.3642  -22.2670  -49.1449 H         1 UNK         0.0600 
    229 H229       -7.2671  -23.1823  -50.6405 H         1 UNK         0.0600 
    230 H230       -6.3956  -21.0720  -53.1051 H         1 UNK         0.3000 
    231 H231       -8.8338  -19.5051  -53.0984 H         1 UNK         0.0600 
    232 H232       -8.3411  -19.3755  -55.5546 H         1 UNK         0.0600 
    233 H233       -8.2955  -21.0294  -54.9627 H         1 UNK         0.0600 
    234 H234       -6.7928  -20.1706  -55.2896 H         1 UNK         0.0600 
    235 H235       -8.2428  -17.8543  -51.6516 H         1 UNK         0.3000 
    236 H236       -7.9338  -15.7702  -51.0878 H         1 UNK         0.0600 
    237 H237       -7.4366  -13.9854  -52.7132 H         1 UNK         0.0600 
    238 H238       -8.6199  -15.0978  -53.3821 H         1 UNK         0.0600 
    239 H239       -6.9410  -15.1610  -53.9192 H         1 UNK         0.0600 
    240 H240       -5.1409  -17.2354  -52.6355 H         1 UNK         0.3000 
    241 H241       -3.0245  -17.3949  -52.1799 H         1 UNK         0.0600 
    242 H242       -2.7493  -13.2764  -52.1099 H         1 UNK         0.3800 
    243 H243       -4.1024  -14.0597  -51.3067 H         1 UNK         0.3800 
    244 H244       -3.6257  -16.2421  -49.4181 H         1 UNK         0.0800 
    245 H245       -3.6462  -17.9222  -49.8598 H         1 UNK         0.0800 
    246 H246       -1.4236  -19.2699  -50.6242 H         1 UNK         0.0800 
    247 H247       -0.8412  -18.0363  -51.7212 H         1 UNK         0.0800 
@<TRIPOS>BOND
     1    1    2 1    
     2    1  127 1    
     3    1  128 1    
     4    1  129 1    
     5    2    3 2    
     6    2    4 am   BACKBONE|DICT|INTERRES
     7    4    5 1    
     8    4  130 1    
     9    5    6 1    
    10    5   65 1    
    11    5  131 1    
    12    6    7 1    
    13    6  132 1    
    14    6  133 1    
    15    7    8 1    
    16    8    9 1    
    17    8  134 1    
    18    8  135 1    
    19    9   10 ar   
    20    9   14 ar   
    21   10   11 ar   
    22   10  136 1    
    23   11   12 ar   
    24   11  126 1    
    25   12   13 ar   
    26   12  137 1    
    27   13   14 ar   
    28   13   15 1    
    29   14  138 1    
    30   15   16 1    
    31   15  139 1    
    32   15  140 1    
    33   16   17 1    
    34   17   18 1    
    35   17  141 1    
    36   17  142 1    
    37   18   19 1    
    38   18   67 1    
    39   18  143 1    
    40   19   20 am   BACKBONE|DICT|INTERRES
    41   19  144 1    
    42   20   21 2    
    43   20   22 1    
    44   22   23 1    
    45   22   24 1    
    46   22  145 1    
    47   23  146 1    
    48   23  147 1    
    49   23  148 1    
    50   24   25 am   BACKBONE|DICT|INTERRES
    51   24  149 1    
    52   25   26 2    
    53   25   27 1    
    54   27   28 1    
    55   27   29 1    
    56   27  150 1    
    57   28  151 1    
    58   28  152 1    
    59   28  153 1    
    60   29   30 am   BACKBONE|DICT|INTERRES
    61   29  154 1    
    62   30   31 2    
    63   30   32 1    
    64   32   33 1    
    65   32   34 1    
    66   32  155 1    
    67   33  156 1    
    68   33  157 1    
    69   33  158 1    
    70   34   35 am   BACKBONE|DICT|INTERRES
    71   34  159 1    
    72   35   36 2    
    73   35   37 1    
    74   37   38 1    
    75   37   39 1    
    76   37  160 1    
    77   38  161 1    
    78   38  162 1    
    79   38  163 1    
    80   39   40 am   BACKBONE|DICT|INTERRES
    81   39  164 1    
    82   40   41 2    
    83   40   42 1    
    84   42   43 1    
    85   42   44 1    
    86   42  165 1    
    87   43  166 1    
    88   43  167 1    
    89   43  168 1    
    90   44   45 am   BACKBONE|DICT|INTERRES
    91   44  169 1    
    92   45   46 2    
    93   45   47 1    
    94   47   48 1    
    95   47   49 1    
    96   47  170 1    
    97   48  171 1    
    98   48  172 1    
    99   48  173 1    
   100   49   50 am   BACKBONE|DICT|INTERRES
   101   49  174 1    
   102   50   51 2    
   103   50   52 1    
   104   52   53 1    
   105   52   54 1    
   106   52  175 1    
   107   53  176 1    
   108   53  177 1    
   109   53  178 1    
   110   54   55 am   BACKBONE|DICT|INTERRES
   111   54  179 1    
   112   55   56 2    
   113   55   57 1    
   114   57   58 1    
   115   57   59 1    
   116   57  180 1    
   117   58  181 1    
   118   58  182 1    
   119   58  183 1    
   120   59   60 am   BACKBONE|DICT|INTERRES
   121   59  184 1    
   122   60   61 2    
   123   60   62 1    
   124   62   63 1    
   125   62   64 1    
   126   62  185 1    
   127   63  186 1    
   128   63  187 1    
   129   63  188 1    
   130   64   65 am   BACKBONE|DICT|INTERRES
   131   64  189 1    
   132   65   66 2    
   133   67   68 2    
   134   67   69 am   BACKBONE|DICT|INTERRES
   135   69   70 1    
   136   69  190 1    
   137   70   71 1    
   138   70   72 1    
   139   70  191 1    
   140   71  192 1    
   141   71  193 1    
   142   71  194 1    
   143   72   73 2    
   144   72   74 am   BACKBONE|DICT|INTERRES
   145   74   75 1    
   146   74  195 1    
   147   75   76 1    
   148   75   77 1    
   149   75  196 1    
   150   76  197 1    
   151   76  198 1    
   152   76  199 1    
   153   77   78 2    
   154   77   79 am   BACKBONE|DICT|INTERRES
   155   79   80 1    
   156   79  200 1    
   157   80   81 1    
   158   80   82 1    
   159   80  201 1    
   160   81  202 1    
   161   81  203 1    
   162   81  204 1    
   163   82   83 2    
   164   82   84 am   BACKBONE|DICT|INTERRES
   165   84   85 1    
   166   84  205 1    
   167   85   86 1    
   168   85   87 1    
   169   85  206 1    
   170   86  207 1    
   171   86  208 1    
   172   86  209 1    
   173   87   88 2    
   174   87   89 am   BACKBONE|DICT|INTERRES
   175   89   90 1    
   176   89  210 1    
   177   90   91 1    
   178   90   92 1    
   179   90  211 1    
   180   91  212 1    
   181   91  213 1    
   182   91  214 1    
   183   92   93 2    
   184   92   94 am   BACKBONE|DICT|INTERRES
   185   94   95 1    
   186   94  215 1    
   187   95   96 1    
   188   95   97 1    
   189   95  216 1    
   190   96  217 1    
   191   96  218 1    
   192   96  219 1    
   193   97   98 2    
   194   97   99 am   BACKBONE|DICT|INTERRES
   195   99  100 1    
   196   99  220 1    
   197  100  101 1    
   198  100  102 1    
   199  100  221 1    
   200  101  222 1    
   201  101  223 1    
   202  101  224 1    
   203  102  103 2    
   204  102  104 am   BACKBONE|DICT|INTERRES
   205  104  105 1    
   206  104  225 1    
   207  105  106 1    
   208  105  107 1    
   209  105  226 1    
   210  106  227 1    
   211  106  228 1    
   212  106  229 1    
   213  107  108 2    
   214  107  109 am   BACKBONE|DICT|INTERRES
   215  109  110 1    
   216  109  230 1    
   217  110  111 1    
   218  110  112 1    
   219  110  231 1    
   220  111  232 1    
   221  111  233 1    
   222  111  234 1    
   223  112  113 2    
   224  112  114 am   BACKBONE|DICT|INTERRES
   225  114  115 1    
   226  114  235 1    
   227  115  116 1    
   228  115  117 1    
   229  115  236 1    
   230  116  237 1    
   231  116  238 1    
   232  116  239 1    
   233  117  118 2    
   234  117  119 am   BACKBONE|DICT|INTERRES
   235  119  120 1    
   236  119  240 1    
   237  120  121 1    
   238  120  124 1    
   239  120  241 1    
   240  121  122 am   BACKBONE|DICT|INTERRES
   241  121  123 2    
   242  122  242 1    
   243  122  243 1    
   244  124  125 1    
   245  124  244 1    
   246  124  245 1    
   247  125  126 1    
   248  126  246 1    
   249  126  247 1    
@<TRIPOS>SUBSTRUCTURE
     1 UNK         1 GROUP             0       ****    0 ROOT    
