@<TRIPOS>MOLECULE
3R540
247   249    1
SMALL
USER_CHARGES


@<TRIPOS>ATOM
      1 CA          6.6464  -18.8332  -47.9052 C.3       0 UNK        -0.1800 
      2 C           6.0893  -17.7896  -46.9475 C.2       0 UNK         0.5000 
      3 O           6.2875  -17.9017  -45.7376 O.2       0 UNK        -0.5000 
      4 N           5.3836  -16.7867  -47.4839 N.am      1 UNK        -0.5000 
      5 CA          4.7860  -15.6818  -46.7285 C.3       1 UNK         0.1400 
      6 C6          3.7847  -14.8703  -47.5890 C.3       23 UNK        -0.0398 
      7 S7          2.3573  -15.8714  -48.1335 S.3       23 UNK        -0.2404 
      8 C8          2.1187  -15.2941  -49.8441 C.3       23 UNK        -0.0205 
      9 C9          0.7704  -15.7255  -50.4106 C.ar      23 UNK        -0.0193 
     10 C10         0.6907  -16.4783  -51.5881 C.ar      23 UNK        -0.1150 
     11 C11        -0.5515  -16.8199  -52.1392 C.ar      23 UNK        -0.0193 
     12 C12        -1.7200  -16.4085  -51.4864 C.ar      23 UNK        -0.1150 
     13 C13        -1.6540  -15.6746  -50.2998 C.ar      23 UNK        -0.0193 
     14 C14        -0.4080  -15.3258  -49.7757 C.ar      23 UNK        -0.1150 
     15 C15        -2.9282  -15.2535  -49.5844 C.3       23 UNK        -0.0205 
     16 S16        -3.7170  -16.6496  -48.7220 S.3       23 UNK        -0.2404 
     17 C17        -2.4104  -17.1663  -47.5511 C.3       23 UNK        -0.0398 
     18 CA         -1.6522  -18.4470  -47.9868 C.3       11 UNK         0.1400 
     19 N          -0.4894  -18.7210  -47.1384 N.am      11 UNK        -0.5000 
     20 C           0.4038  -19.7002  -47.3456 C.2       10 UNK         0.5000 
     21 O           0.3878  -20.4434  -48.3241 O.2       10 UNK        -0.5000 
     22 CA          1.4563  -19.9471  -46.2520 C.3       10 UNK         0.1400 
     23 CB          2.6634  -19.0170  -46.4172 C.3       10 UNK        -0.1800 
     24 N           0.9152  -19.8196  -44.9009 N.am      10 UNK        -0.5000 
     25 C          -0.0184  -20.6227  -44.3742 C.2       9 UNK         0.5000 
     26 O          -0.5182  -21.5748  -44.9737 O.2       9 UNK        -0.5000 
     27 CA         -0.4997  -20.2813  -42.9525 C.3       9 UNK         0.1400 
     28 CB          0.5305  -20.7184  -41.9002 C.3       9 UNK        -0.1800 
     29 N          -0.7926  -18.8577  -42.7873 N.am      9 UNK        -0.5000 
     30 C          -1.7748  -18.2080  -43.4281 C.2       8 UNK         0.5000 
     31 O          -2.5573  -18.7456  -44.2143 O.2       8 UNK        -0.5000 
     32 CA         -1.8634  -16.6897  -43.1832 C.3       8 UNK         0.1400 
     33 CB         -2.5005  -16.3902  -41.8180 C.3       8 UNK        -0.1800 
     34 N          -0.5604  -16.0272  -43.2764 N.am      8 UNK        -0.5000 
     35 C           0.1914  -16.0096  -44.3859 C.2       7 UNK         0.5000 
     36 O          -0.1577  -16.5119  -45.4494 O.2       7 UNK        -0.5000 
     37 CA          1.5876  -15.3805  -44.2931 C.3       7 UNK         0.1400 
     38 CB          1.5209  -13.8526  -44.4234 C.3       7 UNK        -0.1800 
     39 N           2.2956  -15.7461  -43.0709 N.am      7 UNK        -0.5000 
     40 C           2.6387  -16.9898  -42.7112 C.2       6 UNK         0.5000 
     41 O           2.4231  -17.9871  -43.3948 O.2       6 UNK        -0.5000 
     42 CA          3.2918  -17.1470  -41.3302 C.3       6 UNK         0.1400 
     43 CB          4.7848  -16.7857  -41.3853 C.3       6 UNK        -0.1800 
     44 N           2.6190  -16.3273  -40.3235 N.am      6 UNK        -0.5000 
     45 C           1.3881  -16.5672  -39.8510 C.2       5 UNK         0.5000 
     46 O           0.7023  -17.5352  -40.1842 O.2       5 UNK        -0.5000 
     47 CA          0.8200  -15.5302  -38.8637 C.3       5 UNK         0.1400 
     48 CB          1.3392  -15.7933  -37.4422 C.3       5 UNK        -0.1800 
     49 N           1.1314  -14.1504  -39.2471 N.am      5 UNK        -0.5000 
     50 C           0.6110  -13.5356  -40.3180 C.2       4 UNK         0.5000 
     51 O          -0.1874  -14.0689  -41.0886 O.2       4 UNK        -0.5000 
     52 CA          1.0912  -12.0975  -40.6026 C.3       4 UNK         0.1400 
     53 CB          0.3249  -11.0934  -39.7282 C.3       4 UNK        -0.1800 
     54 N           2.5355  -11.8677  -40.4532 N.am      4 UNK        -0.5000 
     55 C           3.5027  -12.6028  -41.0179 C.2       3 UNK         0.5000 
     56 O           3.2951  -13.6681  -41.5973 O.2       3 UNK        -0.5000 
     57 CA          4.9479  -12.0799  -40.9038 C.3       3 UNK         0.1400 
     58 CB          5.5229  -12.4039  -39.5163 C.3       3 UNK        -0.1800 
     59 N           5.8190  -12.6781  -41.9216 N.am      3 UNK        -0.5000 
     60 C           5.6899  -12.5116  -43.2460 C.2       2 UNK         0.5000 
     61 O           4.9076  -11.7102  -43.7602 O.2       2 UNK        -0.5000 
     62 CA          6.5446  -13.4052  -44.1605 C.3       2 UNK         0.1400 
     63 CB          7.6073  -14.2516  -43.4260 C.3       2 UNK        -0.1800 
     64 N           5.6433  -14.2811  -44.9053 N.am      2 UNK        -0.5000 
     65 C           5.8722  -14.7583  -46.1340 C.2       1 UNK         0.5000 
     66 O           6.8756  -14.4871  -46.7991 O.2       1 UNK        -0.5000 
     67 C          -2.5872  -19.6689  -48.0502 C.2       11 UNK         0.5000 
     68 O          -2.9110  -20.1186  -49.1473 O.2       11 UNK        -0.5000 
     69 N          -2.9604  -20.2155  -46.8826 N.am      12 UNK        -0.5000 
     70 CA         -3.8104  -21.4026  -46.7673 C.3       12 UNK         0.1400 
     71 CB         -4.1332  -21.6639  -45.2892 C.3       12 UNK        -0.1800 
     72 C          -3.1994  -22.6538  -47.4262 C.2       12 UNK         0.5000 
     73 O          -3.9251  -23.4068  -48.0787 O.2       12 UNK        -0.5000 
     74 N          -1.8798  -22.8292  -47.2704 N.am      13 UNK        -0.5000 
     75 CA         -1.0990  -23.8978  -47.8894 C.3       13 UNK         0.1400 
     76 CB          0.2941  -23.9596  -47.2451 C.3       13 UNK        -0.1800 
     77 C          -0.9926  -23.7496  -49.4181 C.2       13 UNK         0.5000 
     78 O          -1.2385  -24.7218  -50.1314 O.2       13 UNK        -0.5000 
     79 N          -0.6546  -22.5433  -49.8975 N.am      14 UNK        -0.5000 
     80 CA         -0.5285  -22.2152  -51.3212 C.3       14 UNK         0.1400 
     81 CB          0.1234  -20.8336  -51.4815 C.3       14 UNK        -0.1800 
     82 C          -1.8739  -22.2678  -52.0639 C.2       14 UNK         0.5000 
     83 O          -1.9310  -22.7495  -53.1962 O.2       14 UNK        -0.5000 
     84 N          -2.9422  -21.8108  -51.3982 N.am      15 UNK        -0.5000 
     85 CA         -4.3152  -21.9147  -51.8789 C.3       15 UNK         0.1400 
     86 CB         -5.2146  -20.9561  -51.0861 C.3       15 UNK        -0.1800 
     87 C          -4.8691  -23.3471  -51.8104 C.2       15 UNK         0.5000 
     88 O          -5.8573  -23.6277  -52.4889 O.2       15 UNK        -0.5000 
     89 N          -4.2535  -24.2066  -50.9863 N.am      16 UNK        -0.5000 
     90 CA         -4.6446  -25.5815  -50.6634 C.3       16 UNK         0.1400 
     91 CB         -4.4434  -26.5044  -51.8818 C.3       16 UNK        -0.1800 
     92 C          -6.0739  -25.6377  -50.0920 C.2       16 UNK         0.5000 
     93 O          -6.9091  -26.3970  -50.5822 O.2       16 UNK        -0.5000 
     94 N          -6.3484  -24.7587  -49.1160 N.am      17 UNK        -0.5000 
     95 CA         -7.6708  -24.4910  -48.5314 C.3       17 UNK         0.1400 
     96 CB         -8.1488  -25.6918  -47.6891 C.3       17 UNK        -0.1800 
     97 C          -8.7094  -24.0377  -49.5865 C.2       17 UNK         0.5000 
     98 O          -9.8791  -24.4170  -49.5159 O.2       17 UNK        -0.5000 
     99 N          -8.2325  -23.2423  -50.5555 N.am      18 UNK        -0.5000 
    100 CA        -8.9313  -22.6917  -51.7227 C.3       18 UNK         0.1400 
    101 CB       -10.1638  -21.8603  -51.3098 C.3       18 UNK        -0.1800 
    102 C         -9.2473  -23.7177  -52.8327 C.2       18 UNK         0.5000 
    103 O         -9.9736  -23.3756  -53.7672 O.2       18 UNK        -0.5000 
    104 N         -8.6850  -24.9335  -52.7559 N.am      19 UNK        -0.5000 
    105 CA        -8.8200  -25.9559  -53.7968 C.3       19 UNK         0.1400 
    106 CB        -8.5246  -27.3421  -53.2055 C.3       19 UNK        -0.1800 
    107 C         -7.9126  -25.6906  -55.0137 C.2       19 UNK         0.5000 
    108 O         -8.3021  -26.0204  -56.1348 O.2       19 UNK        -0.5000 
    109 N         -6.7278  -25.1109  -54.7771 N.am      20 UNK        -0.5000 
    110 CA        -5.7398  -24.7785  -55.8067 C.3       20 UNK         0.1400 
    111 CB        -4.3451  -25.2193  -55.3345 C.3       20 UNK        -0.1800 
    112 C         -5.7337  -23.2755  -56.1262 C.2       20 UNK         0.5000 
    113 O         -5.4332  -22.9030  -57.2611 O.2       20 UNK        -0.5000 
    114 N         -6.0425  -22.4411  -55.1204 N.am      21 UNK        -0.5000 
    115 CA        -6.1444  -20.9759  -55.1775 C.3       21 UNK         0.1400 
    116 CB        -7.4160  -20.5699  -55.9494 C.3       21 UNK        -0.1800 
    117 C         -4.8695  -20.2756  -55.7078 C.2       21 UNK         0.5000 
    118 O         -4.9678  -19.2524  -56.3868 O.2       21 UNK        -0.5000 
    119 N         -3.7005  -20.8582  -55.4020 N.am      22 UNK        -0.5000 
    120 CA        -2.3635  -20.4588  -55.8776 C.3       22 UNK         0.1400 
    121 C         -2.1142  -20.7323  -57.3947 C.2       22 UNK         0.5000 
    122 N         -2.9599  -21.4821  -58.0935 N.am      22 UNK        -0.7600 
    123 O         -1.1138  -20.2853  -57.9495 O.2       22 UNK        -0.5000 
    124 C124       -1.9502  -19.0168  -55.4604 C.3       23 UNK        -0.0398 
    125 S125       -2.0012  -18.7245  -53.6569 S.3       23 UNK        -0.2404 
    126 C126       -0.6047  -17.5582  -53.4767 C.3       23 UNK        -0.0205 
    127 H127        6.2460  -19.8171  -47.6606 H         1 UNK         0.0600 
    128 H128        7.7326  -18.8754  -47.8241 H         1 UNK         0.0600 
    129 H129        6.3908  -18.6106  -48.9415 H         1 UNK         0.0600 
    130 H130        5.2653  -16.7433  -48.4853 H         1 UNK         0.3000 
    131 H131        4.2432  -16.1290  -45.8944 H         1 UNK         0.0600 
    132 H132        3.3903  -14.0236  -47.0243 H         1 UNK         0.0800 
    133 H133        4.2898  -14.4473  -48.4593 H         1 UNK         0.0800 
    134 H134        2.9384  -15.6634  -50.4621 H         1 UNK         0.0800 
    135 H135        2.1719  -14.2048  -49.8695 H         1 UNK         0.0800 
    136 H136        1.5990  -16.7742  -52.0940 H         1 UNK         0.1150 
    137 H137       -2.6881  -16.6536  -51.8993 H         1 UNK         0.1150 
    138 H138       -0.3506  -14.7445  -48.8660 H         1 UNK         0.1150 
    139 H139       -2.7262  -14.4553  -48.8683 H         1 UNK         0.0800 
    140 H140       -3.6314  -14.8420  -50.3098 H         1 UNK         0.0800 
    141 H141       -2.8607  -17.3003  -46.5665 H         1 UNK         0.0800 
    142 H142       -1.7082  -16.3411  -47.4419 H         1 UNK         0.0800 
    143 H143       -1.2658  -18.2806  -48.9947 H         1 UNK         0.0600 
    144 H144       -0.3652  -18.1013  -46.3410 H         1 UNK         0.3000 
    145 H145        1.8113  -20.9728  -46.3691 H         1 UNK         0.0600 
    146 H146        3.4787  -19.3088  -45.7551 H         1 UNK         0.0600 
    147 H147        3.0460  -19.0390  -47.4384 H         1 UNK         0.0600 
    148 H148        2.4010  -17.9868  -46.1820 H         1 UNK         0.0600 
    149 H149        1.3096  -19.0766  -44.3268 H         1 UNK         0.3000 
    150 H150       -1.4231  -20.8362  -42.7735 H         1 UNK         0.0600 
    151 H151        0.7525  -21.7825  -41.9896 H         1 UNK         0.0600 
    152 H152        0.1580  -20.5466  -40.8901 H         1 UNK         0.0600 
    153 H153        1.4708  -20.1760  -42.0042 H         1 UNK         0.0600 
    154 H154       -0.1910  -18.3374  -42.1607 H         1 UNK         0.3000 
    155 H155       -2.5073  -16.2675  -43.9575 H         1 UNK         0.0600 
    156 H156       -1.8747  -16.7373  -40.9952 H         1 UNK         0.0600 
    157 H157       -3.4712  -16.8784  -41.7234 H         1 UNK         0.0600 
    158 H158       -2.6608  -15.3200  -41.6860 H         1 UNK         0.0600 
    159 H159       -0.2315  -15.5420  -42.4475 H         1 UNK         0.3000 
    160 H160        2.1641  -15.7652  -45.1322 H         1 UNK         0.0600 
    161 H161        0.9565  -13.4048  -43.6055 H         1 UNK         0.0600 
    162 H162        1.0359  -13.5627  -45.3564 H         1 UNK         0.0600 
    163 H163        2.5171  -13.4100  -44.4228 H         1 UNK         0.0600 
    164 H164        2.5433  -14.9807  -42.4437 H         1 UNK         0.3000 
    165 H165        3.2052  -18.1949  -41.0350 H         1 UNK         0.0600 
    166 H166        5.2659  -16.9519  -40.4215 H         1 UNK         0.0600 
    167 H167        5.3065  -17.4007  -42.1200 H         1 UNK         0.0600 
    168 H168        4.9426  -15.7436  -41.6627 H         1 UNK         0.0600 
    169 H169        3.0759  -15.4647  -40.0646 H         1 UNK         0.3000 
    170 H170       -0.2663  -15.6438  -38.8542 H         1 UNK         0.0600 
    171 H171        1.1067  -16.8106  -37.1243 H         1 UNK         0.0600 
    172 H172        2.4207  -15.6678  -37.3770 H         1 UNK         0.0600 
    173 H173        0.8784  -15.1160  -36.7229 H         1 UNK         0.0600 
    174 H174        1.7914  -13.6477  -38.6722 H         1 UNK         0.3000 
    175 H175        0.8471  -11.8835  -41.6448 H         1 UNK         0.0600 
    176 H176        0.5715  -11.2089  -38.6721 H         1 UNK         0.0600 
    177 H177        0.5505  -10.0663  -40.0156 H         1 UNK         0.0600 
    178 H178       -0.7530  -11.2274  -39.8305 H         1 UNK         0.0600 
    179 H179        2.7976  -11.0211  -39.9692 H         1 UNK         0.3000 
    180 H180        4.9402  -10.9977  -41.0475 H         1 UNK         0.0600 
    181 H181        5.5461  -13.4789  -39.3315 H         1 UNK         0.0600 
    182 H182        4.9259  -11.9479  -38.7255 H         1 UNK         0.0600 
    183 H183        6.5393  -12.0237  -39.4122 H         1 UNK         0.0600 
    184 H184        6.4724  -13.3726  -41.5922 H         1 UNK         0.3000 
    185 H185        7.0565  -12.7339  -44.8533 H         1 UNK         0.0600 
    186 H186        8.2814  -13.6230  -42.8428 H         1 UNK         0.0600 
    187 H187        7.1555  -14.9817  -42.7534 H         1 UNK         0.0600 
    188 H188        8.2236  -14.8024  -44.1369 H         1 UNK         0.0600 
    189 H189        4.7769  -14.5017  -44.4342 H         1 UNK         0.3000 
    190 H190       -2.6500  -19.7912  -46.0145 H         1 UNK         0.3000 
    191 H191       -4.7469  -21.1858  -47.2851 H         1 UNK         0.0600 
    192 H192       -3.2315  -21.8555  -44.7070 H         1 UNK         0.0600 
    193 H193       -4.7870  -22.5299  -45.1788 H         1 UNK         0.0600 
    194 H194       -4.6435  -20.8110  -44.8411 H         1 UNK         0.0600 
    195 H195       -1.3744  -22.1870  -46.6674 H         1 UNK         0.3000 
    196 H196       -1.6059  -24.8427  -47.6824 H         1 UNK         0.0600 
    197 H197        0.8860  -24.7705  -47.6711 H         1 UNK         0.0600 
    198 H198        0.2238  -24.1364  -46.1716 H         1 UNK         0.0600 
    199 H199        0.8495  -23.0337  -47.3945 H         1 UNK         0.0600 
    200 H200       -0.4376  -21.7917  -49.2451 H         1 UNK         0.3000 
    201 H201        0.1309  -22.9559  -51.7780 H         1 UNK         0.0600 
    202 H202        1.1078  -20.8040  -51.0145 H         1 UNK         0.0600 
    203 H203       -0.4844  -20.0469  -51.0313 H         1 UNK         0.0600 
    204 H204        0.2562  -20.5847  -52.5348 H         1 UNK         0.0600 
    205 H205       -2.8109  -21.3515  -50.4980 H         1 UNK         0.3000 
    206 H206       -4.3310  -21.6035  -52.9204 H         1 UNK         0.0600 
    207 H207       -4.8424  -19.9327  -51.1430 H         1 UNK         0.0600 
    208 H208       -6.2302  -20.9487  -51.4802 H         1 UNK         0.0600 
    209 H209       -5.2695  -21.2341  -50.0326 H         1 UNK         0.0600 
    210 H210       -3.4583  -23.8600  -50.4663 H         1 UNK         0.3000 
    211 H211       -3.9744  -25.9190  -49.8714 H         1 UNK         0.0600 
    212 H212       -5.1384  -26.2706  -52.6870 H         1 UNK         0.0600 
    213 H213       -4.6025  -27.5481  -51.6089 H         1 UNK         0.0600 
    214 H214       -3.4306  -26.4207  -52.2763 H         1 UNK         0.0600 
    215 H215       -5.5798  -24.1889  -48.7692 H         1 UNK         0.3000 
    216 H216       -7.5393  -23.6463  -47.8539 H         1 UNK         0.0600 
    217 H217       -9.0625  -25.4490  -47.1456 H         1 UNK         0.0600 
    218 H218       -7.3997  -25.9777  -46.9508 H         1 UNK         0.0600 
    219 H219       -8.3596  -26.5642  -48.3084 H         1 UNK         0.0600 
    220 H220       -7.2413  -23.0544  -50.5349 H         1 UNK         0.3000 
    221 H221       -8.2254  -21.9983  -52.1799 H         1 UNK         0.0600 
    222 H222      -10.9724  -22.4885  -50.9360 H         1 UNK         0.0600 
    223 H223       -9.9113  -21.1376  -50.5340 H         1 UNK         0.0600 
    224 H224      -10.5577  -21.2984  -52.1574 H         1 UNK         0.0600 
    225 H225       -8.0933  -25.1607  -51.9655 H         1 UNK         0.3000 
    226 H226       -9.8549  -25.9599  -54.1459 H         1 UNK         0.0600 
    227 H227       -9.1319  -27.5345  -52.3208 H         1 UNK         0.0600 
    228 H228       -8.7447  -28.1271  -53.9299 H         1 UNK         0.0600 
    229 H229       -7.4765  -27.4462  -52.9239 H         1 UNK         0.0600 
    230 H230       -6.5040  -24.8288  -53.8275 H         1 UNK         0.3000 
    231 H231       -5.9623  -25.3116  -56.7333 H         1 UNK         0.0600 
    232 H232       -4.3172  -26.2910  -55.1371 H         1 UNK         0.0600 
    233 H233       -4.0396  -24.7025  -54.4242 H         1 UNK         0.0600 
    234 H234       -3.5919  -25.0104  -56.0953 H         1 UNK         0.0600 
    235 H235       -6.2237  -22.8593  -54.2140 H         1 UNK         0.3000 
    236 H236       -6.2674  -20.6359  -54.1485 H         1 UNK         0.0600 
    237 H237       -7.3486  -20.8366  -57.0046 H         1 UNK         0.0600 
    238 H238       -8.2992  -21.0579  -55.5363 H         1 UNK         0.0600 
    239 H239       -7.5853  -19.4940  -55.8922 H         1 UNK         0.0600 
    240 H240       -3.7151  -21.7097  -54.8608 H         1 UNK         0.3000 
    241 H241       -1.6741  -21.1367  -55.3741 H         1 UNK         0.0600 
    242 H242       -2.7709  -21.6538  -59.0681 H         1 UNK         0.3800 
    243 H243       -3.7986  -21.8716  -57.6752 H         1 UNK         0.3800 
    244 H244       -2.5808  -18.2742  -55.9502 H         1 UNK         0.0800 
    245 H245       -0.9340  -18.8140  -55.8021 H         1 UNK         0.0800 
    246 H246       -0.6652  -16.8085  -54.2667 H         1 UNK         0.0800 
    247 H247        0.3231  -18.1092  -53.6388 H         1 UNK         0.0800 
@<TRIPOS>BOND
     1    1    2 1    
     2    1  127 1    
     3    1  128 1    
     4    1  129 1    
     5    2    3 2    
     6    2    4 am   BACKBONE|DICT|INTERRES
     7    4    5 1    
     8    4  130 1    
     9    5    6 1    
    10    5   65 1    
    11    5  131 1    
    12    6    7 1    
    13    6  132 1    
    14    6  133 1    
    15    7    8 1    
    16    8    9 1    
    17    8  134 1    
    18    8  135 1    
    19    9   10 ar   
    20    9   14 ar   
    21   10   11 ar   
    22   10  136 1    
    23   11   12 ar   
    24   11  126 1    
    25   12   13 ar   
    26   12  137 1    
    27   13   14 ar   
    28   13   15 1    
    29   14  138 1    
    30   15   16 1    
    31   15  139 1    
    32   15  140 1    
    33   16   17 1    
    34   17   18 1    
    35   17  141 1    
    36   17  142 1    
    37   18   19 1    
    38   18   67 1    
    39   18  143 1    
    40   19   20 am   BACKBONE|DICT|INTERRES
    41   19  144 1    
    42   20   21 2    
    43   20   22 1    
    44   22   23 1    
    45   22   24 1    
    46   22  145 1    
    47   23  146 1    
    48   23  147 1    
    49   23  148 1    
    50   24   25 am   BACKBONE|DICT|INTERRES
    51   24  149 1    
    52   25   26 2    
    53   25   27 1    
    54   27   28 1    
    55   27   29 1    
    56   27  150 1    
    57   28  151 1    
    58   28  152 1    
    59   28  153 1    
    60   29   30 am   BACKBONE|DICT|INTERRES
    61   29  154 1    
    62   30   31 2    
    63   30   32 1    
    64   32   33 1    
    65   32   34 1    
    66   32  155 1    
    67   33  156 1    
    68   33  157 1    
    69   33  158 1    
    70   34   35 am   BACKBONE|DICT|INTERRES
    71   34  159 1    
    72   35   36 2    
    73   35   37 1    
    74   37   38 1    
    75   37   39 1    
    76   37  160 1    
    77   38  161 1    
    78   38  162 1    
    79   38  163 1    
    80   39   40 am   BACKBONE|DICT|INTERRES
    81   39  164 1    
    82   40   41 2    
    83   40   42 1    
    84   42   43 1    
    85   42   44 1    
    86   42  165 1    
    87   43  166 1    
    88   43  167 1    
    89   43  168 1    
    90   44   45 am   BACKBONE|DICT|INTERRES
    91   44  169 1    
    92   45   46 2    
    93   45   47 1    
    94   47   48 1    
    95   47   49 1    
    96   47  170 1    
    97   48  171 1    
    98   48  172 1    
    99   48  173 1    
   100   49   50 am   BACKBONE|DICT|INTERRES
   101   49  174 1    
   102   50   51 2    
   103   50   52 1    
   104   52   53 1    
   105   52   54 1    
   106   52  175 1    
   107   53  176 1    
   108   53  177 1    
   109   53  178 1    
   110   54   55 am   BACKBONE|DICT|INTERRES
   111   54  179 1    
   112   55   56 2    
   113   55   57 1    
   114   57   58 1    
   115   57   59 1    
   116   57  180 1    
   117   58  181 1    
   118   58  182 1    
   119   58  183 1    
   120   59   60 am   BACKBONE|DICT|INTERRES
   121   59  184 1    
   122   60   61 2    
   123   60   62 1    
   124   62   63 1    
   125   62   64 1    
   126   62  185 1    
   127   63  186 1    
   128   63  187 1    
   129   63  188 1    
   130   64   65 am   BACKBONE|DICT|INTERRES
   131   64  189 1    
   132   65   66 2    
   133   67   68 2    
   134   67   69 am   BACKBONE|DICT|INTERRES
   135   69   70 1    
   136   69  190 1    
   137   70   71 1    
   138   70   72 1    
   139   70  191 1    
   140   71  192 1    
   141   71  193 1    
   142   71  194 1    
   143   72   73 2    
   144   72   74 am   BACKBONE|DICT|INTERRES
   145   74   75 1    
   146   74  195 1    
   147   75   76 1    
   148   75   77 1    
   149   75  196 1    
   150   76  197 1    
   151   76  198 1    
   152   76  199 1    
   153   77   78 2    
   154   77   79 am   BACKBONE|DICT|INTERRES
   155   79   80 1    
   156   79  200 1    
   157   80   81 1    
   158   80   82 1    
   159   80  201 1    
   160   81  202 1    
   161   81  203 1    
   162   81  204 1    
   163   82   83 2    
   164   82   84 am   BACKBONE|DICT|INTERRES
   165   84   85 1    
   166   84  205 1    
   167   85   86 1    
   168   85   87 1    
   169   85  206 1    
   170   86  207 1    
   171   86  208 1    
   172   86  209 1    
   173   87   88 2    
   174   87   89 am   BACKBONE|DICT|INTERRES
   175   89   90 1    
   176   89  210 1    
   177   90   91 1    
   178   90   92 1    
   179   90  211 1    
   180   91  212 1    
   181   91  213 1    
   182   91  214 1    
   183   92   93 2    
   184   92   94 am   BACKBONE|DICT|INTERRES
   185   94   95 1    
   186   94  215 1    
   187   95   96 1    
   188   95   97 1    
   189   95  216 1    
   190   96  217 1    
   191   96  218 1    
   192   96  219 1    
   193   97   98 2    
   194   97   99 am   BACKBONE|DICT|INTERRES
   195   99  100 1    
   196   99  220 1    
   197  100  101 1    
   198  100  102 1    
   199  100  221 1    
   200  101  222 1    
   201  101  223 1    
   202  101  224 1    
   203  102  103 2    
   204  102  104 am   BACKBONE|DICT|INTERRES
   205  104  105 1    
   206  104  225 1    
   207  105  106 1    
   208  105  107 1    
   209  105  226 1    
   210  106  227 1    
   211  106  228 1    
   212  106  229 1    
   213  107  108 2    
   214  107  109 am   BACKBONE|DICT|INTERRES
   215  109  110 1    
   216  109  230 1    
   217  110  111 1    
   218  110  112 1    
   219  110  231 1    
   220  111  232 1    
   221  111  233 1    
   222  111  234 1    
   223  112  113 2    
   224  112  114 am   BACKBONE|DICT|INTERRES
   225  114  115 1    
   226  114  235 1    
   227  115  116 1    
   228  115  117 1    
   229  115  236 1    
   230  116  237 1    
   231  116  238 1    
   232  116  239 1    
   233  117  118 2    
   234  117  119 am   BACKBONE|DICT|INTERRES
   235  119  120 1    
   236  119  240 1    
   237  120  121 1    
   238  120  124 1    
   239  120  241 1    
   240  121  122 am   BACKBONE|DICT|INTERRES
   241  121  123 2    
   242  122  242 1    
   243  122  243 1    
   244  124  125 1    
   245  124  244 1    
   246  124  245 1    
   247  125  126 1    
   248  126  246 1    
   249  126  247 1    
@<TRIPOS>SUBSTRUCTURE
     1 UNK         1 GROUP             0       ****    0 ROOT    
