@<TRIPOS>MOLECULE
3R540
247   249    1
SMALL
USER_CHARGES


@<TRIPOS>ATOM
      1 CA          7.9603  -15.3484  -48.0701 C.3       0 UNK        -0.1800 
      2 C           6.9693  -15.1488  -46.9321 C.2       0 UNK         0.5000 
      3 O           7.3481  -15.2476  -45.7650 O.2       0 UNK        -0.5000 
      4 N           5.7038  -14.8673  -47.2675 N.am      1 UNK        -0.5000 
      5 CA          4.6095  -14.6609  -46.3092 C.3       1 UNK         0.1400 
      6 C6          3.2210  -14.7833  -46.9823 C.3       23 UNK        -0.0398 
      7 S7          2.8932  -16.4688  -47.5867 S.3       23 UNK        -0.2404 
      8 C8          2.6895  -16.2142  -49.3776 C.3       23 UNK        -0.0205 
      9 C9          1.8046  -17.3013  -49.9640 C.ar      23 UNK        -0.0193 
     10 C10         0.4929  -17.0139  -50.3476 C.ar      23 UNK        -0.1150 
     11 C11        -0.3436  -18.0241  -50.8292 C.ar      23 UNK        -0.0193 
     12 C12         0.1333  -19.3360  -50.9053 C.ar      23 UNK        -0.1150 
     13 C13         1.4458  -19.6375  -50.5266 C.ar      23 UNK        -0.0193 
     14 C14         2.2837  -18.6070  -50.0850 C.ar      23 UNK        -0.1150 
     15 C15         1.9333  -21.0836  -50.5654 C.3       23 UNK        -0.0205 
     16 S16         2.9234  -21.5695  -49.1063 S.3       23 UNK        -0.2404 
     17 C17         1.8317  -21.0888  -47.7206 C.3       23 UNK        -0.0398 
     18 CA          1.1506  -22.2851  -47.0244 C.3       11 UNK         0.1400 
     19 N           0.5682  -21.8885  -45.7421 N.am      11 UNK        -0.5000 
     20 C           0.0678  -22.7335  -44.8321 C.2       10 UNK         0.5000 
     21 O           0.0874  -23.9576  -44.9533 O.2       10 UNK        -0.5000 
     22 CA         -0.6174  -22.1027  -43.6071 C.3       10 UNK         0.1400 
     23 CB          0.4211  -21.6535  -42.5688 C.3       10 UNK        -0.1800 
     24 N          -1.4801  -20.9763  -43.9698 N.am      10 UNK        -0.5000 
     25 C          -2.5747  -21.0848  -44.7371 C.2       9 UNK         0.5000 
     26 O          -2.9957  -22.1561  -45.1729 O.2       9 UNK        -0.5000 
     27 CA         -3.3004  -19.7809  -45.1151 C.3       9 UNK         0.1400 
     28 CB         -4.2091  -19.3102  -43.9704 C.3       9 UNK        -0.1800 
     29 N          -2.3825  -18.7053  -45.4907 N.am      9 UNK        -0.5000 
     30 C          -1.5644  -18.7357  -46.5524 C.2       8 UNK         0.5000 
     31 O          -1.5210  -19.6670  -47.3546 O.2       8 UNK        -0.5000 
     32 CA         -0.5884  -17.5563  -46.7118 C.3       8 UNK         0.1400 
     33 CB         -1.2892  -16.3285  -47.3101 C.3       8 UNK        -0.1800 
     34 N           0.0537  -17.1891  -45.4497 N.am      8 UNK        -0.5000 
     35 C           0.8607  -18.0003  -44.7506 C.2       7 UNK         0.5000 
     36 O           1.1782  -19.1334  -45.1113 O.2       7 UNK        -0.5000 
     37 CA          1.3449  -17.4799  -43.3880 C.3       7 UNK         0.1400 
     38 CB          2.5399  -16.5298  -43.5518 C.3       7 UNK        -0.1800 
     39 N           0.2717  -16.8118  -42.6517 N.am      7 UNK        -0.5000 
     40 C          -0.7947  -17.4453  -42.1413 C.2       6 UNK         0.5000 
     41 O          -0.9634  -18.6625  -42.2061 O.2       6 UNK        -0.5000 
     42 CA         -1.8752  -16.5655  -41.4874 C.3       6 UNK         0.1400 
     43 CB         -1.4992  -16.2334  -40.0358 C.3       6 UNK        -0.1800 
     44 N          -2.1114  -15.3239  -42.2247 N.am      6 UNK        -0.5000 
     45 C          -2.6148  -15.2614  -43.4659 C.2       5 UNK         0.5000 
     46 O          -2.9662  -16.2479  -44.1107 O.2       5 UNK        -0.5000 
     47 CA         -2.6997  -13.8661  -44.1102 C.3       5 UNK         0.1400 
     48 CB         -4.0511  -13.2081  -43.7957 C.3       5 UNK        -0.1800 
     49 N          -1.6154  -12.9741  -43.6921 N.am      5 UNK        -0.5000 
     50 C          -0.3213  -13.1706  -43.9738 C.2       4 UNK         0.5000 
     51 O           0.1027  -14.1386  -44.6112 O.2       4 UNK        -0.5000 
     52 CA          0.6634  -12.1274  -43.4212 C.3       4 UNK         0.1400 
     53 CB          1.5980  -12.7578  -42.3773 C.3       4 UNK        -0.1800 
     54 N           1.4485  -11.5413  -44.5060 N.am      4 UNK        -0.5000 
     55 C           0.9801  -10.5964  -45.3364 C.2       3 UNK         0.5000 
     56 O          -0.1434  -10.1036  -45.2173 O.2       3 UNK        -0.5000 
     57 CA          1.8774  -10.1313  -46.5071 C.3       3 UNK         0.1400 
     58 CB          1.7879   -8.6093  -46.7476 C.3       3 UNK        -0.1800 
     59 N           3.2747  -10.5705  -46.4256 N.am      3 UNK        -0.5000 
     60 C           4.2077  -10.2176  -45.5273 C.2       2 UNK         0.5000 
     61 O           4.0254   -9.3929  -44.6306 O.2       2 UNK        -0.5000 
     62 CA          5.5647  -10.9507  -45.6529 C.3       2 UNK         0.1400 
     63 CB          6.3873  -10.9145  -44.3481 C.3       2 UNK        -0.1800 
     64 N           5.4264  -12.3337  -46.1375 N.am      2 UNK        -0.5000 
     65 C           4.7003  -13.3111  -45.5689 C.2       1 UNK         0.5000 
     66 O           4.0646  -13.1639  -44.5261 O.2       1 UNK        -0.5000 
     67 C           0.1119  -22.9733  -47.9348 C.2       11 UNK         0.5000 
     68 O           0.4081  -24.0267  -48.4959 O.2       11 UNK        -0.5000 
     69 N          -1.0979  -22.4039  -48.0272 N.am      12 UNK        -0.5000 
     70 CA         -2.2283  -22.9639  -48.7700 C.3       12 UNK         0.1400 
     71 CB         -3.3930  -21.9658  -48.7475 C.3       12 UNK        -0.1800 
     72 C          -2.6872  -24.3379  -48.2470 C.2       12 UNK         0.5000 
     73 O          -3.0710  -25.1885  -49.0488 O.2       12 UNK        -0.5000 
     74 N          -2.6254  -24.5344  -46.9232 N.am      13 UNK        -0.5000 
     75 CA         -2.9074  -25.8081  -46.2639 C.3       13 UNK         0.1400 
     76 CB         -3.1478  -25.5651  -44.7659 C.3       13 UNK        -0.1800 
     77 C          -1.7902  -26.8476  -46.4786 C.2       13 UNK         0.5000 
     78 O          -2.0934  -28.0277  -46.6579 O.2       13 UNK        -0.5000 
     79 N          -0.5264  -26.4006  -46.4458 N.am      14 UNK        -0.5000 
     80 CA          0.6588  -27.2342  -46.6572 C.3       14 UNK         0.1400 
     81 CB          1.9121  -26.4711  -46.2005 C.3       14 UNK        -0.1800 
     82 C           0.8044  -27.7012  -48.1172 C.2       14 UNK         0.5000 
     83 O           1.0829  -28.8780  -48.3534 O.2       14 UNK        -0.5000 
     84 N           0.6085  -26.7722  -49.0603 N.am      15 UNK        -0.5000 
     85 CA          0.5541  -27.0174  -50.4978 C.3       15 UNK         0.1400 
     86 CB          1.2391  -25.8431  -51.2280 C.3       15 UNK        -0.1800 
     87 C          -0.9153  -27.2462  -50.9054 C.2       15 UNK         0.5000 
     88 O          -1.5527  -28.1587  -50.3755 O.2       15 UNK        -0.5000 
     89 N          -1.4360  -26.4300  -51.8279 N.am      16 UNK        -0.5000 
     90 CA         -2.8360  -26.4154  -52.2309 C.3       16 UNK         0.1400 
     91 CB         -3.1171  -27.5357  -53.2495 C.3       16 UNK        -0.1800 
     92 C          -3.1626  -25.0393  -52.8223 C.2       16 UNK         0.5000 
     93 O          -2.4391  -24.5729  -53.7050 O.2       16 UNK        -0.5000 
     94 N          -4.2562  -24.4374  -52.3494 N.am      17 UNK        -0.5000 
     95 CA         -4.8684  -23.2191  -52.8668 C.3       17 UNK         0.1400 
     96 CB         -3.9943  -21.9777  -52.5965 C.3       17 UNK        -0.1800 
     97 C          -6.2401  -23.1051  -52.1938 C.2       17 UNK         0.5000 
     98 O          -6.2977  -22.9100  -50.9777 O.2       17 UNK        -0.5000 
     99 N          -7.3155  -23.2729  -52.9744 N.am      18 UNK        -0.5000 
    100 CA        -8.7062  -23.2411  -52.5122 C.3       18 UNK         0.1400 
    101 CB        -9.6406  -23.5303  -53.6973 C.3       18 UNK        -0.1800 
    102 C         -9.0510  -21.8935  -51.8552 C.2       18 UNK         0.5000 
    103 O         -8.9512  -20.8597  -52.5163 O.2       18 UNK        -0.5000 
    104 N         -9.3722  -21.9246  -50.5536 N.am      19 UNK        -0.5000 
    105 CA        -9.6174  -20.7653  -49.6812 C.3       19 UNK         0.1400 
    106 CB       -10.9382  -20.0695  -50.0722 C.3       19 UNK        -0.1800 
    107 C         -8.4268  -19.7779  -49.6093 C.2       19 UNK         0.5000 
    108 O         -8.6296  -18.5895  -49.3562 O.2       19 UNK        -0.5000 
    109 N         -7.2111  -20.2897  -49.8594 N.am      20 UNK        -0.5000 
    110 CA        -5.9464  -19.5645  -50.0024 C.3       20 UNK         0.1400 
    111 CB        -5.5198  -18.9051  -48.6741 C.3       20 UNK        -0.1800 
    112 C         -5.9069  -18.5944  -51.2036 C.2       20 UNK         0.5000 
    113 O         -5.0767  -17.6847  -51.2184 O.2       20 UNK        -0.5000 
    114 N         -6.7575  -18.8161  -52.2183 N.am      21 UNK        -0.5000 
    115 CA        -6.7736  -18.0643  -53.4751 C.3       21 UNK         0.1400 
    116 CB        -8.1858  -18.1150  -54.0845 C.3       21 UNK        -0.1800 
    117 C         -5.6885  -18.5885  -54.4376 C.2       21 UNK         0.5000 
    118 O         -5.9985  -19.1601  -55.4848 O.2       21 UNK        -0.5000 
    119 N         -4.4270  -18.4141  -54.0340 N.am      22 UNK        -0.5000 
    120 CA        -3.2183  -18.7265  -54.8079 C.3       22 UNK         0.1400 
    121 C         -3.0659  -17.8740  -56.1026 C.2       22 UNK         0.5000 
    122 N         -2.3446  -18.3762  -57.0963 N.am      22 UNK        -0.7600 
    123 O         -3.5675  -16.7565  -56.2101 O.2       22 UNK        -0.5000 
    124 C124       -1.9481  -18.6554  -53.9172 C.3       23 UNK        -0.0398 
    125 S125       -1.7971  -17.0920  -52.9770 S.3       23 UNK        -0.2404 
    126 C126       -1.7618  -17.6866  -51.2573 C.3       23 UNK        -0.0205 
    127 H127        8.3959  -16.3461  -48.0171 H         1 UNK         0.0600 
    128 H128        8.7668  -14.6187  -47.9977 H         1 UNK         0.0600 
    129 H129        7.4863  -15.2362  -49.0455 H         1 UNK         0.0600 
    130 H130        5.4497  -14.8201  -48.2436 H         1 UNK         0.3000 
    131 H131        4.6828  -15.4369  -45.5442 H         1 UNK         0.0600 
    132 H132        2.4221  -14.5467  -46.2763 H         1 UNK         0.0800 
    133 H133        3.1232  -14.0617  -47.7946 H         1 UNK         0.0800 
    134 H134        2.2510  -15.2344  -49.5717 H         1 UNK         0.0800 
    135 H135        3.6662  -16.2240  -49.8631 H         1 UNK         0.0800 
    136 H136        0.1169  -16.0038  -50.2654 H         1 UNK         0.1150 
    137 H137       -0.5206  -20.1231  -51.2530 H         1 UNK         0.1150 
    138 H138        3.2979  -18.8269  -49.7829 H         1 UNK         0.1150 
    139 H139        1.0878  -21.7686  -50.6479 H         1 UNK         0.0800 
    140 H140        2.5356  -21.2264  -51.4631 H         1 UNK         0.0800 
    141 H141        2.4657  -20.5659  -47.0034 H         1 UNK         0.0800 
    142 H142        1.0881  -20.3554  -48.0327 H         1 UNK         0.0800 
    143 H143        1.9239  -23.0228  -46.7999 H         1 UNK         0.0600 
    144 H144        0.5515  -20.8913  -45.5435 H         1 UNK         0.3000 
    145 H145       -1.2449  -22.8693  -43.1479 H         1 UNK         0.0600 
    146 H146       -0.0619  -21.2863  -41.6631 H         1 UNK         0.0600 
    147 H147        1.0678  -22.4827  -42.2792 H         1 UNK         0.0600 
    148 H148        1.0590  -20.8575  -42.9532 H         1 UNK         0.0600 
    149 H149       -1.2215  -20.0662  -43.6016 H         1 UNK         0.3000 
    150 H150       -3.9311  -19.9931  -45.9800 H         1 UNK         0.0600 
    151 H151       -4.9120  -20.0927  -43.6820 H         1 UNK         0.0600 
    152 H152       -4.7946  -18.4395  -44.2660 H         1 UNK         0.0600 
    153 H153       -3.6337  -19.0407  -43.0843 H         1 UNK         0.0600 
    154 H154       -2.3950  -17.8742  -44.9052 H         1 UNK         0.3000 
    155 H155        0.1934  -17.8720  -47.4054 H         1 UNK         0.0600 
    156 H156       -0.5764  -15.5267  -47.5045 H         1 UNK         0.0600 
    157 H157       -2.0612  -15.9391  -46.6473 H         1 UNK         0.0600 
    158 H158       -1.7679  -16.5778  -48.2568 H         1 UNK         0.0600 
    159 H159       -0.1321  -16.2598  -45.0918 H         1 UNK         0.3000 
    160 H160        1.6762  -18.3391  -42.8009 H         1 UNK         0.0600 
    161 H161        2.2763  -15.6435  -44.1277 H         1 UNK         0.0600 
    162 H162        3.3597  -17.0256  -44.0729 H         1 UNK         0.0600 
    163 H163        2.9202  -16.2004  -42.5849 H         1 UNK         0.0600 
    164 H164        0.3105  -15.8048  -42.6032 H         1 UNK         0.3000 
    165 H165       -2.8069  -17.1352  -41.4777 H         1 UNK         0.0600 
    166 H166       -0.5874  -15.6374  -39.9802 H         1 UNK         0.0600 
    167 H167       -2.2950  -15.6773  -39.5399 H         1 UNK         0.0600 
    168 H168       -1.3323  -17.1439  -39.4586 H         1 UNK         0.0600 
    169 H169       -1.8536  -14.4626  -41.7664 H         1 UNK         0.3000 
    170 H170       -2.6278  -13.9970  -45.1918 H         1 UNK         0.0600 
    171 H171       -4.8780  -13.8428  -44.1173 H         1 UNK         0.0600 
    172 H172       -4.1729  -13.0264  -42.7271 H         1 UNK         0.0600 
    173 H173       -4.1553  -12.2543  -44.3133 H         1 UNK         0.0600 
    174 H174       -1.8853  -12.1482  -43.1771 H         1 UNK         0.3000 
    175 H175        0.1055  -11.3311  -42.9235 H         1 UNK         0.0600 
    176 H176        2.3202  -12.0312  -42.0046 H         1 UNK         0.0600 
    177 H177        1.0327  -13.1254  -41.5202 H         1 UNK         0.0600 
    178 H178        2.1546  -13.6009  -42.7852 H         1 UNK         0.0600 
    179 H179        2.3707  -11.9343  -44.6554 H         1 UNK         0.3000 
    180 H180        1.4704  -10.6202  -47.3933 H         1 UNK         0.0600 
    181 H181        2.4175   -8.3037  -47.5833 H         1 UNK         0.0600 
    182 H182        0.7672   -8.3096  -46.9878 H         1 UNK         0.0600 
    183 H183        2.0942   -8.0401  -45.8697 H         1 UNK         0.0600 
    184 H184        3.5460  -11.2564  -47.1152 H         1 UNK         0.3000 
    185 H185        6.1302  -10.4117  -46.4142 H         1 UNK         0.0600 
    186 H186        7.3375  -11.4352  -44.4672 H         1 UNK         0.0600 
    187 H187        6.6151   -9.8886  -44.0566 H         1 UNK         0.0600 
    188 H188        5.8527  -11.3788  -43.5188 H         1 UNK         0.0600 
    189 H189        5.9114  -12.5502  -46.9971 H         1 UNK         0.3000 
    190 H190       -1.2560  -21.5035  -47.5800 H         1 UNK         0.3000 
    191 H191       -1.9117  -23.0964  -49.8067 H         1 UNK         0.0600 
    192 H192       -4.2598  -22.3660  -49.2733 H         1 UNK         0.0600 
    193 H193       -3.1138  -21.0280  -49.2279 H         1 UNK         0.0600 
    194 H194       -3.7104  -21.7383  -47.7306 H         1 UNK         0.0600 
    195 H195       -2.3743  -23.7538  -46.3259 H         1 UNK         0.3000 
    196 H196       -3.8269  -26.2161  -46.6890 H         1 UNK         0.0600 
    197 H197       -3.3890  -26.4969  -44.2530 H         1 UNK         0.0600 
    198 H198       -3.9811  -24.8804  -44.6073 H         1 UNK         0.0600 
    199 H199       -2.2701  -25.1397  -44.2791 H         1 UNK         0.0600 
    200 H200       -0.3606  -25.4246  -46.2217 H         1 UNK         0.3000 
    201 H201        0.5614  -28.1237  -46.0313 H         1 UNK         0.0600 
    202 H202        1.8492  -26.2067  -45.1448 H         1 UNK         0.0600 
    203 H203        2.0527  -25.5504  -46.7674 H         1 UNK         0.0600 
    204 H204        2.8086  -27.0782  -46.3315 H         1 UNK         0.0600 
    205 H205        0.4043  -25.8180  -48.7677 H         1 UNK         0.3000 
    206 H206        1.1035  -27.9285  -50.7428 H         1 UNK         0.0600 
    207 H207        2.2695  -25.7263  -50.8916 H         1 UNK         0.0600 
    208 H208        1.2731  -26.0122  -52.3049 H         1 UNK         0.0600 
    209 H209        0.7297  -24.8951  -51.0506 H         1 UNK         0.0600 
    210 H210       -0.8681  -25.6950  -52.2282 H         1 UNK         0.3000 
    211 H211       -3.4618  -26.5765  -51.3504 H         1 UNK         0.0600 
    212 H212       -2.4860  -27.4413  -54.1340 H         1 UNK         0.0600 
    213 H213       -4.1557  -27.5091  -53.5813 H         1 UNK         0.0600 
    214 H214       -2.9412  -28.5206  -52.8169 H         1 UNK         0.0600 
    215 H215       -4.7703  -24.8737  -51.5946 H         1 UNK         0.3000 
    216 H216       -5.0064  -23.3232  -53.9450 H         1 UNK         0.0600 
    217 H217       -4.5262  -21.0632  -52.8583 H         1 UNK         0.0600 
    218 H218       -3.0798  -21.9974  -53.1887 H         1 UNK         0.0600 
    219 H219       -3.7079  -21.9045  -51.5494 H         1 UNK         0.0600 
    220 H220       -7.1827  -23.4197  -53.9644 H         1 UNK         0.3000 
    221 H221       -8.8324  -24.0385  -51.7769 H         1 UNK         0.0600 
    222 H222       -9.5306  -22.7871  -54.4883 H         1 UNK         0.0600 
    223 H223       -9.4408  -24.5116  -54.1280 H         1 UNK         0.0600 
    224 H224      -10.6847  -23.5210  -53.3816 H         1 UNK         0.0600 
    225 H225       -9.3875  -22.8222  -50.0889 H         1 UNK         0.3000 
    226 H226       -9.7391  -21.1618  -48.6723 H         1 UNK         0.0600 
    227 H227      -11.7627  -20.7813  -50.1104 H         1 UNK         0.0600 
    228 H228      -11.2083  -19.3025  -49.3455 H         1 UNK         0.0600 
    229 H229      -10.8673  -19.5854  -51.0468 H         1 UNK         0.0600 
    230 H230       -7.1519  -21.2804  -50.0743 H         1 UNK         0.3000 
    231 H231       -5.2053  -20.3269  -50.2364 H         1 UNK         0.0600 
    232 H232       -4.4963  -18.5318  -48.7325 H         1 UNK         0.0600 
    233 H233       -5.5543  -19.6195  -47.8520 H         1 UNK         0.0600 
    234 H234       -6.1608  -18.0623  -48.4151 H         1 UNK         0.0600 
    235 H235       -7.4203  -19.5824  -52.1551 H         1 UNK         0.3000 
    236 H236       -6.5494  -17.0161  -53.2661 H         1 UNK         0.0600 
    237 H237       -8.9359  -17.7667  -53.3743 H         1 UNK         0.0600 
    238 H238       -8.2497  -17.4768  -54.9664 H         1 UNK         0.0600 
    239 H239       -8.4601  -19.1238  -54.3935 H         1 UNK         0.0600 
    240 H240       -4.2743  -17.9328  -53.1548 H         1 UNK         0.3000 
    241 H241       -3.3265  -19.7626  -55.1347 H         1 UNK         0.0600 
    242 H242       -1.9196  -19.2889  -57.0381 H         1 UNK         0.3800 
    243 H243       -2.2279  -17.8323  -57.9375 H         1 UNK         0.3800 
    244 H244       -1.9596  -19.4943  -53.2212 H         1 UNK         0.0800 
    245 H245       -1.0432  -18.7915  -54.5118 H         1 UNK         0.0800 
    246 H246       -2.4227  -18.5454  -51.1303 H         1 UNK         0.0800 
    247 H247       -2.1647  -16.9040  -50.6135 H         1 UNK         0.0800 
@<TRIPOS>BOND
     1    1    2 1    
     2    1  127 1    
     3    1  128 1    
     4    1  129 1    
     5    2    3 2    
     6    2    4 am   BACKBONE|DICT|INTERRES
     7    4    5 1    
     8    4  130 1    
     9    5    6 1    
    10    5   65 1    
    11    5  131 1    
    12    6    7 1    
    13    6  132 1    
    14    6  133 1    
    15    7    8 1    
    16    8    9 1    
    17    8  134 1    
    18    8  135 1    
    19    9   10 ar   
    20    9   14 ar   
    21   10   11 ar   
    22   10  136 1    
    23   11   12 ar   
    24   11  126 1    
    25   12   13 ar   
    26   12  137 1    
    27   13   14 ar   
    28   13   15 1    
    29   14  138 1    
    30   15   16 1    
    31   15  139 1    
    32   15  140 1    
    33   16   17 1    
    34   17   18 1    
    35   17  141 1    
    36   17  142 1    
    37   18   19 1    
    38   18   67 1    
    39   18  143 1    
    40   19   20 am   BACKBONE|DICT|INTERRES
    41   19  144 1    
    42   20   21 2    
    43   20   22 1    
    44   22   23 1    
    45   22   24 1    
    46   22  145 1    
    47   23  146 1    
    48   23  147 1    
    49   23  148 1    
    50   24   25 am   BACKBONE|DICT|INTERRES
    51   24  149 1    
    52   25   26 2    
    53   25   27 1    
    54   27   28 1    
    55   27   29 1    
    56   27  150 1    
    57   28  151 1    
    58   28  152 1    
    59   28  153 1    
    60   29   30 am   BACKBONE|DICT|INTERRES
    61   29  154 1    
    62   30   31 2    
    63   30   32 1    
    64   32   33 1    
    65   32   34 1    
    66   32  155 1    
    67   33  156 1    
    68   33  157 1    
    69   33  158 1    
    70   34   35 am   BACKBONE|DICT|INTERRES
    71   34  159 1    
    72   35   36 2    
    73   35   37 1    
    74   37   38 1    
    75   37   39 1    
    76   37  160 1    
    77   38  161 1    
    78   38  162 1    
    79   38  163 1    
    80   39   40 am   BACKBONE|DICT|INTERRES
    81   39  164 1    
    82   40   41 2    
    83   40   42 1    
    84   42   43 1    
    85   42   44 1    
    86   42  165 1    
    87   43  166 1    
    88   43  167 1    
    89   43  168 1    
    90   44   45 am   BACKBONE|DICT|INTERRES
    91   44  169 1    
    92   45   46 2    
    93   45   47 1    
    94   47   48 1    
    95   47   49 1    
    96   47  170 1    
    97   48  171 1    
    98   48  172 1    
    99   48  173 1    
   100   49   50 am   BACKBONE|DICT|INTERRES
   101   49  174 1    
   102   50   51 2    
   103   50   52 1    
   104   52   53 1    
   105   52   54 1    
   106   52  175 1    
   107   53  176 1    
   108   53  177 1    
   109   53  178 1    
   110   54   55 am   BACKBONE|DICT|INTERRES
   111   54  179 1    
   112   55   56 2    
   113   55   57 1    
   114   57   58 1    
   115   57   59 1    
   116   57  180 1    
   117   58  181 1    
   118   58  182 1    
   119   58  183 1    
   120   59   60 am   BACKBONE|DICT|INTERRES
   121   59  184 1    
   122   60   61 2    
   123   60   62 1    
   124   62   63 1    
   125   62   64 1    
   126   62  185 1    
   127   63  186 1    
   128   63  187 1    
   129   63  188 1    
   130   64   65 am   BACKBONE|DICT|INTERRES
   131   64  189 1    
   132   65   66 2    
   133   67   68 2    
   134   67   69 am   BACKBONE|DICT|INTERRES
   135   69   70 1    
   136   69  190 1    
   137   70   71 1    
   138   70   72 1    
   139   70  191 1    
   140   71  192 1    
   141   71  193 1    
   142   71  194 1    
   143   72   73 2    
   144   72   74 am   BACKBONE|DICT|INTERRES
   145   74   75 1    
   146   74  195 1    
   147   75   76 1    
   148   75   77 1    
   149   75  196 1    
   150   76  197 1    
   151   76  198 1    
   152   76  199 1    
   153   77   78 2    
   154   77   79 am   BACKBONE|DICT|INTERRES
   155   79   80 1    
   156   79  200 1    
   157   80   81 1    
   158   80   82 1    
   159   80  201 1    
   160   81  202 1    
   161   81  203 1    
   162   81  204 1    
   163   82   83 2    
   164   82   84 am   BACKBONE|DICT|INTERRES
   165   84   85 1    
   166   84  205 1    
   167   85   86 1    
   168   85   87 1    
   169   85  206 1    
   170   86  207 1    
   171   86  208 1    
   172   86  209 1    
   173   87   88 2    
   174   87   89 am   BACKBONE|DICT|INTERRES
   175   89   90 1    
   176   89  210 1    
   177   90   91 1    
   178   90   92 1    
   179   90  211 1    
   180   91  212 1    
   181   91  213 1    
   182   91  214 1    
   183   92   93 2    
   184   92   94 am   BACKBONE|DICT|INTERRES
   185   94   95 1    
   186   94  215 1    
   187   95   96 1    
   188   95   97 1    
   189   95  216 1    
   190   96  217 1    
   191   96  218 1    
   192   96  219 1    
   193   97   98 2    
   194   97   99 am   BACKBONE|DICT|INTERRES
   195   99  100 1    
   196   99  220 1    
   197  100  101 1    
   198  100  102 1    
   199  100  221 1    
   200  101  222 1    
   201  101  223 1    
   202  101  224 1    
   203  102  103 2    
   204  102  104 am   BACKBONE|DICT|INTERRES
   205  104  105 1    
   206  104  225 1    
   207  105  106 1    
   208  105  107 1    
   209  105  226 1    
   210  106  227 1    
   211  106  228 1    
   212  106  229 1    
   213  107  108 2    
   214  107  109 am   BACKBONE|DICT|INTERRES
   215  109  110 1    
   216  109  230 1    
   217  110  111 1    
   218  110  112 1    
   219  110  231 1    
   220  111  232 1    
   221  111  233 1    
   222  111  234 1    
   223  112  113 2    
   224  112  114 am   BACKBONE|DICT|INTERRES
   225  114  115 1    
   226  114  235 1    
   227  115  116 1    
   228  115  117 1    
   229  115  236 1    
   230  116  237 1    
   231  116  238 1    
   232  116  239 1    
   233  117  118 2    
   234  117  119 am   BACKBONE|DICT|INTERRES
   235  119  120 1    
   236  119  240 1    
   237  120  121 1    
   238  120  124 1    
   239  120  241 1    
   240  121  122 am   BACKBONE|DICT|INTERRES
   241  121  123 2    
   242  122  242 1    
   243  122  243 1    
   244  124  125 1    
   245  124  244 1    
   246  124  245 1    
   247  125  126 1    
   248  126  246 1    
   249  126  247 1    
@<TRIPOS>SUBSTRUCTURE
     1 UNK         1 GROUP             0       ****    0 ROOT    
