@<TRIPOS>MOLECULE
3R540
247   249    1
SMALL
USER_CHARGES


@<TRIPOS>ATOM
      1 CA          4.0220  -17.8843  -48.0297 C.3       0 UNK        -0.1800 
      2 C           3.3192  -17.2749  -49.2428 C.2       0 UNK         0.5000 
      3 O           3.6653  -17.6180  -50.3708 O.2       0 UNK        -0.5000 
      4 N           2.3339  -16.3795  -49.0767 N.am      1 UNK        -0.5000 
      5 CA          1.8222  -15.8371  -47.8099 C.3       1 UNK         0.1400 
      6 C6          0.5106  -15.0383  -48.0069 C.3       23 UNK        -0.0398 
      7 S7         -0.8282  -16.0889  -48.6597 S.3       23 UNK        -0.2404 
      8 C8         -2.2749  -15.4433  -47.7660 C.3       23 UNK        -0.0205 
      9 C9         -3.5255  -16.2717  -48.0308 C.ar      23 UNK        -0.0193 
     10 C10        -4.1049  -16.2915  -49.3027 C.ar      23 UNK        -0.1150 
     11 C11        -5.2803  -17.0110  -49.5382 C.ar      23 UNK        -0.0193 
     12 C12        -5.8705  -17.7233  -48.4906 C.ar      23 UNK        -0.1150 
     13 C13        -5.3067  -17.7158  -47.2105 C.ar      23 UNK        -0.0193 
     14 C14        -4.1323  -16.9820  -46.9910 C.ar      23 UNK        -0.1150 
     15 C15        -6.0350  -18.4487  -46.0823 C.3       23 UNK        -0.0205 
     16 S16        -4.9864  -18.9609  -44.6777 S.3       23 UNK        -0.2404 
     17 C17        -4.2632  -20.5221  -45.2799 C.3       23 UNK        -0.0398 
     18 CA         -3.0000  -20.3350  -46.1533 C.3       11 UNK         0.1400 
     19 N          -1.8953  -19.6650  -45.4588 N.am      11 UNK        -0.5000 
     20 C          -0.7736  -19.2451  -46.0633 C.2       10 UNK         0.5000 
     21 O          -0.5640  -19.3600  -47.2705 O.2       10 UNK        -0.5000 
     22 CA          0.3337  -18.6681  -45.1621 C.3       10 UNK         0.1400 
     23 CB          0.0014  -17.2407  -44.7009 C.3       10 UNK        -0.1800 
     24 N           0.6066  -19.5170  -44.0031 N.am      10 UNK        -0.5000 
     25 C           1.0554  -20.7785  -44.0757 C.2       9 UNK         0.5000 
     26 O           1.3452  -21.3429  -45.1298 O.2       9 UNK        -0.5000 
     27 CA          1.1520  -21.5585  -42.7541 C.3       9 UNK         0.1400 
     28 CB          2.4781  -21.2642  -42.0373 C.3       9 UNK        -0.1800 
     29 N           0.0282  -21.2675  -41.8642 N.am      9 UNK        -0.5000 
     30 C          -1.2340  -21.6597  -42.0906 C.2       8 UNK         0.5000 
     31 O          -1.5783  -22.3368  -43.0593 O.2       8 UNK        -0.5000 
     32 CA         -2.2978  -21.1708  -41.0899 C.3       8 UNK         0.1400 
     33 CB         -2.3174  -22.0610  -39.8385 C.3       8 UNK        -0.1800 
     34 N          -2.1051  -19.7747  -40.6923 N.am      8 UNK        -0.5000 
     35 C          -2.1664  -18.7370  -41.5386 C.2       7 UNK         0.5000 
     36 O          -2.4003  -18.8525  -42.7390 O.2       7 UNK        -0.5000 
     37 CA         -1.8523  -17.3454  -40.9619 C.3       7 UNK         0.1400 
     38 CB         -3.1012  -16.7330  -40.3115 C.3       7 UNK        -0.1800 
     39 N          -0.7496  -17.3425  -39.9981 N.am      7 UNK        -0.5000 
     40 C           0.4941  -17.7740  -40.2433 C.2       6 UNK         0.5000 
     41 O           0.8471  -18.2689  -41.3153 O.2       6 UNK        -0.5000 
     42 CA          1.5126  -17.5831  -39.1048 C.3       6 UNK         0.1400 
     43 CB          2.7301  -18.5133  -39.2473 C.3       6 UNK        -0.1800 
     44 N           1.9776  -16.1997  -39.0797 N.am      6 UNK        -0.5000 
     45 C           1.2895  -15.1522  -38.6047 C.2       5 UNK         0.5000 
     46 O           0.2061  -15.2533  -38.0268 O.2       5 UNK        -0.5000 
     47 CA          1.9092  -13.7584  -38.8279 C.3       5 UNK         0.1400 
     48 CB          2.6732  -13.3025  -37.5754 C.3       5 UNK        -0.1800 
     49 N           2.8129  -13.7186  -39.9819 N.am      5 UNK        -0.5000 
     50 C           2.4118  -13.7542  -41.2596 C.2       4 UNK         0.5000 
     51 O           1.2292  -13.7754  -41.6095 O.2       4 UNK        -0.5000 
     52 CA          3.5293  -13.8313  -42.3152 C.3       4 UNK         0.1400 
     53 CB          3.8222  -15.2981  -42.6709 C.3       4 UNK        -0.1800 
     54 N           3.1936  -13.1045  -43.5381 N.am      4 UNK        -0.5000 
     55 C           3.0841  -11.7705  -43.6336 C.2       3 UNK         0.5000 
     56 O           3.2506  -11.0080  -42.6792 O.2       3 UNK        -0.5000 
     57 CA          2.7527  -11.1951  -45.0321 C.3       3 UNK         0.1400 
     58 CB          3.1754   -9.7197  -45.1937 C.3       3 UNK        -0.1800 
     59 N           3.2803  -12.0120  -46.1324 N.am      3 UNK        -0.5000 
     60 C           4.5611  -12.3458  -46.3565 C.2       2 UNK         0.5000 
     61 O           5.5091  -11.8662  -45.7325 O.2       2 UNK        -0.5000 
     62 CA          4.8302  -13.4128  -47.4448 C.3       2 UNK         0.1400 
     63 CB          5.9843  -14.3554  -47.0445 C.3       2 UNK        -0.1800 
     64 N           3.6636  -14.2122  -47.8558 N.am      2 UNK        -0.5000 
     65 C           2.8678  -14.9696  -47.0822 C.2       1 UNK         0.5000 
     66 O           2.9360  -15.0130  -45.8544 O.2       1 UNK        -0.5000 
     67 C          -2.5730  -21.6866  -46.7577 C.2       11 UNK         0.5000 
     68 O          -2.9655  -21.9828  -47.8847 O.2       11 UNK        -0.5000 
     69 N          -1.7650  -22.4712  -46.0277 N.am      12 UNK        -0.5000 
     70 CA         -1.2118  -23.7415  -46.5040 C.3       12 UNK         0.1400 
     71 CB         -0.4972  -24.4689  -45.3559 C.3       12 UNK        -0.1800 
     72 C          -0.2727  -23.5640  -47.7107 C.2       12 UNK         0.5000 
     73 O          -0.3729  -24.3263  -48.6723 O.2       12 UNK        -0.5000 
     74 N           0.5891  -22.5384  -47.6600 N.am      13 UNK        -0.5000 
     75 CA          1.4677  -22.1422  -48.7595 C.3       13 UNK         0.1400 
     76 CB          2.4392  -21.0519  -48.2862 C.3       13 UNK        -0.1800 
     77 C           0.6812  -21.6796  -49.9975 C.2       13 UNK         0.5000 
     78 O           0.9930  -22.1167  -51.1046 O.2       13 UNK        -0.5000 
     79 N          -0.3519  -20.8510  -49.7870 N.am      14 UNK        -0.5000 
     80 CA         -1.2699  -20.3931  -50.8310 C.3       14 UNK         0.1400 
     81 CB         -2.2383  -19.3536  -50.2529 C.3       14 UNK        -0.1800 
     82 C          -2.0414  -21.5510  -51.4868 C.2       14 UNK         0.5000 
     83 O          -2.0992  -21.6188  -52.7148 O.2       14 UNK        -0.5000 
     84 N          -2.5654  -22.4663  -50.6583 N.am      15 UNK        -0.5000 
     85 CA         -3.2709  -23.6728  -51.0854 C.3       15 UNK         0.1400 
     86 CB         -3.8759  -24.3882  -49.8691 C.3       15 UNK        -0.1800 
     87 C          -2.3925  -24.6336  -51.9049 C.2       15 UNK         0.5000 
     88 O          -2.8850  -25.2360  -52.8575 O.2       15 UNK        -0.5000 
     89 N          -1.1091  -24.7478  -51.5418 N.am      16 UNK        -0.5000 
     90 CA         -0.1188  -25.5225  -52.2856 C.3       16 UNK         0.1400 
     91 CB          1.1227  -25.7437  -51.4076 C.3       16 UNK        -0.1800 
     92 C           0.2646  -24.8575  -53.6212 C.2       16 UNK         0.5000 
     93 O           0.3614  -25.5483  -54.6362 O.2       16 UNK        -0.5000 
     94 N           0.4904  -23.5376  -53.5946 N.am      17 UNK        -0.5000 
     95 CA          0.9872  -22.7641  -54.7308 C.3       17 UNK         0.1400 
     96 CB          1.5877  -21.4448  -54.2203 C.3       17 UNK        -0.1800 
     97 C          -0.0703  -22.4802  -55.8114 C.2       17 UNK         0.5000 
     98 O           0.2490  -22.5747  -56.9976 O.2       17 UNK        -0.5000 
     99 N          -1.2836  -22.0962  -55.3953 N.am      18 UNK        -0.5000 
    100 CA        -2.3043  -21.5061  -56.2672 C.3       18 UNK         0.1400 
    101 CB        -2.4057  -20.0049  -55.9377 C.3       18 UNK        -0.1800 
    102 C         -3.6730  -22.2009  -56.1552 C.2       18 UNK         0.5000 
    103 O         -4.6648  -21.6413  -56.6273 O.2       18 UNK        -0.5000 
    104 N         -3.7126  -23.3907  -55.5373 N.am      19 UNK        -0.5000 
    105 CA        -4.9063  -24.1586  -55.1548 C.3       19 UNK         0.1400 
    106 CB        -5.8129  -24.4589  -56.3676 C.3       19 UNK        -0.1800 
    107 C         -5.6917  -23.4821  -54.0124 C.2       19 UNK         0.5000 
    108 O         -5.4635  -22.3141  -53.6926 O.2       19 UNK        -0.5000 
    109 N         -6.6199  -24.2292  -53.4002 N.am      20 UNK        -0.5000 
    110 CA        -7.4226  -23.7880  -52.2504 C.3       20 UNK         0.1400 
    111 CB        -8.2649  -24.9705  -51.7487 C.3       20 UNK        -0.1800 
    112 C         -8.3191  -22.5605  -52.5253 C.2       20 UNK         0.5000 
    113 O         -8.6896  -21.8563  -51.5858 O.2       20 UNK        -0.5000 
    114 N         -8.6362  -22.3212  -53.8041 N.am      21 UNK        -0.5000 
    115 CA        -9.3669  -21.1506  -54.2855 C.3       21 UNK         0.1400 
    116 CB       -10.0005  -21.5015  -55.6417 C.3       21 UNK        -0.1800 
    117 C         -8.4928  -19.8841  -54.4151 C.2       21 UNK         0.5000 
    118 O         -9.0550  -18.8004  -54.5794 O.2       21 UNK        -0.5000 
    119 N         -7.1594  -20.0306  -54.3624 N.am      22 UNK        -0.5000 
    120 CA        -6.1535  -18.9829  -54.6080 C.3       22 UNK         0.1400 
    121 C         -6.2491  -18.4058  -56.0514 C.2       22 UNK         0.5000 
    122 N         -6.0125  -19.2220  -57.0688 N.am      22 UNK        -0.7600 
    123 O         -6.5388  -17.2301  -56.2619 O.2       22 UNK        -0.5000 
    124 C124       -6.1315  -17.8738  -53.5201 C.3       23 UNK        -0.0398 
    125 S125       -5.6499  -18.4831  -51.8709 S.3       23 UNK        -0.2404 
    126 C126       -5.9428  -16.9681  -50.9073 C.3       23 UNK        -0.0205 
    127 H127        4.7381  -17.1805  -47.6068 H         1 UNK         0.0600 
    128 H128        4.5721  -18.7790  -48.3214 H         1 UNK         0.0600 
    129 H129        3.3157  -18.1757  -47.2536 H         1 UNK         0.0600 
    130 H130        1.8674  -16.0328  -49.9025 H         1 UNK         0.3000 
    131 H131        1.5971  -16.6810  -47.1580 H         1 UNK         0.0600 
    132 H132        0.1854  -14.6021  -47.0605 H         1 UNK         0.0800 
    133 H133        0.6599  -14.2032  -48.6937 H         1 UNK         0.0800 
    134 H134       -2.4555  -14.4118  -48.0712 H         1 UNK         0.0800 
    135 H135       -2.0576  -15.4176  -46.6974 H         1 UNK         0.0800 
    136 H136       -3.6453  -15.7317  -50.1051 H         1 UNK         0.1150 
    137 H137       -6.7874  -18.2670  -48.6711 H         1 UNK         0.1150 
    138 H138       -3.6925  -16.9450  -46.0050 H         1 UNK         0.1150 
    139 H139       -6.8061  -17.7802  -45.6980 H         1 UNK         0.0800 
    140 H140       -6.5582  -19.3221  -46.4744 H         1 UNK         0.0800 
    141 H141       -5.0348  -21.0668  -45.8272 H         1 UNK         0.0800 
    142 H142       -4.0253  -21.1329  -44.4070 H         1 UNK         0.0800 
    143 H143       -3.2727  -19.6988  -46.9968 H         1 UNK         0.0600 
    144 H144       -2.0184  -19.4945  -44.4629 H         1 UNK         0.3000 
    145 H145        1.2493  -18.6253  -45.7546 H         1 UNK         0.0600 
    146 H146        0.8249  -16.8064  -44.1336 H         1 UNK         0.0600 
    147 H147       -0.1875  -16.5894  -45.5526 H         1 UNK         0.0600 
    148 H148       -0.8885  -17.2119  -44.0750 H         1 UNK         0.0600 
    149 H149        0.4350  -19.1160  -43.0864 H         1 UNK         0.3000 
    150 H150        1.1281  -22.6241  -42.9908 H         1 UNK         0.0600 
    151 H151        3.3259  -21.5523  -42.6600 H         1 UNK         0.0600 
    152 H152        2.5563  -21.8212  -41.1036 H         1 UNK         0.0600 
    153 H153        2.5898  -20.2047  -41.8081 H         1 UNK         0.0600 
    154 H154        0.2139  -20.6519  -41.0862 H         1 UNK         0.3000 
    155 H155       -3.2712  -21.2477  -41.5793 H         1 UNK         0.0600 
    156 H156       -1.3794  -22.0014  -39.2851 H         1 UNK         0.0600 
    157 H157       -2.4749  -23.1066  -40.1065 H         1 UNK         0.0600 
    158 H158       -3.1245  -21.7748  -39.1638 H         1 UNK         0.0600 
    159 H159       -1.8952  -19.5959  -39.7214 H         1 UNK         0.3000 
    160 H160       -1.5558  -16.7041  -41.7940 H         1 UNK         0.0600 
    161 H161       -3.9337  -16.7049  -41.0160 H         1 UNK         0.0600 
    162 H162       -2.9151  -15.7085  -39.9886 H         1 UNK         0.0600 
    163 H163       -3.4252  -17.3059  -39.4418 H         1 UNK         0.0600 
    164 H164       -0.9231  -16.8831  -39.1128 H         1 UNK         0.3000 
    165 H165        1.0191  -17.8168  -38.1590 H         1 UNK         0.0600 
    166 H166        3.4118  -18.4003  -38.4042 H         1 UNK         0.0600 
    167 H167        2.4207  -19.5588  -39.2756 H         1 UNK         0.0600 
    168 H168        3.2919  -18.3109  -40.1602 H         1 UNK         0.0600 
    169 H169        2.8463  -16.0140  -39.5570 H         1 UNK         0.3000 
    170 H170        1.0906  -13.0570  -39.0034 H         1 UNK         0.0600 
    171 H171        2.0206  -13.2954  -36.7013 H         1 UNK         0.0600 
    172 H172        3.5130  -13.9618  -37.3525 H         1 UNK         0.0600 
    173 H173        3.0619  -12.2912  -37.6968 H         1 UNK         0.0600 
    174 H174        3.8016  -13.6928  -39.7768 H         1 UNK         0.3000 
    175 H175        4.4373  -13.3874  -41.9018 H         1 UNK         0.0600 
    176 H176        4.1320  -15.8633  -41.7913 H         1 UNK         0.0600 
    177 H177        4.6244  -15.3737  -43.4054 H         1 UNK         0.0600 
    178 H178        2.9431  -15.7936  -43.0857 H         1 UNK         0.0600 
    179 H179        3.0377  -13.6723  -44.3651 H         1 UNK         0.3000 
    180 H180        1.6661  -11.2351  -45.1194 H         1 UNK         0.0600 
    181 H181        4.2474   -9.5861  -45.0472 H         1 UNK         0.0600 
    182 H182        2.6656   -9.0848  -44.4681 H         1 UNK         0.0600 
    183 H183        2.9226   -9.3435  -46.1849 H         1 UNK         0.0600 
    184 H184        2.5854  -12.4644  -46.7075 H         1 UNK         0.3000 
    185 H185        5.1470  -12.8597  -48.3300 H         1 UNK         0.0600 
    186 H186        6.9052  -13.8005  -46.8620 H         1 UNK         0.0600 
    187 H187        5.7519  -14.9126  -46.1362 H         1 UNK         0.0600 
    188 H188        6.1970  -15.0752  -47.8349 H         1 UNK         0.0600 
    189 H189        3.5023  -14.2452  -48.8532 H         1 UNK         0.3000 
    190 H190       -1.5183  -22.1920  -45.0838 H         1 UNK         0.3000 
    191 H191       -2.0476  -24.3656  -46.8265 H         1 UNK         0.0600 
    192 H192       -0.0994  -25.4279  -45.6899 H         1 UNK         0.0600 
    193 H193        0.3368  -23.8862  -44.9657 H         1 UNK         0.0600 
    194 H194       -1.1807  -24.6707  -44.5310 H         1 UNK         0.0600 
    195 H195        0.6450  -21.9835  -46.8103 H         1 UNK         0.3000 
    196 H196        2.0551  -23.0165  -49.0473 H         1 UNK         0.0600 
    197 H197        3.1105  -20.7528  -49.0920 H         1 UNK         0.0600 
    198 H198        3.0567  -21.4046  -47.4600 H         1 UNK         0.0600 
    199 H199        1.9104  -20.1602  -47.9501 H         1 UNK         0.0600 
    200 H200       -0.5183  -20.5009  -48.8471 H         1 UNK         0.3000 
    201 H201       -0.6718  -19.9066  -51.6042 H         1 UNK         0.0600 
    202 H202       -1.6987  -18.5408  -49.7730 H         1 UNK         0.0600 
    203 H203       -2.9127  -19.7849  -49.5131 H         1 UNK         0.0600 
    204 H204       -2.8499  -18.9149  -51.0406 H         1 UNK         0.0600 
    205 H205       -2.5075  -22.3089  -49.6546 H         1 UNK         0.3000 
    206 H206       -4.0928  -23.3504  -51.7205 H         1 UNK         0.0600 
    207 H207       -3.1066  -24.6990  -49.1619 H         1 UNK         0.0600 
    208 H208       -4.5765  -23.7415  -49.3406 H         1 UNK         0.0600 
    209 H209       -4.4247  -25.2802  -50.1737 H         1 UNK         0.0600 
    210 H210       -0.7893  -24.2698  -50.7060 H         1 UNK         0.3000 
    211 H211       -0.5479  -26.5012  -52.5108 H         1 UNK         0.0600 
    212 H212        1.5886  -24.8008  -51.1201 H         1 UNK         0.0600 
    213 H213        1.8732  -26.3349  -51.9336 H         1 UNK         0.0600 
    214 H214        0.8669  -26.2801  -50.4936 H         1 UNK         0.0600 
    215 H215        0.4285  -23.0468  -52.7065 H         1 UNK         0.3000 
    216 H216        1.7926  -23.3324  -55.2012 H         1 UNK         0.0600 
    217 H217        1.9792  -20.8461  -55.0437 H         1 UNK         0.0600 
    218 H218        2.4124  -21.6281  -53.5313 H         1 UNK         0.0600 
    219 H219        0.8444  -20.8408  -53.6978 H         1 UNK         0.0600 
    220 H220       -1.4753  -22.0383  -54.3954 H         1 UNK         0.3000 
    221 H221       -2.0144  -21.5983  -57.3154 H         1 UNK         0.0600 
    222 H222       -3.1063  -19.4970  -56.6011 H         1 UNK         0.0600 
    223 H223       -1.4408  -19.5110  -56.0526 H         1 UNK         0.0600 
    224 H224       -2.7426  -19.8443  -54.9128 H         1 UNK         0.0600 
    225 H225       -2.8419  -23.7395  -55.1617 H         1 UNK         0.3000 
    226 H226       -4.5430  -25.1150  -54.7799 H         1 UNK         0.0600 
    227 H227       -6.5607  -25.2121  -56.1182 H         1 UNK         0.0600 
    228 H228       -6.3520  -23.5753  -56.7099 H         1 UNK         0.0600 
    229 H229       -5.2348  -24.8459  -57.2067 H         1 UNK         0.0600 
    230 H230       -6.7648  -25.1803  -53.7077 H         1 UNK         0.3000 
    231 H231       -6.7292  -23.5040  -51.4560 H         1 UNK         0.0600 
    232 H232       -7.6331  -25.8087  -51.4542 H         1 UNK         0.0600 
    233 H233       -8.9585  -25.3226  -52.5133 H         1 UNK         0.0600 
    234 H234       -8.8545  -24.6886  -50.8753 H         1 UNK         0.0600 
    235 H235       -8.2885  -22.9573  -54.5060 H         1 UNK         0.3000 
    236 H236      -10.1711  -20.9234  -53.5825 H         1 UNK         0.0600 
    237 H237      -10.6669  -22.3600  -55.5564 H         1 UNK         0.0600 
    238 H238      -10.5931  -20.6695  -56.0245 H         1 UNK         0.0600 
    239 H239       -9.2426  -21.7358  -56.3904 H         1 UNK         0.0600 
    240 H240       -6.7701  -20.9520  -54.1885 H         1 UNK         0.3000 
    241 H241       -5.1874  -19.4870  -54.5624 H         1 UNK         0.0600 
    242 H242       -6.0767  -18.8716  -58.0108 H         1 UNK         0.3800 
    243 H243       -5.6891  -20.1757  -56.9083 H         1 UNK         0.3800 
    244 H244       -7.1019  -17.3804  -53.4516 H         1 UNK         0.0800 
    245 H245       -5.4152  -17.0973  -53.7941 H         1 UNK         0.0800 
    246 H246       -7.0176  -16.8209  -50.7906 H         1 UNK         0.0800 
    247 H247       -5.5766  -16.1063  -51.4674 H         1 UNK         0.0800 
@<TRIPOS>BOND
     1    1    2 1    
     2    1  127 1    
     3    1  128 1    
     4    1  129 1    
     5    2    3 2    
     6    2    4 am   BACKBONE|DICT|INTERRES
     7    4    5 1    
     8    4  130 1    
     9    5    6 1    
    10    5   65 1    
    11    5  131 1    
    12    6    7 1    
    13    6  132 1    
    14    6  133 1    
    15    7    8 1    
    16    8    9 1    
    17    8  134 1    
    18    8  135 1    
    19    9   10 ar   
    20    9   14 ar   
    21   10   11 ar   
    22   10  136 1    
    23   11   12 ar   
    24   11  126 1    
    25   12   13 ar   
    26   12  137 1    
    27   13   14 ar   
    28   13   15 1    
    29   14  138 1    
    30   15   16 1    
    31   15  139 1    
    32   15  140 1    
    33   16   17 1    
    34   17   18 1    
    35   17  141 1    
    36   17  142 1    
    37   18   19 1    
    38   18   67 1    
    39   18  143 1    
    40   19   20 am   BACKBONE|DICT|INTERRES
    41   19  144 1    
    42   20   21 2    
    43   20   22 1    
    44   22   23 1    
    45   22   24 1    
    46   22  145 1    
    47   23  146 1    
    48   23  147 1    
    49   23  148 1    
    50   24   25 am   BACKBONE|DICT|INTERRES
    51   24  149 1    
    52   25   26 2    
    53   25   27 1    
    54   27   28 1    
    55   27   29 1    
    56   27  150 1    
    57   28  151 1    
    58   28  152 1    
    59   28  153 1    
    60   29   30 am   BACKBONE|DICT|INTERRES
    61   29  154 1    
    62   30   31 2    
    63   30   32 1    
    64   32   33 1    
    65   32   34 1    
    66   32  155 1    
    67   33  156 1    
    68   33  157 1    
    69   33  158 1    
    70   34   35 am   BACKBONE|DICT|INTERRES
    71   34  159 1    
    72   35   36 2    
    73   35   37 1    
    74   37   38 1    
    75   37   39 1    
    76   37  160 1    
    77   38  161 1    
    78   38  162 1    
    79   38  163 1    
    80   39   40 am   BACKBONE|DICT|INTERRES
    81   39  164 1    
    82   40   41 2    
    83   40   42 1    
    84   42   43 1    
    85   42   44 1    
    86   42  165 1    
    87   43  166 1    
    88   43  167 1    
    89   43  168 1    
    90   44   45 am   BACKBONE|DICT|INTERRES
    91   44  169 1    
    92   45   46 2    
    93   45   47 1    
    94   47   48 1    
    95   47   49 1    
    96   47  170 1    
    97   48  171 1    
    98   48  172 1    
    99   48  173 1    
   100   49   50 am   BACKBONE|DICT|INTERRES
   101   49  174 1    
   102   50   51 2    
   103   50   52 1    
   104   52   53 1    
   105   52   54 1    
   106   52  175 1    
   107   53  176 1    
   108   53  177 1    
   109   53  178 1    
   110   54   55 am   BACKBONE|DICT|INTERRES
   111   54  179 1    
   112   55   56 2    
   113   55   57 1    
   114   57   58 1    
   115   57   59 1    
   116   57  180 1    
   117   58  181 1    
   118   58  182 1    
   119   58  183 1    
   120   59   60 am   BACKBONE|DICT|INTERRES
   121   59  184 1    
   122   60   61 2    
   123   60   62 1    
   124   62   63 1    
   125   62   64 1    
   126   62  185 1    
   127   63  186 1    
   128   63  187 1    
   129   63  188 1    
   130   64   65 am   BACKBONE|DICT|INTERRES
   131   64  189 1    
   132   65   66 2    
   133   67   68 2    
   134   67   69 am   BACKBONE|DICT|INTERRES
   135   69   70 1    
   136   69  190 1    
   137   70   71 1    
   138   70   72 1    
   139   70  191 1    
   140   71  192 1    
   141   71  193 1    
   142   71  194 1    
   143   72   73 2    
   144   72   74 am   BACKBONE|DICT|INTERRES
   145   74   75 1    
   146   74  195 1    
   147   75   76 1    
   148   75   77 1    
   149   75  196 1    
   150   76  197 1    
   151   76  198 1    
   152   76  199 1    
   153   77   78 2    
   154   77   79 am   BACKBONE|DICT|INTERRES
   155   79   80 1    
   156   79  200 1    
   157   80   81 1    
   158   80   82 1    
   159   80  201 1    
   160   81  202 1    
   161   81  203 1    
   162   81  204 1    
   163   82   83 2    
   164   82   84 am   BACKBONE|DICT|INTERRES
   165   84   85 1    
   166   84  205 1    
   167   85   86 1    
   168   85   87 1    
   169   85  206 1    
   170   86  207 1    
   171   86  208 1    
   172   86  209 1    
   173   87   88 2    
   174   87   89 am   BACKBONE|DICT|INTERRES
   175   89   90 1    
   176   89  210 1    
   177   90   91 1    
   178   90   92 1    
   179   90  211 1    
   180   91  212 1    
   181   91  213 1    
   182   91  214 1    
   183   92   93 2    
   184   92   94 am   BACKBONE|DICT|INTERRES
   185   94   95 1    
   186   94  215 1    
   187   95   96 1    
   188   95   97 1    
   189   95  216 1    
   190   96  217 1    
   191   96  218 1    
   192   96  219 1    
   193   97   98 2    
   194   97   99 am   BACKBONE|DICT|INTERRES
   195   99  100 1    
   196   99  220 1    
   197  100  101 1    
   198  100  102 1    
   199  100  221 1    
   200  101  222 1    
   201  101  223 1    
   202  101  224 1    
   203  102  103 2    
   204  102  104 am   BACKBONE|DICT|INTERRES
   205  104  105 1    
   206  104  225 1    
   207  105  106 1    
   208  105  107 1    
   209  105  226 1    
   210  106  227 1    
   211  106  228 1    
   212  106  229 1    
   213  107  108 2    
   214  107  109 am   BACKBONE|DICT|INTERRES
   215  109  110 1    
   216  109  230 1    
   217  110  111 1    
   218  110  112 1    
   219  110  231 1    
   220  111  232 1    
   221  111  233 1    
   222  111  234 1    
   223  112  113 2    
   224  112  114 am   BACKBONE|DICT|INTERRES
   225  114  115 1    
   226  114  235 1    
   227  115  116 1    
   228  115  117 1    
   229  115  236 1    
   230  116  237 1    
   231  116  238 1    
   232  116  239 1    
   233  117  118 2    
   234  117  119 am   BACKBONE|DICT|INTERRES
   235  119  120 1    
   236  119  240 1    
   237  120  121 1    
   238  120  124 1    
   239  120  241 1    
   240  121  122 am   BACKBONE|DICT|INTERRES
   241  121  123 2    
   242  122  242 1    
   243  122  243 1    
   244  124  125 1    
   245  124  244 1    
   246  124  245 1    
   247  125  126 1    
   248  126  246 1    
   249  126  247 1    
@<TRIPOS>SUBSTRUCTURE
     1 UNK         1 GROUP             0       ****    0 ROOT    
