@<TRIPOS>MOLECULE
3R540
247   249    1
SMALL
USER_CHARGES


@<TRIPOS>ATOM
      1 CA          1.3160   -8.1883  -47.4226 C.3       0 UNK        -0.1800 
      2 C           1.6615   -9.6595  -47.2517 C.2       0 UNK         0.5000 
      3 O           2.6864   -9.9841  -46.6521 O.2       0 UNK        -0.5000 
      4 N           0.8046  -10.5579  -47.7544 N.am      1 UNK        -0.5000 
      5 CA          0.9974  -12.0163  -47.7307 C.3       1 UNK         0.1400 
      6 C6         -0.0777  -12.7667  -48.5524 C.3       23 UNK        -0.0398 
      7 S7         -0.0782  -12.2504  -50.3032 S.3       23 UNK        -0.2404 
      8 C8         -1.7644  -12.7013  -50.8184 C.3       23 UNK        -0.0205 
      9 C9         -1.9580  -14.2093  -50.8650 C.ar      23 UNK        -0.0193 
     10 C10        -1.4160  -14.9531  -51.9177 C.ar      23 UNK        -0.1150 
     11 C11        -1.5888  -16.3391  -51.9719 C.ar      23 UNK        -0.0193 
     12 C12        -2.3059  -16.9807  -50.9588 C.ar      23 UNK        -0.1150 
     13 C13        -2.8766  -16.2444  -49.9176 C.ar      23 UNK        -0.0193 
     14 C14        -2.6929  -14.8598  -49.8694 C.ar      23 UNK        -0.1150 
     15 C15        -3.7286  -16.9446  -48.8741 C.3       23 UNK        -0.0205 
     16 S16        -2.7713  -17.3759  -47.3904 S.3       23 UNK        -0.2404 
     17 C17        -3.9622  -18.4879  -46.5693 C.3       23 UNK        -0.0398 
     18 CA         -3.5074  -19.9649  -46.6413 C.3       11 UNK         0.1400 
     19 N          -2.2568  -20.2187  -45.9159 N.am      11 UNK        -0.5000 
     20 C          -1.3957  -21.1928  -46.2391 C.2       10 UNK         0.5000 
     21 O          -1.5721  -21.9726  -47.1737 O.2       10 UNK        -0.5000 
     22 CA         -0.1446  -21.3621  -45.3632 C.3       10 UNK         0.1400 
     23 CB          0.9615  -20.3860  -45.7908 C.3       10 UNK        -0.1800 
     24 N          -0.3983  -21.2295  -43.9291 N.am      10 UNK        -0.5000 
     25 C          -1.1579  -22.0685  -43.2103 C.2       9 UNK         0.5000 
     26 O          -1.8435  -22.9617  -43.7085 O.2       9 UNK        -0.5000 
     27 CA         -1.1552  -21.8755  -41.6857 C.3       9 UNK         0.1400 
     28 CB          0.1688  -22.3689  -41.0811 C.3       9 UNK        -0.1800 
     29 N          -1.3419  -20.4677  -41.3485 N.am      9 UNK        -0.5000 
     30 C          -2.4700  -19.9419  -40.8531 C.2       8 UNK         0.5000 
     31 O          -3.4459  -20.6097  -40.5102 O.2       8 UNK        -0.5000 
     32 CA         -2.5362  -18.4033  -40.7381 C.3       8 UNK         0.1400 
     33 CB         -2.1621  -17.9563  -39.3168 C.3       8 UNK        -0.1800 
     34 N          -1.6883  -17.6895  -41.6979 N.am      8 UNK        -0.5000 
     35 C          -1.7637  -17.8047  -43.0311 C.2       7 UNK         0.5000 
     36 O          -2.5810  -18.5189  -43.6085 O.2       7 UNK        -0.5000 
     37 CA         -0.7007  -17.0635  -43.8615 C.3       7 UNK         0.1400 
     38 CB         -1.2043  -15.6685  -44.2554 C.3       7 UNK        -0.1800 
     39 N           0.6151  -16.9500  -43.2199 N.am      7 UNK        -0.5000 
     40 C           1.3451  -17.9535  -42.7115 C.2       6 UNK         0.5000 
     41 O           0.9538  -19.1215  -42.6559 O.2       6 UNK        -0.5000 
     42 CA          2.7559  -17.5858  -42.2101 C.3       6 UNK         0.1400 
     43 CB          3.4316  -18.7465  -41.4577 C.3       6 UNK        -0.1800 
     44 N           3.6155  -17.1813  -43.3230 N.am      6 UNK        -0.5000 
     45 C           3.5795  -15.9893  -43.9299 C.2       5 UNK         0.5000 
     46 O           2.8390  -15.0695  -43.5745 O.2       5 UNK        -0.5000 
     47 CA          4.4951  -15.8252  -45.1504 C.3       5 UNK         0.1400 
     48 CB          3.9269  -16.5791  -46.3661 C.3       5 UNK        -0.1800 
     49 N           4.6270  -14.4118  -45.4864 N.am      5 UNK        -0.5000 
     50 C           5.7378  -13.8287  -45.9503 C.2       4 UNK         0.5000 
     51 O           6.7938  -14.4322  -46.1468 O.2       4 UNK        -0.5000 
     52 CA          5.6694  -12.3204  -46.2571 C.3       4 UNK         0.1400 
     53 CB          5.2703  -12.0923  -47.7229 C.3       4 UNK        -0.1800 
     54 N           4.7482  -11.5815  -45.3936 N.am      4 UNK        -0.5000 
     55 C           4.9419  -11.3436  -44.0883 C.2       3 UNK         0.5000 
     56 O           5.9240  -11.7371  -43.4582 O.2       3 UNK        -0.5000 
     57 CA          3.8519  -10.5345  -43.3658 C.3       3 UNK         0.1400 
     58 CB          4.0428   -9.0273  -43.5999 C.3       3 UNK        -0.1800 
     59 N           2.5249  -10.9380  -43.8290 N.am      3 UNK        -0.5000 
     60 C           1.7468  -11.8284  -43.1993 C.2       2 UNK         0.5000 
     61 O           2.0032  -12.2853  -42.0847 O.2       2 UNK        -0.5000 
     62 CA          0.4595  -12.2877  -43.9140 C.3       2 UNK         0.1400 
     63 CB         -0.7849  -11.7011  -43.2298 C.3       2 UNK        -0.1800 
     64 N           0.4157  -11.9511  -45.3389 N.am      2 UNK        -0.5000 
     65 C           1.0945  -12.5921  -46.3014 C.2       1 UNK         0.5000 
     66 O           1.8129  -13.5677  -46.0953 O.2       1 UNK        -0.5000 
     67 C          -4.6294  -20.9097  -46.1715 C.2       11 UNK         0.5000 
     68 O          -5.5338  -21.1937  -46.9560 O.2       11 UNK        -0.5000 
     69 N          -4.5413  -21.4136  -44.9310 N.am      12 UNK        -0.5000 
     70 CA         -5.4530  -22.4231  -44.3874 C.3       12 UNK         0.1400 
     71 CB         -5.2739  -22.5209  -42.8650 C.3       12 UNK        -0.1800 
     72 C          -5.2549  -23.7926  -45.0636 C.2       12 UNK         0.5000 
     73 O          -6.2363  -24.4481  -45.4146 O.2       12 UNK        -0.5000 
     74 N          -3.9878  -24.1738  -45.2765 N.am      13 UNK        -0.5000 
     75 CA         -3.5917  -25.3590  -46.0400 C.3       13 UNK         0.1400 
     76 CB         -2.1639  -25.7509  -45.6273 C.3       13 UNK        -0.1800 
     77 C          -3.6540  -25.1433  -47.5657 C.2       13 UNK         0.5000 
     78 O          -3.5860  -26.1191  -48.3141 O.2       13 UNK        -0.5000 
     79 N          -3.7172  -23.8755  -47.9994 N.am      14 UNK        -0.5000 
     80 CA         -3.6347  -23.3941  -49.3833 C.3       14 UNK         0.1400 
     81 CB         -4.9058  -23.7766  -50.1655 C.3       14 UNK        -0.1800 
     82 C          -2.3341  -23.8516  -50.0758 C.2       14 UNK         0.5000 
     83 O          -2.3686  -24.3256  -51.2113 O.2       14 UNK        -0.5000 
     84 N          -1.2172  -23.7551  -49.3392 N.am      15 UNK        -0.5000 
     85 CA          0.1212  -24.2583  -49.6717 C.3       15 UNK         0.1400 
     86 CB          0.7438  -23.4260  -50.8103 C.3       15 UNK        -0.1800 
     87 C           0.1304  -25.7756  -49.9655 C.2       15 UNK         0.5000 
     88 O           0.7738  -26.2164  -50.9172 O.2       15 UNK        -0.5000 
     89 N          -0.6277  -26.5399  -49.1642 N.am      16 UNK        -0.5000 
     90 CA         -0.9365  -27.9661  -49.3380 C.3       16 UNK         0.1400 
     91 CB          0.3254  -28.8375  -49.1668 C.3       16 UNK        -0.1800 
     92 C          -1.6912  -28.2260  -50.6603 C.2       16 UNK         0.5000 
     93 O          -1.3337  -29.1249  -51.4230 O.2       16 UNK        -0.5000 
     94 N          -2.7054  -27.3854  -50.9077 N.am      17 UNK        -0.5000 
     95 CA         -3.5665  -27.3034  -52.0936 C.3       17 UNK         0.1400 
     96 CB         -4.3645  -28.6084  -52.2886 C.3       17 UNK        -0.1800 
     97 C          -2.8640  -26.8526  -53.3950 C.2       17 UNK         0.5000 
     98 O          -3.5152  -26.8209  -54.4404 O.2       17 UNK        -0.5000 
     99 N          -1.5769  -26.4806  -53.3343 N.am      18 UNK        -0.5000 
    100 CA        -0.8102  -25.9828  -54.4801 C.3       18 UNK         0.1400 
    101 CB         0.6916  -26.1050  -54.1846 C.3       18 UNK        -0.1800 
    102 C         -1.1631  -24.5314  -54.8598 C.2       18 UNK         0.5000 
    103 O         -0.9510  -24.1430  -56.0090 O.2       18 UNK        -0.5000 
    104 N         -1.6963  -23.7631  -53.9026 N.am      19 UNK        -0.5000 
    105 CA        -2.1220  -22.3743  -54.0541 C.3       19 UNK         0.1400 
    106 CB        -1.2670  -21.4816  -53.1367 C.3       19 UNK        -0.1800 
    107 C         -3.6285  -22.2577  -53.7628 C.2       19 UNK         0.5000 
    108 O         -4.0643  -21.3142  -53.0994 O.2       19 UNK        -0.5000 
    109 N         -4.4078  -23.2274  -54.2620 N.am      20 UNK        -0.5000 
    110 CA        -5.8681  -23.2494  -54.1904 C.3       20 UNK         0.1400 
    111 CB        -6.3864  -24.5570  -54.8074 C.3       20 UNK        -0.1800 
    112 C         -6.4843  -22.0214  -54.8879 C.2       20 UNK         0.5000 
    113 O         -6.1685  -21.7603  -56.0507 O.2       20 UNK        -0.5000 
    114 N         -7.3229  -21.2864  -54.1451 N.am      21 UNK        -0.5000 
    115 CA        -7.9947  -20.0367  -54.5265 C.3       21 UNK         0.1400 
    116 CB        -8.9437  -20.2574  -55.7241 C.3       21 UNK        -0.1800 
    117 C         -7.0492  -18.8293  -54.7331 C.2       21 UNK         0.5000 
    118 O         -7.4807  -17.8169  -55.2881 O.2       21 UNK        -0.5000 
    119 N         -5.7960  -18.9279  -54.2681 N.am      22 UNK        -0.5000 
    120 CA        -4.8363  -17.8145  -54.2195 C.3       22 UNK         0.1400 
    121 C         -5.2020  -16.7861  -53.1096 C.2       22 UNK         0.5000 
    122 N         -4.9405  -15.5049  -53.3290 N.am      22 UNK        -0.7600 
    123 O         -5.7061  -17.1413  -52.0459 O.2       22 UNK        -0.5000 
    124 C124       -3.3917  -18.3529  -54.0692 C.3       23 UNK        -0.0398 
    125 S125       -2.0995  -17.1659  -54.5779 S.3       23 UNK        -0.2404 
    126 C126       -0.9997  -17.1392  -53.1237 C.3       23 UNK        -0.0205 
    127 H127        2.1013   -7.6834  -47.9849 H         1 UNK         0.0600 
    128 H128        0.3740   -8.0521  -47.9541 H         1 UNK         0.0600 
    129 H129        1.2309   -7.7084  -46.4476 H         1 UNK         0.0600 
    130 H130       -0.0156  -10.2361  -48.2486 H         1 UNK         0.3000 
    131 H131        1.9614  -12.2104  -48.2042 H         1 UNK         0.0600 
    132 H132        0.0958  -13.8445  -48.5237 H         1 UNK         0.0800 
    133 H133       -1.0683  -12.6013  -48.1251 H         1 UNK         0.0800 
    134 H134       -1.9524  -12.2855  -51.8093 H         1 UNK         0.0800 
    135 H135       -2.4903  -12.2342  -50.1509 H         1 UNK         0.0800 
    136 H136       -0.8584  -14.4511  -52.6961 H         1 UNK         0.1150 
    137 H137       -2.4432  -18.0519  -50.9902 H         1 UNK         0.1150 
    138 H138       -3.1302  -14.2905  -49.0612 H         1 UNK         0.1150 
    139 H139       -4.5676  -16.3069  -48.5915 H         1 UNK         0.0800 
    140 H140       -4.1637  -17.8481  -49.3054 H         1 UNK         0.0800 
    141 H141       -4.0995  -18.1623  -45.5394 H         1 UNK         0.0800 
    142 H142       -4.9399  -18.3675  -47.0398 H         1 UNK         0.0800 
    143 H143       -3.3422  -20.1928  -47.6971 H         1 UNK         0.0600 
    144 H144       -2.0907  -19.6380  -45.1001 H         1 UNK         0.3000 
    145 H145        0.2281  -22.3750  -45.5303 H         1 UNK         0.0600 
    146 H146        1.8765  -20.5532  -45.2223 H         1 UNK         0.0600 
    147 H147        1.2065  -20.5128  -46.8461 H         1 UNK         0.0600 
    148 H148        0.6657  -19.3480  -45.6473 H         1 UNK         0.0600 
    149 H149        0.1305  -20.5068  -43.4454 H         1 UNK         0.3000 
    150 H150       -1.9618  -22.4843  -41.2720 H         1 UNK         0.0600 
    151 H151        0.3475  -23.4151  -41.3326 H         1 UNK         0.0600 
    152 H152        0.1540  -22.2936  -39.9937 H         1 UNK         0.0600 
    153 H153        1.0212  -21.7921  -41.4430 H         1 UNK         0.0600 
    154 H154       -0.5975  -19.8386  -41.6298 H         1 UNK         0.3000 
    155 H155       -3.5696  -18.1083  -40.9309 H         1 UNK         0.0600 
    156 H156       -2.7923  -18.4472  -38.5738 H         1 UNK         0.0600 
    157 H157       -2.2941  -16.8813  -39.1927 H         1 UNK         0.0600 
    158 H158       -1.1254  -18.1985  -39.0796 H         1 UNK         0.0600 
    159 H159       -0.9703  -17.0943  -41.3121 H         1 UNK         0.3000 
    160 H160       -0.5634  -17.6327  -44.7812 H         1 UNK         0.0600 
    161 H161       -1.2971  -15.0144  -43.3879 H         1 UNK         0.0600 
    162 H162       -0.5308  -15.1979  -44.9718 H         1 UNK         0.0600 
    163 H163       -2.1853  -15.7249  -44.7293 H         1 UNK         0.0600 
    164 H164        1.0641  -16.0410  -43.2680 H         1 UNK         0.3000 
    165 H165        2.6525  -16.7513  -41.5132 H         1 UNK         0.0600 
    166 H166        4.4032  -18.4479  -41.0639 H         1 UNK         0.0600 
    167 H167        2.8244  -19.0693  -40.6109 H         1 UNK         0.0600 
    168 H168        3.5830  -19.6134  -42.1023 H         1 UNK         0.0600 
    169 H169        4.2263  -17.8962  -43.6911 H         1 UNK         0.3000 
    170 H170        5.4711  -16.2395  -44.8891 H         1 UNK         0.0600 
    171 H171        2.9437  -16.1987  -46.6470 H         1 UNK         0.0600 
    172 H172        4.5821  -16.4814  -47.2318 H         1 UNK         0.0600 
    173 H173        3.8204  -17.6446  -46.1594 H         1 UNK         0.0600 
    174 H174        3.7843  -13.8637  -45.3439 H         1 UNK         0.3000 
    175 H175        6.6696  -11.9077  -46.1101 H         1 UNK         0.0600 
    176 H176        4.2840  -12.5038  -47.9366 H         1 UNK         0.0600 
    177 H177        5.2520  -11.0303  -47.9686 H         1 UNK         0.0600 
    178 H178        5.9789  -12.5716  -48.3995 H         1 UNK         0.0600 
    179 H179        3.9440  -11.1601  -45.8491 H         1 UNK         0.3000 
    180 H180        3.9531  -10.7181  -42.2941 H         1 UNK         0.0600 
    181 H181        5.0167   -8.6984  -43.2356 H         1 UNK         0.0600 
    182 H182        3.9844   -8.7665  -44.6569 H         1 UNK         0.0600 
    183 H183        3.2854   -8.4489  -43.0708 H         1 UNK         0.0600 
    184 H184        2.2576  -10.6174  -44.7519 H         1 UNK         0.3000 
    185 H185        0.4251  -13.3726  -43.8138 H         1 UNK         0.0600 
    186 H186       -0.8088  -11.9606  -42.1706 H         1 UNK         0.0600 
    187 H187       -0.8083  -10.6131  -43.3024 H         1 UNK         0.0600 
    188 H188       -1.7000  -12.0892  -43.6775 H         1 UNK         0.0600 
    189 H189       -0.1358  -11.1457  -45.5972 H         1 UNK         0.3000 
    190 H190       -3.7603  -21.1414  -44.3516 H         1 UNK         0.3000 
    191 H191       -6.4770  -22.0984  -44.5844 H         1 UNK         0.0600 
    192 H192       -5.9733  -23.2398  -42.4369 H         1 UNK         0.0600 
    193 H193       -5.4606  -21.5606  -42.3840 H         1 UNK         0.0600 
    194 H194       -4.2690  -22.8408  -42.5906 H         1 UNK         0.0600 
    195 H195       -3.2345  -23.6155  -44.8827 H         1 UNK         0.3000 
    196 H196       -4.2618  -26.1849  -45.7926 H         1 UNK         0.0600 
    197 H197       -1.8416  -26.6604  -46.1360 H         1 UNK         0.0600 
    198 H198       -2.1030  -25.9410  -44.5555 H         1 UNK         0.0600 
    199 H199       -1.4464  -24.9645  -45.8666 H         1 UNK         0.0600 
    200 H200       -3.7190  -23.1541  -47.2934 H         1 UNK         0.3000 
    201 H201       -3.5892  -22.3052  -49.3353 H         1 UNK         0.0600 
    202 H202       -5.7992  -23.3954  -49.6710 H         1 UNK         0.0600 
    203 H203       -5.0138  -24.8561  -50.2670 H         1 UNK         0.0600 
    204 H204       -4.8837  -23.3513  -51.1678 H         1 UNK         0.0600 
    205 H205       -1.3012  -23.2816  -48.4413 H         1 UNK         0.3000 
    206 H206        0.7341  -24.1130  -48.7812 H         1 UNK         0.0600 
    207 H207        0.7042  -22.3595  -50.5889 H         1 UNK         0.0600 
    208 H208        1.7917  -23.6891  -50.9581 H         1 UNK         0.0600 
    209 H209        0.2312  -23.5933  -51.7568 H         1 UNK         0.0600 
    210 H210       -1.1600  -26.0719  -48.4453 H         1 UNK         0.3000 
    211 H211       -1.6272  -28.2311  -48.5360 H         1 UNK         0.0600 
    212 H212        1.0468  -28.6756  -49.9680 H         1 UNK         0.0600 
    213 H213        0.0682  -29.8972  -49.1710 H         1 UNK         0.0600 
    214 H214        0.8229  -28.6281  -48.2199 H         1 UNK         0.0600 
    215 H215       -2.9087  -26.6953  -50.1917 H         1 UNK         0.3000 
    216 H216       -4.2870  -26.5158  -51.8712 H         1 UNK         0.0600 
    217 H217       -4.8822  -28.8946  -51.3730 H         1 UNK         0.0600 
    218 H218       -3.7216  -29.4373  -52.5855 H         1 UNK         0.0600 
    219 H219       -5.1224  -28.4919  -53.0641 H         1 UNK         0.0600 
    220 H220       -1.1033  -26.5037  -52.4410 H         1 UNK         0.3000 
    221 H221       -1.0337  -26.6149  -55.3421 H         1 UNK         0.0600 
    222 H222        1.0049  -25.4146  -53.4014 H         1 UNK         0.0600 
    223 H223        0.9550  -27.1150  -53.8696 H         1 UNK         0.0600 
    224 H224        1.2814  -25.8756  -55.0728 H         1 UNK         0.0600 
    225 H225       -1.8753  -24.1691  -52.9851 H         1 UNK         0.3000 
    226 H226       -1.9767  -22.0372  -55.0820 H         1 UNK         0.0600 
    227 H227       -0.2037  -21.6177  -53.3335 H         1 UNK         0.0600 
    228 H228       -1.4902  -20.4283  -53.2980 H         1 UNK         0.0600 
    229 H229       -1.4452  -21.6976  -52.0832 H         1 UNK         0.0600 
    230 H230       -3.9712  -23.9675  -54.7922 H         1 UNK         0.3000 
    231 H231       -6.1522  -23.2382  -53.1369 H         1 UNK         0.0600 
    232 H232       -6.0034  -25.4251  -54.2704 H         1 UNK         0.0600 
    233 H233       -7.4753  -24.6037  -54.7659 H         1 UNK         0.0600 
    234 H234       -6.0923  -24.6531  -55.8533 H         1 UNK         0.0600 
    235 H235       -7.4921  -21.5821  -53.1935 H         1 UNK         0.3000 
    236 H236       -8.6173  -19.7700  -53.6713 H         1 UNK         0.0600 
    237 H237       -9.6061  -21.1059  -55.5524 H         1 UNK         0.0600 
    238 H238       -9.5758  -19.3842  -55.8889 H         1 UNK         0.0600 
    239 H239       -8.3963  -20.4395  -56.6492 H         1 UNK         0.0600 
    240 H240       -5.5111  -19.7802  -53.8014 H         1 UNK         0.3000 
    241 H241       -4.8992  -17.3022  -55.1819 H         1 UNK         0.0600 
    242 H242       -5.1558  -14.8333  -52.6100 H         1 UNK         0.3800 
    243 H243       -4.4962  -15.1977  -54.1799 H         1 UNK         0.3800 
    244 H244       -3.2178  -18.7087  -53.0541 H         1 UNK         0.0800 
    245 H245       -3.2626  -19.2244  -54.7121 H         1 UNK         0.0800 
    246 H246       -0.0454  -16.6996  -53.4176 H         1 UNK         0.0800 
    247 H247       -0.7747  -18.1586  -52.8080 H         1 UNK         0.0800 
@<TRIPOS>BOND
     1    1    2 1    
     2    1  127 1    
     3    1  128 1    
     4    1  129 1    
     5    2    3 2    
     6    2    4 am   BACKBONE|DICT|INTERRES
     7    4    5 1    
     8    4  130 1    
     9    5    6 1    
    10    5   65 1    
    11    5  131 1    
    12    6    7 1    
    13    6  132 1    
    14    6  133 1    
    15    7    8 1    
    16    8    9 1    
    17    8  134 1    
    18    8  135 1    
    19    9   10 ar   
    20    9   14 ar   
    21   10   11 ar   
    22   10  136 1    
    23   11   12 ar   
    24   11  126 1    
    25   12   13 ar   
    26   12  137 1    
    27   13   14 ar   
    28   13   15 1    
    29   14  138 1    
    30   15   16 1    
    31   15  139 1    
    32   15  140 1    
    33   16   17 1    
    34   17   18 1    
    35   17  141 1    
    36   17  142 1    
    37   18   19 1    
    38   18   67 1    
    39   18  143 1    
    40   19   20 am   BACKBONE|DICT|INTERRES
    41   19  144 1    
    42   20   21 2    
    43   20   22 1    
    44   22   23 1    
    45   22   24 1    
    46   22  145 1    
    47   23  146 1    
    48   23  147 1    
    49   23  148 1    
    50   24   25 am   BACKBONE|DICT|INTERRES
    51   24  149 1    
    52   25   26 2    
    53   25   27 1    
    54   27   28 1    
    55   27   29 1    
    56   27  150 1    
    57   28  151 1    
    58   28  152 1    
    59   28  153 1    
    60   29   30 am   BACKBONE|DICT|INTERRES
    61   29  154 1    
    62   30   31 2    
    63   30   32 1    
    64   32   33 1    
    65   32   34 1    
    66   32  155 1    
    67   33  156 1    
    68   33  157 1    
    69   33  158 1    
    70   34   35 am   BACKBONE|DICT|INTERRES
    71   34  159 1    
    72   35   36 2    
    73   35   37 1    
    74   37   38 1    
    75   37   39 1    
    76   37  160 1    
    77   38  161 1    
    78   38  162 1    
    79   38  163 1    
    80   39   40 am   BACKBONE|DICT|INTERRES
    81   39  164 1    
    82   40   41 2    
    83   40   42 1    
    84   42   43 1    
    85   42   44 1    
    86   42  165 1    
    87   43  166 1    
    88   43  167 1    
    89   43  168 1    
    90   44   45 am   BACKBONE|DICT|INTERRES
    91   44  169 1    
    92   45   46 2    
    93   45   47 1    
    94   47   48 1    
    95   47   49 1    
    96   47  170 1    
    97   48  171 1    
    98   48  172 1    
    99   48  173 1    
   100   49   50 am   BACKBONE|DICT|INTERRES
   101   49  174 1    
   102   50   51 2    
   103   50   52 1    
   104   52   53 1    
   105   52   54 1    
   106   52  175 1    
   107   53  176 1    
   108   53  177 1    
   109   53  178 1    
   110   54   55 am   BACKBONE|DICT|INTERRES
   111   54  179 1    
   112   55   56 2    
   113   55   57 1    
   114   57   58 1    
   115   57   59 1    
   116   57  180 1    
   117   58  181 1    
   118   58  182 1    
   119   58  183 1    
   120   59   60 am   BACKBONE|DICT|INTERRES
   121   59  184 1    
   122   60   61 2    
   123   60   62 1    
   124   62   63 1    
   125   62   64 1    
   126   62  185 1    
   127   63  186 1    
   128   63  187 1    
   129   63  188 1    
   130   64   65 am   BACKBONE|DICT|INTERRES
   131   64  189 1    
   132   65   66 2    
   133   67   68 2    
   134   67   69 am   BACKBONE|DICT|INTERRES
   135   69   70 1    
   136   69  190 1    
   137   70   71 1    
   138   70   72 1    
   139   70  191 1    
   140   71  192 1    
   141   71  193 1    
   142   71  194 1    
   143   72   73 2    
   144   72   74 am   BACKBONE|DICT|INTERRES
   145   74   75 1    
   146   74  195 1    
   147   75   76 1    
   148   75   77 1    
   149   75  196 1    
   150   76  197 1    
   151   76  198 1    
   152   76  199 1    
   153   77   78 2    
   154   77   79 am   BACKBONE|DICT|INTERRES
   155   79   80 1    
   156   79  200 1    
   157   80   81 1    
   158   80   82 1    
   159   80  201 1    
   160   81  202 1    
   161   81  203 1    
   162   81  204 1    
   163   82   83 2    
   164   82   84 am   BACKBONE|DICT|INTERRES
   165   84   85 1    
   166   84  205 1    
   167   85   86 1    
   168   85   87 1    
   169   85  206 1    
   170   86  207 1    
   171   86  208 1    
   172   86  209 1    
   173   87   88 2    
   174   87   89 am   BACKBONE|DICT|INTERRES
   175   89   90 1    
   176   89  210 1    
   177   90   91 1    
   178   90   92 1    
   179   90  211 1    
   180   91  212 1    
   181   91  213 1    
   182   91  214 1    
   183   92   93 2    
   184   92   94 am   BACKBONE|DICT|INTERRES
   185   94   95 1    
   186   94  215 1    
   187   95   96 1    
   188   95   97 1    
   189   95  216 1    
   190   96  217 1    
   191   96  218 1    
   192   96  219 1    
   193   97   98 2    
   194   97   99 am   BACKBONE|DICT|INTERRES
   195   99  100 1    
   196   99  220 1    
   197  100  101 1    
   198  100  102 1    
   199  100  221 1    
   200  101  222 1    
   201  101  223 1    
   202  101  224 1    
   203  102  103 2    
   204  102  104 am   BACKBONE|DICT|INTERRES
   205  104  105 1    
   206  104  225 1    
   207  105  106 1    
   208  105  107 1    
   209  105  226 1    
   210  106  227 1    
   211  106  228 1    
   212  106  229 1    
   213  107  108 2    
   214  107  109 am   BACKBONE|DICT|INTERRES
   215  109  110 1    
   216  109  230 1    
   217  110  111 1    
   218  110  112 1    
   219  110  231 1    
   220  111  232 1    
   221  111  233 1    
   222  111  234 1    
   223  112  113 2    
   224  112  114 am   BACKBONE|DICT|INTERRES
   225  114  115 1    
   226  114  235 1    
   227  115  116 1    
   228  115  117 1    
   229  115  236 1    
   230  116  237 1    
   231  116  238 1    
   232  116  239 1    
   233  117  118 2    
   234  117  119 am   BACKBONE|DICT|INTERRES
   235  119  120 1    
   236  119  240 1    
   237  120  121 1    
   238  120  124 1    
   239  120  241 1    
   240  121  122 am   BACKBONE|DICT|INTERRES
   241  121  123 2    
   242  122  242 1    
   243  122  243 1    
   244  124  125 1    
   245  124  244 1    
   246  124  245 1    
   247  125  126 1    
   248  126  246 1    
   249  126  247 1    
@<TRIPOS>SUBSTRUCTURE
     1 UNK         1 GROUP             0       ****    0 ROOT    
