@<TRIPOS>MOLECULE
3R540
247   249    1
SMALL
USER_CHARGES


@<TRIPOS>ATOM
      1 CA          3.0424  -16.3898  -48.2270 C.3       0 UNK        -0.1800 
      2 C           2.1926  -15.1799  -47.8698 C.2       0 UNK         0.5000 
      3 O           2.4455  -14.5321  -46.8592 O.2       0 UNK        -0.5000 
      4 N           1.1950  -14.8515  -48.7013 N.am      1 UNK        -0.5000 
      5 CA          0.2146  -13.7770  -48.4682 C.3       1 UNK         0.1400 
      6 C6         -1.0759  -14.0072  -49.3035 C.3       23 UNK        -0.0398 
      7 S7         -2.6238  -13.5341  -48.4499 S.3       23 UNK        -0.2404 
      8 C8         -2.7248  -14.6989  -47.0464 C.3       23 UNK        -0.0205 
      9 C9         -2.6649  -16.1564  -47.4786 C.ar      23 UNK        -0.0193 
     10 C10        -3.8288  -16.8168  -47.8803 C.ar      23 UNK        -0.1150 
     11 C11        -3.7785  -18.1449  -48.3129 C.ar      23 UNK        -0.0193 
     12 C12        -2.5494  -18.8097  -48.3432 C.ar      23 UNK        -0.1150 
     13 C13        -1.3805  -18.1673  -47.9265 C.ar      23 UNK        -0.0193 
     14 C14        -1.4474  -16.8451  -47.4809 C.ar      23 UNK        -0.1150 
     15 C15        -0.0462  -18.8940  -47.9881 C.3       23 UNK        -0.0205 
     16 S16         0.4888  -19.4603  -46.3434 S.3       23 UNK        -0.2404 
     17 C17         1.5939  -20.8450  -46.7874 C.3       23 UNK        -0.0398 
     18 CA          0.9918  -22.2674  -46.6298 C.3       11 UNK         0.1400 
     19 N           0.7836  -22.6783  -45.2358 N.am      11 UNK        -0.5000 
     20 C           0.6626  -23.9646  -44.8665 C.2       10 UNK         0.5000 
     21 O           0.7137  -24.9058  -45.6583 O.2       10 UNK        -0.5000 
     22 CA          0.4128  -24.2596  -43.3774 C.3       10 UNK         0.1400 
     23 CB          1.7247  -24.1804  -42.5823 C.3       10 UNK        -0.1800 
     24 N          -0.5759  -23.3737  -42.7679 N.am      10 UNK        -0.5000 
     25 C          -1.8648  -23.2810  -43.1276 C.2       9 UNK         0.5000 
     26 O          -2.3733  -23.9472  -44.0277 O.2       9 UNK        -0.5000 
     27 CA         -2.7176  -22.2391  -42.3745 C.3       9 UNK         0.1400 
     28 CB         -3.4331  -22.8886  -41.1809 C.3       9 UNK        -0.1800 
     29 N          -1.9224  -21.1001  -41.9042 N.am      9 UNK        -0.5000 
     30 C          -1.3116  -20.2388  -42.7271 C.2       8 UNK         0.5000 
     31 O          -1.4597  -20.2549  -43.9506 O.2       8 UNK        -0.5000 
     32 CA         -0.3208  -19.2600  -42.0832 C.3       8 UNK         0.1400 
     33 CB          0.9255  -20.0143  -41.5734 C.3       8 UNK        -0.1800 
     34 N           0.0724  -18.2639  -43.0738 N.am      8 UNK        -0.5000 
     35 C           0.6887  -17.1086  -42.8102 C.2       7 UNK         0.5000 
     36 O           0.9776  -16.7338  -41.6710 O.2       7 UNK        -0.5000 
     37 CA          0.9973  -16.2067  -44.0201 C.3       7 UNK         0.1400 
     38 CB         -0.1489  -15.2126  -44.2469 C.3       7 UNK        -0.1800 
     39 N           2.2339  -15.4502  -43.8459 N.am      7 UNK        -0.5000 
     40 C           3.4632  -15.9766  -43.7815 C.2       6 UNK         0.5000 
     41 O           3.7062  -17.1771  -43.9146 O.2       6 UNK        -0.5000 
     42 CA          4.6172  -14.9973  -43.5039 C.3       6 UNK         0.1400 
     43 CB          5.1451  -14.3732  -44.8054 C.3       6 UNK        -0.1800 
     44 N           4.2129  -13.9329  -42.5846 N.am      6 UNK        -0.5000 
     45 C           4.2408  -14.0374  -41.2483 C.2       5 UNK         0.5000 
     46 O           4.6611  -15.0285  -40.6500 O.2       5 UNK        -0.5000 
     47 CA          3.7353  -12.8290  -40.4349 C.3       5 UNK         0.1400 
     48 CB          4.9138  -11.9355  -40.0176 C.3       5 UNK        -0.1800 
     49 N           2.7638  -12.0162  -41.1667 N.am      5 UNK        -0.5000 
     50 C           1.4727  -12.3359  -41.3314 C.2       4 UNK         0.5000 
     51 O           0.9386  -13.3159  -40.8142 O.2       4 UNK        -0.5000 
     52 CA          0.6393  -11.4102  -42.2410 C.3       4 UNK         0.1400 
     53 CB         -0.1299  -10.3796  -41.4005 C.3       4 UNK        -0.1800 
     54 N           1.4348  -10.7058  -43.2531 N.am      4 UNK        -0.5000 
     55 C           2.0912  -11.3071  -44.2527 C.2       3 UNK         0.5000 
     56 O           2.1210  -12.5286  -44.4097 O.2       3 UNK        -0.5000 
     57 CA          2.8998  -10.4019  -45.1869 C.3       3 UNK         0.1400 
     58 CB          4.3544  -10.2796  -44.6997 C.3       3 UNK        -0.1800 
     59 N           2.8720  -10.9575  -46.5353 N.am      3 UNK        -0.5000 
     60 C           2.9731  -10.2355  -47.6593 C.2       2 UNK         0.5000 
     61 O           3.1587   -9.0175  -47.6693 O.2       2 UNK        -0.5000 
     62 CA          2.8419  -10.9800  -49.0044 C.3       2 UNK         0.1400 
     63 CB          4.2315  -11.2783  -49.5881 C.3       2 UNK        -0.1800 
     64 N           2.0918  -12.2325  -48.9154 N.am      2 UNK        -0.5000 
     65 C           0.7869  -12.3458  -48.6311 C.2       1 UNK         0.5000 
     66 O           0.0474  -11.3721  -48.4844 O.2       1 UNK        -0.5000 
     67 C          -0.2748  -22.4961  -47.4799 C.2       11 UNK         0.5000 
     68 O          -0.1603  -22.9276  -48.6260 O.2       11 UNK        -0.5000 
     69 N          -1.4558  -22.2606  -46.8879 N.am      12 UNK        -0.5000 
     70 CA         -2.7555  -22.5370  -47.4980 C.3       12 UNK         0.1400 
     71 CB         -3.8736  -21.9358  -46.6340 C.3       12 UNK        -0.1800 
     72 C          -2.9803  -24.0390  -47.7366 C.2       12 UNK         0.5000 
     73 O          -3.4430  -24.4125  -48.8141 O.2       12 UNK        -0.5000 
     74 N          -2.6067  -24.8704  -46.7536 N.am      13 UNK        -0.5000 
     75 CA         -2.6392  -26.3297  -46.8390 C.3       13 UNK         0.1400 
     76 CB         -2.3472  -26.9383  -45.4592 C.3       13 UNK        -0.1800 
     77 C          -1.6699  -26.8811  -47.8993 C.2       13 UNK         0.5000 
     78 O          -2.0677  -27.7392  -48.6869 O.2       13 UNK        -0.5000 
     79 N          -0.4373  -26.3525  -47.9344 N.am      14 UNK        -0.5000 
     80 CA          0.5899  -26.6995  -48.9219 C.3       14 UNK         0.1400 
     81 CB          1.9215  -26.0407  -48.5325 C.3       14 UNK        -0.1800 
     82 C           0.1951  -26.3159  -50.3609 C.2       14 UNK         0.5000 
     83 O           0.4586  -27.0788  -51.2907 O.2       14 UNK        -0.5000 
     84 N          -0.4624  -25.1590  -50.5099 N.am      15 UNK        -0.5000 
     85 CA         -1.0314  -24.6675  -51.7651 C.3       15 UNK         0.1400 
     86 CB         -1.2904  -23.1599  -51.6165 C.3       15 UNK        -0.1800 
     87 C          -2.3347  -25.3812  -52.1791 C.2       15 UNK         0.5000 
     88 O          -2.8040  -25.1664  -53.2990 O.2       15 UNK        -0.5000 
     89 N          -2.9253  -26.1576  -51.2558 N.am      16 UNK        -0.5000 
     90 CA         -4.2444  -26.7967  -51.3297 C.3       16 UNK         0.1400 
     91 CB         -4.2240  -27.9535  -52.3492 C.3       16 UNK        -0.1800 
     92 C          -5.3732  -25.7776  -51.5991 C.2       16 UNK         0.5000 
     93 O          -6.3173  -26.0779  -52.3324 O.2       16 UNK        -0.5000 
     94 N          -5.2056  -24.5617  -51.0554 N.am      17 UNK        -0.5000 
     95 CA         -5.9319  -23.3099  -51.3032 C.3       17 UNK         0.1400 
     96 CB         -7.4026  -23.4201  -50.8628 C.3       17 UNK        -0.1800 
     97 C          -5.8231  -22.7799  -52.7498 C.2       17 UNK         0.5000 
     98 O          -5.6175  -21.5807  -52.9398 O.2       17 UNK        -0.5000 
     99 N          -5.9610  -23.6714  -53.7371 N.am      18 UNK        -0.5000 
    100 CA        -6.0141  -23.4032  -55.1716 C.3       18 UNK         0.1400 
    101 CB        -6.2213  -24.7279  -55.9209 C.3       18 UNK        -0.1800 
    102 C         -4.7927  -22.6536  -55.7265 C.2       18 UNK         0.5000 
    103 O         -4.9735  -21.6821  -56.4610 O.2       18 UNK        -0.5000 
    104 N         -3.5765  -23.0787  -55.3517 N.am      19 UNK        -0.5000 
    105 CA        -2.3312  -22.4675  -55.8348 C.3       19 UNK         0.1400 
    106 CB        -1.1531  -23.4249  -55.6019 C.3       19 UNK        -0.1800 
    107 C         -2.0518  -21.0797  -55.2223 C.2       19 UNK         0.5000 
    108 O         -1.2797  -20.3111  -55.7958 O.2       19 UNK        -0.5000 
    109 N         -2.7012  -20.7744  -54.0911 N.am      20 UNK        -0.5000 
    110 CA        -2.6832  -19.4654  -53.4375 C.3       20 UNK         0.1400 
    111 CB        -2.7416  -19.6786  -51.9151 C.3       20 UNK        -0.1800 
    112 C         -3.8385  -18.5605  -53.9174 C.2       20 UNK         0.5000 
    113 O         -3.8896  -17.3962  -53.5208 O.2       20 UNK        -0.5000 
    114 N         -4.7394  -19.1069  -54.7517 N.am      21 UNK        -0.5000 
    115 CA        -5.9820  -18.5104  -55.2536 C.3       21 UNK         0.1400 
    116 CB        -5.6952  -17.2767  -56.1350 C.3       21 UNK        -0.1800 
    117 C         -7.0143  -18.2370  -54.1375 C.2       21 UNK         0.5000 
    118 O         -7.8176  -17.3093  -54.2534 O.2       21 UNK        -0.5000 
    119 N         -6.9815  -19.0601  -53.0827 N.am      22 UNK        -0.5000 
    120 CA        -7.8622  -18.9747  -51.9068 C.3       22 UNK         0.1400 
    121 C         -9.1529  -19.8356  -52.0312 C.2       22 UNK         0.5000 
    122 N         -9.3372  -20.6161  -53.0894 N.am      22 UNK        -0.7600 
    123 O        -10.0115  -19.7872  -51.1547 O.2       22 UNK        -0.5000 
    124 C124       -7.0970  -19.3081  -50.6000 C.3       23 UNK        -0.0398 
    125 S125       -5.6805  -18.1973  -50.3166 S.3       23 UNK        -0.2404 
    126 C126       -5.0512  -18.8573  -48.7449 C.3       23 UNK        -0.0205 
    127 H127        4.0915  -16.1029  -48.2973 H         1 UNK         0.0600 
    128 H128        2.9481  -17.1511  -47.4521 H         1 UNK         0.0600 
    129 H129        2.7438  -16.8298  -49.1785 H         1 UNK         0.0600 
    130 H130        1.0613  -15.3898  -49.5456 H         1 UNK         0.3000 
    131 H131       -0.0492  -13.8450  -47.4130 H         1 UNK         0.0600 
    132 H132       -1.1761  -15.0556  -49.5853 H         1 UNK         0.0800 
    133 H133       -1.0275  -13.4714  -50.2531 H         1 UNK         0.0800 
    134 H134       -3.6599  -14.5176  -46.5144 H         1 UNK         0.0800 
    135 H135       -1.9362  -14.4774  -46.3309 H         1 UNK         0.0800 
    136 H136       -4.7742  -16.2924  -47.8730 H         1 UNK         0.1150 
    137 H137       -2.4995  -19.8277  -48.6971 H         1 UNK         0.1150 
    138 H138       -0.5463  -16.3479  -47.1542 H         1 UNK         0.1150 
    139 H139       -0.1227  -19.7440  -48.6678 H         1 UNK         0.0800 
    140 H140        0.7142  -18.2360  -48.4085 H         1 UNK         0.0800 
    141 H141        1.9453  -20.7056  -47.8111 H         1 UNK         0.0800 
    142 H142        2.4880  -20.7636  -46.1679 H         1 UNK         0.0800 
    143 H143        1.7462  -22.9444  -47.0373 H         1 UNK         0.0600 
    144 H144        0.6832  -21.9445  -44.5501 H         1 UNK         0.3000 
    145 H145        0.0316  -25.2803  -43.3033 H         1 UNK         0.0600 
    146 H146        1.5758  -24.4807  -41.5450 H         1 UNK         0.0600 
    147 H147        2.4785  -24.8453  -43.0063 H         1 UNK         0.0600 
    148 H148        2.1387  -23.1713  -42.5837 H         1 UNK         0.0600 
    149 H149       -0.2522  -22.7901  -42.0121 H         1 UNK         0.3000 
    150 H150       -3.4747  -21.8667  -43.0680 H         1 UNK         0.0600 
    151 H151       -4.0497  -23.7277  -41.5061 H         1 UNK         0.0600 
    152 H152       -4.0915  -22.1777  -40.6813 H         1 UNK         0.0600 
    153 H153       -2.7250  -23.2680  -40.4432 H         1 UNK         0.0600 
    154 H154       -1.7718  -21.0298  -40.9079 H         1 UNK         0.3000 
    155 H155       -0.8223  -18.7613  -41.2514 H         1 UNK         0.0600 
    156 H156        1.6338  -19.3387  -41.0940 H         1 UNK         0.0600 
    157 H157        1.4486  -20.5177  -42.3875 H         1 UNK         0.0600 
    158 H158        0.6608  -20.7697  -40.8331 H         1 UNK         0.0600 
    159 H159       -0.1790  -18.5125  -44.0251 H         1 UNK         0.3000 
    160 H160        1.1079  -16.8263  -44.9120 H         1 UNK         0.0600 
    161 H161       -1.0830  -15.7360  -44.4535 H         1 UNK         0.0600 
    162 H162        0.0644  -14.5597  -45.0927 H         1 UNK         0.0600 
    163 H163       -0.3097  -14.5810  -43.3722 H         1 UNK         0.0600 
    164 H164        2.1416  -14.4413  -43.8081 H         1 UNK         0.3000 
    165 H165        5.4341  -15.5689  -43.0580 H         1 UNK         0.0600 
    166 H166        4.4033  -13.7277  -45.2749 H         1 UNK         0.0600 
    167 H167        6.0373  -13.7750  -44.6207 H         1 UNK         0.0600 
    168 H168        5.4120  -15.1442  -45.5292 H         1 UNK         0.0600 
    169 H169        3.7924  -13.1152  -43.0027 H         1 UNK         0.3000 
    170 H170        3.2620  -13.2133  -39.5287 H         1 UNK         0.0600 
    171 H171        5.6495  -12.5019  -39.4450 H         1 UNK         0.0600 
    172 H172        5.4260  -11.5131  -40.8831 H         1 UNK         0.0600 
    173 H173        4.5797  -11.1103  -39.3883 H         1 UNK         0.0600 
    174 H174        3.1101  -11.1770  -41.6070 H         1 UNK         0.3000 
    175 H175       -0.0876  -12.0358  -42.7634 H         1 UNK         0.0600 
    176 H176        0.5459   -9.7067  -40.8711 H         1 UNK         0.0600 
    177 H177       -0.7885   -9.7742  -42.0236 H         1 UNK         0.0600 
    178 H178       -0.7543  -10.8721  -40.6538 H         1 UNK         0.0600 
    179 H179        1.4682   -9.6992  -43.1764 H         1 UNK         0.3000 
    180 H180        2.4349   -9.4135  -45.1911 H         1 UNK         0.0600 
    181 H181        4.8592  -11.2463  -44.6939 H         1 UNK         0.0600 
    182 H182        4.3978   -9.8785  -43.6865 H         1 UNK         0.0600 
    183 H183        4.9291   -9.6080  -45.3377 H         1 UNK         0.0600 
    184 H184        2.6882  -11.9536  -46.5855 H         1 UNK         0.3000 
    185 H185        2.3136  -10.3194  -49.6949 H         1 UNK         0.0600 
    186 H186        4.8142  -10.3627  -49.6985 H         1 UNK         0.0600 
    187 H187        4.7998  -11.9538  -48.9472 H         1 UNK         0.0600 
    188 H188        4.1561  -11.7344  -50.5754 H         1 UNK         0.0600 
    189 H189        2.6263  -13.0851  -48.9940 H         1 UNK         0.3000 
    190 H190       -1.4602  -21.8902  -45.9468 H         1 UNK         0.3000 
    191 H191       -2.7794  -22.0503  -48.4741 H         1 UNK         0.0600 
    192 H192       -4.8473  -22.0755  -47.1051 H         1 UNK         0.0600 
    193 H193       -3.7304  -20.8646  -46.4910 H         1 UNK         0.0600 
    194 H194       -3.9167  -22.3987  -45.6481 H         1 UNK         0.0600 
    195 H195       -2.2951  -24.4758  -45.8704 H         1 UNK         0.3000 
    196 H196       -3.6502  -26.6226  -47.1300 H         1 UNK         0.0600 
    197 H197       -2.3783  -28.0279  -45.4977 H         1 UNK         0.0600 
    198 H198       -3.0856  -26.6177  -44.7241 H         1 UNK         0.0600 
    199 H199       -1.3627  -26.6498  -45.0904 H         1 UNK         0.0600 
    200 H200       -0.1694  -25.6840  -47.2175 H         1 UNK         0.3000 
    201 H201        0.7256  -27.7826  -48.8934 H         1 UNK         0.0600 
    202 H202        2.2480  -26.3653  -47.5444 H         1 UNK         0.0600 
    203 H203        1.8428  -24.9534  -48.5189 H         1 UNK         0.0600 
    204 H204        2.7097  -26.3046  -49.2385 H         1 UNK         0.0600 
    205 H205       -0.5711  -24.5526  -49.7024 H         1 UNK         0.3000 
    206 H206       -0.3031  -24.8204  -52.5635 H         1 UNK         0.0600 
    207 H207       -0.3646  -22.6159  -51.4288 H         1 UNK         0.0600 
    208 H208       -1.7332  -22.7436  -52.5184 H         1 UNK         0.0600 
    209 H209       -1.9758  -22.9490  -50.7951 H         1 UNK         0.0600 
    210 H210       -2.4592  -26.2498  -50.3624 H         1 UNK         0.3000 
    211 H211       -4.4395  -27.2197  -50.3434 H         1 UNK         0.0600 
    212 H212       -4.0863  -27.5917  -53.3687 H         1 UNK         0.0600 
    213 H213       -5.1587  -28.5146  -52.3239 H         1 UNK         0.0600 
    214 H214       -3.4190  -28.6551  -52.1305 H         1 UNK         0.0600 
    215 H215       -4.4171  -24.4677  -50.4183 H         1 UNK         0.3000 
    216 H216       -5.4526  -22.5655  -50.6654 H         1 UNK         0.0600 
    217 H217       -7.9528  -24.1522  -51.4541 H         1 UNK         0.0600 
    218 H218       -7.9175  -22.4658  -50.9728 H         1 UNK         0.0600 
    219 H219       -7.4778  -23.7108  -49.8150 H         1 UNK         0.0600 
    220 H220       -6.1198  -24.6350  -53.4533 H         1 UNK         0.3000 
    221 H221       -6.8893  -22.7746  -55.3472 H         1 UNK         0.0600 
    222 H222       -5.4041  -25.4263  -55.7345 H         1 UNK         0.0600 
    223 H223       -7.1494  -25.2117  -55.6160 H         1 UNK         0.0600 
    224 H224       -6.2781  -24.5656  -56.9981 H         1 UNK         0.0600 
    225 H225       -3.4891  -23.8678  -54.7170 H         1 UNK         0.3000 
    226 H226       -2.4252  -22.3257  -56.9137 H         1 UNK         0.0600 
    227 H227       -1.3451  -24.4035  -56.0421 H         1 UNK         0.0600 
    228 H228       -0.2416  -23.0364  -56.0576 H         1 UNK         0.0600 
    229 H229       -0.9489  -23.5682  -54.5433 H         1 UNK         0.0600 
    230 H230       -3.3469  -21.4524  -53.7098 H         1 UNK         0.3000 
    231 H231       -1.7496  -18.9485  -53.6683 H         1 UNK         0.0600 
    232 H232       -3.6457  -20.2087  -51.6146 H         1 UNK         0.0600 
    233 H233       -1.8835  -20.2500  -51.5623 H         1 UNK         0.0600 
    234 H234       -2.7308  -18.7248  -51.3860 H         1 UNK         0.0600 
    235 H235       -4.5926  -20.0679  -55.0333 H         1 UNK         0.3000 
    236 H236       -6.4347  -19.2675  -55.8952 H         1 UNK         0.0600 
    237 H237       -4.9611  -17.5064  -56.9073 H         1 UNK         0.0600 
    238 H238       -6.6008  -16.9393  -56.6402 H         1 UNK         0.0600 
    239 H239       -5.3176  -16.4375  -55.5505 H         1 UNK         0.0600 
    240 H240       -6.3130  -19.8259  -53.0753 H         1 UNK         0.3000 
    241 H241       -8.2126  -17.9451  -51.8134 H         1 UNK         0.0600 
    242 H242       -8.6463  -20.6546  -53.8205 H         1 UNK         0.3800 
    243 H243      -10.1816  -21.1612  -53.1638 H         1 UNK         0.3800 
    244 H244       -7.7594  -19.2322  -49.7359 H         1 UNK         0.0800 
    245 H245       -6.7323  -20.3352  -50.6235 H         1 UNK         0.0800 
    246 H246       -4.8727  -19.9283  -48.8522 H         1 UNK         0.0800 
    247 H247       -5.8111  -18.7430  -47.9706 H         1 UNK         0.0800 
@<TRIPOS>BOND
     1    1    2 1    
     2    1  127 1    
     3    1  128 1    
     4    1  129 1    
     5    2    3 2    
     6    2    4 am   BACKBONE|DICT|INTERRES
     7    4    5 1    
     8    4  130 1    
     9    5    6 1    
    10    5   65 1    
    11    5  131 1    
    12    6    7 1    
    13    6  132 1    
    14    6  133 1    
    15    7    8 1    
    16    8    9 1    
    17    8  134 1    
    18    8  135 1    
    19    9   10 ar   
    20    9   14 ar   
    21   10   11 ar   
    22   10  136 1    
    23   11   12 ar   
    24   11  126 1    
    25   12   13 ar   
    26   12  137 1    
    27   13   14 ar   
    28   13   15 1    
    29   14  138 1    
    30   15   16 1    
    31   15  139 1    
    32   15  140 1    
    33   16   17 1    
    34   17   18 1    
    35   17  141 1    
    36   17  142 1    
    37   18   19 1    
    38   18   67 1    
    39   18  143 1    
    40   19   20 am   BACKBONE|DICT|INTERRES
    41   19  144 1    
    42   20   21 2    
    43   20   22 1    
    44   22   23 1    
    45   22   24 1    
    46   22  145 1    
    47   23  146 1    
    48   23  147 1    
    49   23  148 1    
    50   24   25 am   BACKBONE|DICT|INTERRES
    51   24  149 1    
    52   25   26 2    
    53   25   27 1    
    54   27   28 1    
    55   27   29 1    
    56   27  150 1    
    57   28  151 1    
    58   28  152 1    
    59   28  153 1    
    60   29   30 am   BACKBONE|DICT|INTERRES
    61   29  154 1    
    62   30   31 2    
    63   30   32 1    
    64   32   33 1    
    65   32   34 1    
    66   32  155 1    
    67   33  156 1    
    68   33  157 1    
    69   33  158 1    
    70   34   35 am   BACKBONE|DICT|INTERRES
    71   34  159 1    
    72   35   36 2    
    73   35   37 1    
    74   37   38 1    
    75   37   39 1    
    76   37  160 1    
    77   38  161 1    
    78   38  162 1    
    79   38  163 1    
    80   39   40 am   BACKBONE|DICT|INTERRES
    81   39  164 1    
    82   40   41 2    
    83   40   42 1    
    84   42   43 1    
    85   42   44 1    
    86   42  165 1    
    87   43  166 1    
    88   43  167 1    
    89   43  168 1    
    90   44   45 am   BACKBONE|DICT|INTERRES
    91   44  169 1    
    92   45   46 2    
    93   45   47 1    
    94   47   48 1    
    95   47   49 1    
    96   47  170 1    
    97   48  171 1    
    98   48  172 1    
    99   48  173 1    
   100   49   50 am   BACKBONE|DICT|INTERRES
   101   49  174 1    
   102   50   51 2    
   103   50   52 1    
   104   52   53 1    
   105   52   54 1    
   106   52  175 1    
   107   53  176 1    
   108   53  177 1    
   109   53  178 1    
   110   54   55 am   BACKBONE|DICT|INTERRES
   111   54  179 1    
   112   55   56 2    
   113   55   57 1    
   114   57   58 1    
   115   57   59 1    
   116   57  180 1    
   117   58  181 1    
   118   58  182 1    
   119   58  183 1    
   120   59   60 am   BACKBONE|DICT|INTERRES
   121   59  184 1    
   122   60   61 2    
   123   60   62 1    
   124   62   63 1    
   125   62   64 1    
   126   62  185 1    
   127   63  186 1    
   128   63  187 1    
   129   63  188 1    
   130   64   65 am   BACKBONE|DICT|INTERRES
   131   64  189 1    
   132   65   66 2    
   133   67   68 2    
   134   67   69 am   BACKBONE|DICT|INTERRES
   135   69   70 1    
   136   69  190 1    
   137   70   71 1    
   138   70   72 1    
   139   70  191 1    
   140   71  192 1    
   141   71  193 1    
   142   71  194 1    
   143   72   73 2    
   144   72   74 am   BACKBONE|DICT|INTERRES
   145   74   75 1    
   146   74  195 1    
   147   75   76 1    
   148   75   77 1    
   149   75  196 1    
   150   76  197 1    
   151   76  198 1    
   152   76  199 1    
   153   77   78 2    
   154   77   79 am   BACKBONE|DICT|INTERRES
   155   79   80 1    
   156   79  200 1    
   157   80   81 1    
   158   80   82 1    
   159   80  201 1    
   160   81  202 1    
   161   81  203 1    
   162   81  204 1    
   163   82   83 2    
   164   82   84 am   BACKBONE|DICT|INTERRES
   165   84   85 1    
   166   84  205 1    
   167   85   86 1    
   168   85   87 1    
   169   85  206 1    
   170   86  207 1    
   171   86  208 1    
   172   86  209 1    
   173   87   88 2    
   174   87   89 am   BACKBONE|DICT|INTERRES
   175   89   90 1    
   176   89  210 1    
   177   90   91 1    
   178   90   92 1    
   179   90  211 1    
   180   91  212 1    
   181   91  213 1    
   182   91  214 1    
   183   92   93 2    
   184   92   94 am   BACKBONE|DICT|INTERRES
   185   94   95 1    
   186   94  215 1    
   187   95   96 1    
   188   95   97 1    
   189   95  216 1    
   190   96  217 1    
   191   96  218 1    
   192   96  219 1    
   193   97   98 2    
   194   97   99 am   BACKBONE|DICT|INTERRES
   195   99  100 1    
   196   99  220 1    
   197  100  101 1    
   198  100  102 1    
   199  100  221 1    
   200  101  222 1    
   201  101  223 1    
   202  101  224 1    
   203  102  103 2    
   204  102  104 am   BACKBONE|DICT|INTERRES
   205  104  105 1    
   206  104  225 1    
   207  105  106 1    
   208  105  107 1    
   209  105  226 1    
   210  106  227 1    
   211  106  228 1    
   212  106  229 1    
   213  107  108 2    
   214  107  109 am   BACKBONE|DICT|INTERRES
   215  109  110 1    
   216  109  230 1    
   217  110  111 1    
   218  110  112 1    
   219  110  231 1    
   220  111  232 1    
   221  111  233 1    
   222  111  234 1    
   223  112  113 2    
   224  112  114 am   BACKBONE|DICT|INTERRES
   225  114  115 1    
   226  114  235 1    
   227  115  116 1    
   228  115  117 1    
   229  115  236 1    
   230  116  237 1    
   231  116  238 1    
   232  116  239 1    
   233  117  118 2    
   234  117  119 am   BACKBONE|DICT|INTERRES
   235  119  120 1    
   236  119  240 1    
   237  120  121 1    
   238  120  124 1    
   239  120  241 1    
   240  121  122 am   BACKBONE|DICT|INTERRES
   241  121  123 2    
   242  122  242 1    
   243  122  243 1    
   244  124  125 1    
   245  124  244 1    
   246  124  245 1    
   247  125  126 1    
   248  126  246 1    
   249  126  247 1    
@<TRIPOS>SUBSTRUCTURE
     1 UNK         1 GROUP             0       ****    0 ROOT    
