@<TRIPOS>MOLECULE
3R540
247   249    1
SMALL
USER_CHARGES


@<TRIPOS>ATOM
      1 CA          1.6172  -13.8703  -52.8303 C.3       0 UNK        -0.1800 
      2 C           2.2380  -13.4069  -51.5196 C.2       0 UNK         0.5000 
      3 O           3.3903  -12.9740  -51.5027 O.2       0 UNK        -0.5000 
      4 N           1.4816  -13.5004  -50.4243 N.am      1 UNK        -0.5000 
      5 CA          1.8800  -13.1188  -49.0707 C.3       1 UNK         0.1400 
      6 C6          2.8140  -14.1555  -48.3831 C.3       23 UNK        -0.0398 
      7 S7          2.2216  -15.8848  -48.4605 S.3       23 UNK        -0.2404 
      8 C8          3.3400  -16.5955  -49.7050 C.3       23 UNK        -0.0205 
      9 C9          2.7100  -17.8087  -50.3669 C.ar      23 UNK        -0.0193 
     10 C10         1.8637  -17.6395  -51.4648 C.ar      23 UNK        -0.1150 
     11 C11         1.2672  -18.7415  -52.0856 C.ar      23 UNK        -0.0193 
     12 C12         1.5340  -20.0253  -51.5981 C.ar      23 UNK        -0.1150 
     13 C13         2.3941  -20.2114  -50.5101 C.ar      23 UNK        -0.0193 
     14 C14         2.9778  -19.0967  -49.8981 C.ar      23 UNK        -0.1150 
     15 C15         2.7276  -21.6195  -50.0303 C.3       23 UNK        -0.0205 
     16 S16         2.4532  -21.8454  -48.2441 S.3       23 UNK        -0.2404 
     17 C17         0.6488  -21.6176  -48.1195 C.3       23 UNK        -0.0398 
     18 CA          0.0147  -22.6339  -47.1450 C.3       11 UNK         0.1400 
     19 N           0.4230  -22.4016  -45.7548 N.am      11 UNK        -0.5000 
     20 C           0.2002  -23.2579  -44.7490 C.2       10 UNK         0.5000 
     21 O          -0.3687  -24.3385  -44.8911 O.2       10 UNK        -0.5000 
     22 CA          0.6373  -22.8205  -43.3407 C.3       10 UNK         0.1400 
     23 CB          2.1578  -22.9523  -43.1686 C.3       10 UNK        -0.1800 
     24 N           0.2115  -21.4584  -43.0213 N.am      10 UNK        -0.5000 
     25 C          -1.0679  -21.0675  -42.9285 C.2       9 UNK         0.5000 
     26 O          -2.0259  -21.8305  -43.0568 O.2       9 UNK        -0.5000 
     27 CA         -1.3231  -19.5650  -42.7043 C.3       9 UNK         0.1400 
     28 CB         -1.1517  -19.1906  -41.2250 C.3       9 UNK        -0.1800 
     29 N          -0.4607  -18.7160  -43.5252 N.am      9 UNK        -0.5000 
     30 C          -0.4478  -18.7097  -44.8659 C.2       8 UNK         0.5000 
     31 O          -1.1877  -19.3977  -45.5662 O.2       8 UNK        -0.5000 
     32 CA          0.6114  -17.8238  -45.5369 C.3       8 UNK         0.1400 
     33 CB          0.1713  -16.3556  -45.5134 C.3       8 UNK        -0.1800 
     34 N           1.9194  -17.9633  -44.8986 N.am      8 UNK        -0.5000 
     35 C           2.6350  -19.0970  -44.8915 C.2       7 UNK         0.5000 
     36 O           2.2686  -20.1411  -45.4273 O.2       7 UNK        -0.5000 
     37 CA          3.9552  -19.0726  -44.1031 C.3       7 UNK         0.1400 
     38 CB          5.0602  -18.3811  -44.9163 C.3       7 UNK        -0.1800 
     39 N           3.8119  -18.4095  -42.8068 N.am      7 UNK        -0.5000 
     40 C           3.0453  -18.8616  -41.8033 C.2       6 UNK         0.5000 
     41 O           2.4176  -19.9190  -41.8425 O.2       6 UNK        -0.5000 
     42 CA          2.9204  -17.9513  -40.5678 C.3       6 UNK         0.1400 
     43 CB          4.0608  -18.2245  -39.5760 C.3       6 UNK        -0.1800 
     44 N           2.8994  -16.5255  -40.9073 N.am      6 UNK        -0.5000 
     45 C           1.9452  -15.9376  -41.6408 C.2       5 UNK         0.5000 
     46 O           0.9860  -16.5428  -42.1252 O.2       5 UNK        -0.5000 
     47 CA          2.1345  -14.4388  -41.9299 C.3       5 UNK         0.1400 
     48 CB          2.8599  -14.2439  -43.2707 C.3       5 UNK        -0.1800 
     49 N           0.8546  -13.7331  -41.9648 N.am      5 UNK        -0.5000 
     50 C           0.1178  -13.4592  -40.8772 C.2       4 UNK         0.5000 
     51 O           0.4793  -13.7279  -39.7302 O.2       4 UNK        -0.5000 
     52 CA         -1.2375  -12.7497  -41.0817 C.3       4 UNK         0.1400 
     53 CB         -1.1122  -11.2523  -40.7593 C.3       4 UNK        -0.1800 
     54 N          -1.7756  -12.8922  -42.4332 N.am      4 UNK        -0.5000 
     55 C          -2.2742  -14.0234  -42.9479 C.2       3 UNK         0.5000 
     56 O          -2.4273  -15.0580  -42.2986 O.2       3 UNK        -0.5000 
     57 CA         -2.6675  -14.0020  -44.4402 C.3       3 UNK         0.1400 
     58 CB         -4.1959  -13.9489  -44.5888 C.3       3 UNK        -0.1800 
     59 N          -2.0795  -12.9151  -45.2361 N.am      3 UNK        -0.5000 
     60 C          -0.7711  -12.6912  -45.4197 C.2       2 UNK         0.5000 
     61 O           0.1213  -13.3011  -44.8302 O.2       2 UNK        -0.5000 
     62 CA         -0.3932  -11.5554  -46.3838 C.3       2 UNK         0.1400 
     63 CB          0.0132  -10.3006  -45.5957 C.3       2 UNK        -0.1800 
     64 N           0.7103  -11.9499  -47.2600 N.am      2 UNK        -0.5000 
     65 C           0.6000  -12.8280  -48.2655 C.2       1 UNK         0.5000 
     66 O          -0.4619  -13.3717  -48.5849 O.2       1 UNK        -0.5000 
     67 C          -1.5189  -22.6758  -47.3082 C.2       11 UNK         0.5000 
     68 O          -2.0192  -23.4792  -48.1002 O.2       11 UNK        -0.5000 
     69 N          -2.2431  -21.8407  -46.5496 N.am      12 UNK        -0.5000 
     70 CA         -3.7033  -21.8413  -46.4734 C.3       12 UNK         0.1400 
     71 CB         -4.1968  -20.6220  -45.6815 C.3       12 UNK        -0.1800 
     72 C          -4.2563  -23.1489  -45.8815 C.2       12 UNK         0.5000 
     73 O          -5.1965  -23.7146  -46.4385 O.2       12 UNK        -0.5000 
     74 N          -3.6402  -23.6291  -44.7939 N.am      13 UNK        -0.5000 
     75 CA         -3.9762  -24.9042  -44.1614 C.3       13 UNK         0.1400 
     76 CB         -3.2664  -25.0028  -42.8024 C.3       13 UNK        -0.1800 
     77 C          -3.6365  -26.1191  -45.0464 C.2       13 UNK         0.5000 
     78 O          -4.4224  -27.0659  -45.1026 O.2       13 UNK        -0.5000 
     79 N          -2.4747  -26.0733  -45.7114 N.am      14 UNK        -0.5000 
     80 CA         -1.9487  -27.1585  -46.5350 C.3       14 UNK         0.1400 
     81 CB         -0.4498  -26.9340  -46.7895 C.3       14 UNK        -0.1800 
     82 C          -2.6935  -27.3445  -47.8670 C.2       14 UNK         0.5000 
     83 O          -3.0310  -28.4801  -48.2063 O.2       14 UNK        -0.5000 
     84 N          -2.8990  -26.2528  -48.6177 N.am      15 UNK        -0.5000 
     85 CA         -3.3491  -26.3171  -50.0118 C.3       15 UNK         0.1400 
     86 CB         -2.1333  -26.5704  -50.9278 C.3       15 UNK        -0.1800 
     87 C          -4.1505  -25.0793  -50.4476 C.2       15 UNK         0.5000 
     88 O          -4.1827  -24.7762  -51.6423 O.2       15 UNK        -0.5000 
     89 N          -4.7667  -24.3657  -49.4917 N.am      16 UNK        -0.5000 
     90 CA         -5.5763  -23.1547  -49.7007 C.3       16 UNK         0.1400 
     91 CB         -6.9144  -23.5135  -50.3786 C.3       16 UNK        -0.1800 
     92 C          -4.8137  -22.0227  -50.4260 C.2       16 UNK         0.5000 
     93 O          -5.4169  -21.2717  -51.1921 O.2       16 UNK        -0.5000 
     94 N          -3.4944  -21.9499  -50.1799 N.am      17 UNK        -0.5000 
     95 CA         -2.5151  -21.0707  -50.8231 C.3       17 UNK         0.1400 
     96 CB         -2.6544  -19.6211  -50.3200 C.3       17 UNK        -0.1800 
     97 C          -2.5246  -21.2250  -52.3569 C.2       17 UNK         0.5000 
     98 O          -2.8589  -20.2908  -53.0856 O.2       17 UNK        -0.5000 
     99 N          -2.1798  -22.4438  -52.7979 N.am      18 UNK        -0.5000 
    100 CA        -2.1202  -22.8994  -54.1904 C.3       18 UNK         0.1400 
    101 CB        -1.0529  -22.1147  -54.9839 C.3       18 UNK        -0.1800 
    102 C         -3.5029  -22.9090  -54.8747 C.2       18 UNK         0.5000 
    103 O         -3.6221  -22.5036  -56.0327 O.2       18 UNK        -0.5000 
    104 N         -4.5222  -23.3737  -54.1364 N.am      19 UNK        -0.5000 
    105 CA        -5.9342  -23.5600  -54.5007 C.3       19 UNK         0.1400 
    106 CB        -6.0813  -24.5781  -55.6471 C.3       19 UNK        -0.1800 
    107 C         -6.7180  -22.2677  -54.8081 C.2       19 UNK         0.5000 
    108 O         -7.8397  -22.1097  -54.3259 O.2       19 UNK        -0.5000 
    109 N         -6.1283  -21.3757  -55.6095 N.am      20 UNK        -0.5000 
    110 CA        -6.7121  -20.1158  -56.0709 C.3       20 UNK         0.1400 
    111 CB        -6.0343  -19.7329  -57.3970 C.3       20 UNK        -0.1800 
    112 C         -6.5881  -18.9664  -55.0508 C.2       20 UNK         0.5000 
    113 O         -7.1276  -17.8884  -55.3004 O.2       20 UNK        -0.5000 
    114 N         -5.8544  -19.1980  -53.9526 N.am      21 UNK        -0.5000 
    115 CA        -5.4996  -18.2591  -52.8801 C.3       21 UNK         0.1400 
    116 CB        -6.7485  -17.6398  -52.2183 C.3       21 UNK        -0.1800 
    117 C         -4.4467  -17.2024  -53.2813 C.2       21 UNK         0.5000 
    118 O         -4.1569  -16.3145  -52.4777 O.2       21 UNK        -0.5000 
    119 N         -3.8852  -17.3461  -54.4910 N.am      22 UNK        -0.5000 
    120 CA        -2.8241  -16.5462  -55.1234 C.3       22 UNK         0.1400 
    121 C         -2.9450  -14.9981  -54.9598 C.2       22 UNK         0.5000 
    122 N         -1.8605  -14.2735  -54.7148 N.am      22 UNK        -0.7600 
    123 O         -4.0230  -14.4337  -55.1329 O.2       22 UNK        -0.5000 
    124 C124       -1.4091  -17.1584  -54.9138 C.3       23 UNK        -0.0398 
    125 S125       -0.8013  -17.1948  -53.1926 S.3       23 UNK        -0.2404 
    126 C126        0.3966  -18.5633  -53.3247 C.3       23 UNK        -0.0205 
    127 H127        2.2413  -14.6351  -53.2926 H         1 UNK         0.0600 
    128 H128        1.5320  -13.0330  -53.5228 H         1 UNK         0.0600 
    129 H129        0.6228  -14.2908  -52.6784 H         1 UNK         0.0600 
    130 H130        0.5292  -13.8409  -50.4770 H         1 UNK         0.3000 
    131 H131        2.4212  -12.1727  -49.1412 H         1 UNK         0.0600 
    132 H132        2.9655  -13.8957  -47.3340 H         1 UNK         0.0800 
    133 H133        3.8050  -14.1000  -48.8349 H         1 UNK         0.0800 
    134 H134        4.2856  -16.8625  -49.2307 H         1 UNK         0.0800 
    135 H135        3.5765  -15.8521  -50.4670 H         1 UNK         0.0800 
    136 H136        1.6719  -16.6441  -51.8374 H         1 UNK         0.1150 
    137 H137        1.0939  -20.8838  -52.0860 H         1 UNK         0.1150 
    138 H138        3.6425  -19.2332  -49.0564 H         1 UNK         0.1150 
    139 H139        2.1511  -22.3679  -50.5762 H         1 UNK         0.0800 
    140 H140        3.7767  -21.8211  -50.2499 H         1 UNK         0.0800 
    141 H141        0.2256  -21.7317  -49.1168 H         1 UNK         0.0800 
    142 H142        0.4405  -20.5922  -47.8083 H         1 UNK         0.0800 
    143 H143        0.3752  -23.6263  -47.4235 H         1 UNK         0.0600 
    144 H144        0.9408  -21.5454  -45.5723 H         1 UNK         0.3000 
    145 H145        0.1597  -23.4923  -42.6245 H         1 UNK         0.0600 
    146 H146        2.4579  -22.7311  -42.1442 H         1 UNK         0.0600 
    147 H147        2.7009  -22.2760  -43.8286 H         1 UNK         0.0600 
    148 H148        2.4894  -23.9668  -43.3928 H         1 UNK         0.0600 
    149 H149        0.9478  -20.7789  -42.8566 H         1 UNK         0.3000 
    150 H150       -2.3562  -19.3571  -42.9893 H         1 UNK         0.0600 
    151 H151       -1.8174  -19.7802  -40.5936 H         1 UNK         0.0600 
    152 H152       -1.3866  -18.1392  -41.0559 H         1 UNK         0.0600 
    153 H153       -0.1321  -19.3641  -40.8807 H         1 UNK         0.0600 
    154 H154        0.1599  -18.0805  -43.0313 H         1 UNK         0.3000 
    155 H155        0.7128  -18.1361  -46.5788 H         1 UNK         0.0600 
    156 H156       -0.7143  -16.2092  -46.1321 H         1 UNK         0.0600 
    157 H157        0.9465  -15.6970  -45.9005 H         1 UNK         0.0600 
    158 H158       -0.0702  -16.0188  -44.5052 H         1 UNK         0.0600 
    159 H159        2.2610  -17.1664  -44.3844 H         1 UNK         0.3000 
    160 H160        4.2573  -20.1067  -43.9239 H         1 UNK         0.0600 
    161 H161        4.8295  -17.3316  -45.1035 H         1 UNK         0.0600 
    162 H162        5.1907  -18.8656  -45.8850 H         1 UNK         0.0600 
    163 H163        6.0184  -18.4278  -44.3987 H         1 UNK         0.0600 
    164 H164        4.2946  -17.5319  -42.6851 H         1 UNK         0.3000 
    165 H165        1.9757  -18.1912  -40.0755 H         1 UNK         0.0600 
    166 H166        3.9347  -17.6459  -38.6607 H         1 UNK         0.0600 
    167 H167        4.0863  -19.2775  -39.2920 H         1 UNK         0.0600 
    168 H168        5.0341  -17.9753  -40.0005 H         1 UNK         0.0600 
    169 H169        3.6602  -15.9661  -40.5493 H         1 UNK         0.3000 
    170 H170        2.7474  -13.9988  -41.1404 H         1 UNK         0.0600 
    171 H171        2.3104  -14.6959  -44.0964 H         1 UNK         0.0600 
    172 H172        2.9906  -13.1859  -43.4987 H         1 UNK         0.0600 
    173 H173        3.8515  -14.6974  -43.2502 H         1 UNK         0.0600 
    174 H174        0.4796  -13.5301  -42.8863 H         1 UNK         0.3000 
    175 H175       -1.9484  -13.1925  -40.3809 H         1 UNK         0.0600 
    176 H176       -0.4218  -10.7512  -41.4391 H         1 UNK         0.0600 
    177 H177       -2.0776  -10.7509  -40.8296 H         1 UNK         0.0600 
    178 H178       -0.7421  -11.1002  -39.7445 H         1 UNK         0.0600 
    179 H179       -1.6876  -12.0936  -43.0432 H         1 UNK         0.3000 
    180 H180       -2.3230  -14.9432  -44.8699 H         1 UNK         0.0600 
    181 H181       -4.6038  -13.0126  -44.2061 H         1 UNK         0.0600 
    182 H182       -4.6723  -14.7628  -44.0404 H         1 UNK         0.0600 
    183 H183       -4.4956  -14.0459  -45.6324 H         1 UNK         0.0600 
    184 H184       -2.7383  -12.3409  -45.7421 H         1 UNK         0.3000 
    185 H185       -1.2572  -11.3093  -47.0049 H         1 UNK         0.0600 
    186 H186        0.8807  -10.4864  -44.9607 H         1 UNK         0.0600 
    187 H187        0.2577   -9.4757  -46.2653 H         1 UNK         0.0600 
    188 H188       -0.7991   -9.9638  -44.9504 H         1 UNK         0.0600 
    189 H189        1.6152  -11.5624  -47.0367 H         1 UNK         0.3000 
    190 H190       -1.7626  -21.1457  -45.9830 H         1 UNK         0.3000 
    191 H191       -4.0864  -21.7446  -47.4878 H         1 UNK         0.0600 
    192 H192       -3.8815  -19.6923  -46.1554 H         1 UNK         0.0600 
    193 H193       -3.8184  -20.6216  -44.6598 H         1 UNK         0.0600 
    194 H194       -5.2860  -20.6057  -45.6283 H         1 UNK         0.0600 
    195 H195       -2.8972  -23.0857  -44.3650 H         1 UNK         0.3000 
    196 H196       -5.0531  -24.9166  -43.9806 H         1 UNK         0.0600 
    197 H197       -3.5643  -24.1872  -42.1432 H         1 UNK         0.0600 
    198 H198       -2.1820  -24.9646  -42.9095 H         1 UNK         0.0600 
    199 H199       -3.5150  -25.9373  -42.2980 H         1 UNK         0.0600 
    200 H200       -1.8509  -25.2870  -45.5468 H         1 UNK         0.3000 
    201 H201       -2.0506  -28.0871  -45.9691 H         1 UNK         0.0600 
    202 H202        0.1092  -26.9110  -45.8540 H         1 UNK         0.0600 
    203 H203       -0.2663  -25.9951  -47.3124 H         1 UNK         0.0600 
    204 H204       -0.0307  -27.7364  -47.3978 H         1 UNK         0.0600 
    205 H205       -2.5878  -25.3440  -48.2840 H         1 UNK         0.3000 
    206 H206       -4.0410  -27.1536  -50.1282 H         1 UNK         0.0600 
    207 H207       -1.6128  -27.4880  -50.6536 H         1 UNK         0.0600 
    208 H208       -1.4164  -25.7505  -50.8718 H         1 UNK         0.0600 
    209 H209       -2.4342  -26.6770  -51.9707 H         1 UNK         0.0600 
    210 H210       -4.6866  -24.6723  -48.5305 H         1 UNK         0.3000 
    211 H211       -5.8231  -22.7583  -48.7176 H         1 UNK         0.0600 
    212 H212       -6.7674  -23.9082  -51.3821 H         1 UNK         0.0600 
    213 H213       -7.5629  -22.6405  -50.4614 H         1 UNK         0.0600 
    214 H214       -7.4561  -24.2632  -49.8021 H         1 UNK         0.0600 
    215 H215       -3.1054  -22.6311  -49.5353 H         1 UNK         0.3000 
    216 H216       -1.5333  -21.4182  -50.5049 H         1 UNK         0.0600 
    217 H217       -1.9815  -18.9508  -50.8564 H         1 UNK         0.0600 
    218 H218       -2.4001  -19.5548  -49.2619 H         1 UNK         0.0600 
    219 H219       -3.6657  -19.2382  -50.4350 H         1 UNK         0.0600 
    220 H220       -1.9924  -23.1571  -52.1079 H         1 UNK         0.3000 
    221 H221       -1.7978  -23.9410  -54.1538 H         1 UNK         0.0600 
    222 H222       -1.3427  -21.0749  -55.1382 H         1 UNK         0.0600 
    223 H223       -0.0919  -22.1230  -54.4697 H         1 UNK         0.0600 
    224 H224       -0.8974  -22.5568  -55.9685 H         1 UNK         0.0600 
    225 H225       -4.3009  -23.6904  -53.1948 H         1 UNK         0.3000 
    226 H226       -6.4021  -24.0034  -53.6224 H         1 UNK         0.0600 
    227 H227       -5.6028  -25.5247  -55.3959 H         1 UNK         0.0600 
    228 H228       -7.1327  -24.7887  -55.8470 H         1 UNK         0.0600 
    229 H229       -5.6408  -24.2153  -56.5761 H         1 UNK         0.0600 
    230 H230       -5.1963  -21.6069  -55.9486 H         1 UNK         0.3000 
    231 H231       -7.7764  -20.2683  -56.2619 H         1 UNK         0.0600 
    232 H232       -6.4588  -18.8157  -57.8073 H         1 UNK         0.0600 
    233 H233       -6.1678  -20.5131  -58.1467 H         1 UNK         0.0600 
    234 H234       -4.9630  -19.5719  -57.2688 H         1 UNK         0.0600 
    235 H235       -5.4428  -20.1166  -53.8529 H         1 UNK         0.3000 
    236 H236       -5.0164  -18.8724  -52.1248 H         1 UNK         0.0600 
    237 H237       -7.2452  -16.9234  -52.8724 H         1 UNK         0.0600 
    238 H238       -7.4713  -18.4086  -51.9448 H         1 UNK         0.0600 
    239 H239       -6.4800  -17.1095  -51.3040 H         1 UNK         0.0600 
    240 H240       -4.2143  -18.1269  -55.0370 H         1 UNK         0.3000 
    241 H241       -3.0236  -16.6764  -56.1878 H         1 UNK         0.0600 
    242 H242       -1.9469  -13.2721  -54.6400 H         1 UNK         0.3800 
    243 H243       -0.9690  -14.7128  -54.5519 H         1 UNK         0.3800 
    244 H244       -0.6731  -16.6443  -55.5335 H         1 UNK         0.0800 
    245 H245       -1.4241  -18.1850  -55.2834 H         1 UNK         0.0800 
    246 H246       -0.1529  -19.4809  -53.5382 H         1 UNK         0.0800 
    247 H247        1.0516  -18.3847  -54.1783 H         1 UNK         0.0800 
@<TRIPOS>BOND
     1    1    2 1    
     2    1  127 1    
     3    1  128 1    
     4    1  129 1    
     5    2    3 2    
     6    2    4 am   BACKBONE|DICT|INTERRES
     7    4    5 1    
     8    4  130 1    
     9    5    6 1    
    10    5   65 1    
    11    5  131 1    
    12    6    7 1    
    13    6  132 1    
    14    6  133 1    
    15    7    8 1    
    16    8    9 1    
    17    8  134 1    
    18    8  135 1    
    19    9   10 ar   
    20    9   14 ar   
    21   10   11 ar   
    22   10  136 1    
    23   11   12 ar   
    24   11  126 1    
    25   12   13 ar   
    26   12  137 1    
    27   13   14 ar   
    28   13   15 1    
    29   14  138 1    
    30   15   16 1    
    31   15  139 1    
    32   15  140 1    
    33   16   17 1    
    34   17   18 1    
    35   17  141 1    
    36   17  142 1    
    37   18   19 1    
    38   18   67 1    
    39   18  143 1    
    40   19   20 am   BACKBONE|DICT|INTERRES
    41   19  144 1    
    42   20   21 2    
    43   20   22 1    
    44   22   23 1    
    45   22   24 1    
    46   22  145 1    
    47   23  146 1    
    48   23  147 1    
    49   23  148 1    
    50   24   25 am   BACKBONE|DICT|INTERRES
    51   24  149 1    
    52   25   26 2    
    53   25   27 1    
    54   27   28 1    
    55   27   29 1    
    56   27  150 1    
    57   28  151 1    
    58   28  152 1    
    59   28  153 1    
    60   29   30 am   BACKBONE|DICT|INTERRES
    61   29  154 1    
    62   30   31 2    
    63   30   32 1    
    64   32   33 1    
    65   32   34 1    
    66   32  155 1    
    67   33  156 1    
    68   33  157 1    
    69   33  158 1    
    70   34   35 am   BACKBONE|DICT|INTERRES
    71   34  159 1    
    72   35   36 2    
    73   35   37 1    
    74   37   38 1    
    75   37   39 1    
    76   37  160 1    
    77   38  161 1    
    78   38  162 1    
    79   38  163 1    
    80   39   40 am   BACKBONE|DICT|INTERRES
    81   39  164 1    
    82   40   41 2    
    83   40   42 1    
    84   42   43 1    
    85   42   44 1    
    86   42  165 1    
    87   43  166 1    
    88   43  167 1    
    89   43  168 1    
    90   44   45 am   BACKBONE|DICT|INTERRES
    91   44  169 1    
    92   45   46 2    
    93   45   47 1    
    94   47   48 1    
    95   47   49 1    
    96   47  170 1    
    97   48  171 1    
    98   48  172 1    
    99   48  173 1    
   100   49   50 am   BACKBONE|DICT|INTERRES
   101   49  174 1    
   102   50   51 2    
   103   50   52 1    
   104   52   53 1    
   105   52   54 1    
   106   52  175 1    
   107   53  176 1    
   108   53  177 1    
   109   53  178 1    
   110   54   55 am   BACKBONE|DICT|INTERRES
   111   54  179 1    
   112   55   56 2    
   113   55   57 1    
   114   57   58 1    
   115   57   59 1    
   116   57  180 1    
   117   58  181 1    
   118   58  182 1    
   119   58  183 1    
   120   59   60 am   BACKBONE|DICT|INTERRES
   121   59  184 1    
   122   60   61 2    
   123   60   62 1    
   124   62   63 1    
   125   62   64 1    
   126   62  185 1    
   127   63  186 1    
   128   63  187 1    
   129   63  188 1    
   130   64   65 am   BACKBONE|DICT|INTERRES
   131   64  189 1    
   132   65   66 2    
   133   67   68 2    
   134   67   69 am   BACKBONE|DICT|INTERRES
   135   69   70 1    
   136   69  190 1    
   137   70   71 1    
   138   70   72 1    
   139   70  191 1    
   140   71  192 1    
   141   71  193 1    
   142   71  194 1    
   143   72   73 2    
   144   72   74 am   BACKBONE|DICT|INTERRES
   145   74   75 1    
   146   74  195 1    
   147   75   76 1    
   148   75   77 1    
   149   75  196 1    
   150   76  197 1    
   151   76  198 1    
   152   76  199 1    
   153   77   78 2    
   154   77   79 am   BACKBONE|DICT|INTERRES
   155   79   80 1    
   156   79  200 1    
   157   80   81 1    
   158   80   82 1    
   159   80  201 1    
   160   81  202 1    
   161   81  203 1    
   162   81  204 1    
   163   82   83 2    
   164   82   84 am   BACKBONE|DICT|INTERRES
   165   84   85 1    
   166   84  205 1    
   167   85   86 1    
   168   85   87 1    
   169   85  206 1    
   170   86  207 1    
   171   86  208 1    
   172   86  209 1    
   173   87   88 2    
   174   87   89 am   BACKBONE|DICT|INTERRES
   175   89   90 1    
   176   89  210 1    
   177   90   91 1    
   178   90   92 1    
   179   90  211 1    
   180   91  212 1    
   181   91  213 1    
   182   91  214 1    
   183   92   93 2    
   184   92   94 am   BACKBONE|DICT|INTERRES
   185   94   95 1    
   186   94  215 1    
   187   95   96 1    
   188   95   97 1    
   189   95  216 1    
   190   96  217 1    
   191   96  218 1    
   192   96  219 1    
   193   97   98 2    
   194   97   99 am   BACKBONE|DICT|INTERRES
   195   99  100 1    
   196   99  220 1    
   197  100  101 1    
   198  100  102 1    
   199  100  221 1    
   200  101  222 1    
   201  101  223 1    
   202  101  224 1    
   203  102  103 2    
   204  102  104 am   BACKBONE|DICT|INTERRES
   205  104  105 1    
   206  104  225 1    
   207  105  106 1    
   208  105  107 1    
   209  105  226 1    
   210  106  227 1    
   211  106  228 1    
   212  106  229 1    
   213  107  108 2    
   214  107  109 am   BACKBONE|DICT|INTERRES
   215  109  110 1    
   216  109  230 1    
   217  110  111 1    
   218  110  112 1    
   219  110  231 1    
   220  111  232 1    
   221  111  233 1    
   222  111  234 1    
   223  112  113 2    
   224  112  114 am   BACKBONE|DICT|INTERRES
   225  114  115 1    
   226  114  235 1    
   227  115  116 1    
   228  115  117 1    
   229  115  236 1    
   230  116  237 1    
   231  116  238 1    
   232  116  239 1    
   233  117  118 2    
   234  117  119 am   BACKBONE|DICT|INTERRES
   235  119  120 1    
   236  119  240 1    
   237  120  121 1    
   238  120  124 1    
   239  120  241 1    
   240  121  122 am   BACKBONE|DICT|INTERRES
   241  121  123 2    
   242  122  242 1    
   243  122  243 1    
   244  124  125 1    
   245  124  244 1    
   246  124  245 1    
   247  125  126 1    
   248  126  246 1    
   249  126  247 1    
@<TRIPOS>SUBSTRUCTURE
     1 UNK         1 GROUP             0       ****    0 ROOT    
