@<TRIPOS>MOLECULE
3R540
247   249    1
SMALL
USER_CHARGES


@<TRIPOS>ATOM
      1 CA         -3.6971   -9.1611  -45.7241 C.3       0 UNK        -0.1800 
      2 C          -2.7342  -10.3364  -45.8054 C.2       0 UNK         0.5000 
      3 O          -1.9196  -10.3987  -46.7245 O.2       0 UNK        -0.5000 
      4 N          -2.8041  -11.2559  -44.8338 N.am      1 UNK        -0.5000 
      5 CA         -2.0209  -12.4999  -44.7608 C.3       1 UNK         0.1400 
      6 C6         -2.5794  -13.4606  -43.6800 C.3       23 UNK        -0.0398 
      7 S7         -4.1745  -14.1835  -44.1957 S.3       23 UNK        -0.2404 
      8 C8         -3.5539  -15.6933  -45.0046 C.3       23 UNK        -0.0205 
      9 C9         -4.5144  -16.2958  -46.0169 C.ar      23 UNK        -0.0193 
     10 C10        -5.0504  -15.5062  -47.0371 C.ar      23 UNK        -0.1150 
     11 C11        -5.8812  -16.0663  -48.0101 C.ar      23 UNK        -0.0193 
     12 C12        -6.1755  -17.4323  -47.9574 C.ar      23 UNK        -0.1150 
     13 C13        -5.6400  -18.2367  -46.9456 C.ar      23 UNK        -0.0193 
     14 C14        -4.8120  -17.6612  -45.9767 C.ar      23 UNK        -0.1150 
     15 C15        -5.9689  -19.7229  -46.8920 C.3       23 UNK        -0.0205 
     16 S16        -5.0944  -20.6724  -48.1769 S.3       23 UNK        -0.2404 
     17 C17        -3.3780  -20.6686  -47.5564 C.3       23 UNK        -0.0398 
     18 CA         -2.8862  -22.0714  -47.1248 C.3       11 UNK         0.1400 
     19 N          -1.4270  -22.1423  -47.0568 N.am      11 UNK        -0.5000 
     20 C          -0.7172  -23.2748  -46.9755 C.2       10 UNK         0.5000 
     21 O          -1.2257  -24.3964  -46.9923 O.2       10 UNK        -0.5000 
     22 CA          0.8089  -23.1337  -46.8094 C.3       10 UNK         0.1400 
     23 CB          1.5072  -22.9471  -48.1635 C.3       10 UNK        -0.1800 
     24 N           1.1913  -22.0425  -45.9107 N.am      10 UNK        -0.5000 
     25 C           0.9203  -22.0201  -44.5982 C.2       9 UNK         0.5000 
     26 O           0.3357  -22.9270  -44.0071 O.2       9 UNK        -0.5000 
     27 CA          1.3280  -20.7545  -43.8231 C.3       9 UNK         0.1400 
     28 CB          2.8364  -20.7459  -43.5339 C.3       9 UNK        -0.1800 
     29 N           0.9571  -19.5240  -44.5193 N.am      9 UNK        -0.5000 
     30 C          -0.3002  -19.1650  -44.8147 C.2       8 UNK         0.5000 
     31 O          -1.2977  -19.8175  -44.5102 O.2       8 UNK        -0.5000 
     32 CA         -0.4652  -17.8828  -45.6436 C.3       8 UNK         0.1400 
     33 CB         -0.2569  -16.6499  -44.7551 C.3       8 UNK        -0.1800 
     34 N           0.4443  -17.8363  -46.7907 N.am      8 UNK        -0.5000 
     35 C           0.4732  -18.7525  -47.7700 C.2       7 UNK         0.5000 
     36 O          -0.2950  -19.7076  -47.8205 O.2       7 UNK        -0.5000 
     37 CA          1.5792  -18.6325  -48.8307 C.3       7 UNK         0.1400 
     38 CB          1.1565  -17.7198  -49.9872 C.3       7 UNK        -0.1800 
     39 N           2.8343  -18.1567  -48.2577 N.am      7 UNK        -0.5000 
     40 C           3.6059  -18.8809  -47.4356 C.2       6 UNK         0.5000 
     41 O           3.3725  -20.0503  -47.1256 O.2       6 UNK        -0.5000 
     42 CA          4.8082  -18.1439  -46.8190 C.3       6 UNK         0.1400 
     43 CB          5.9789  -18.0802  -47.8114 C.3       6 UNK        -0.1800 
     44 N           4.4548  -16.7875  -46.3910 N.am      6 UNK        -0.5000 
     45 C           3.6184  -16.5179  -45.3786 C.2       5 UNK         0.5000 
     46 O           3.1100  -17.3889  -44.6722 O.2       5 UNK        -0.5000 
     47 CA          3.2694  -15.0373  -45.1316 C.3       5 UNK         0.1400 
     48 CB          4.2389  -14.4148  -44.1168 C.3       5 UNK        -0.1800 
     49 N           3.2617  -14.2228  -46.3492 N.am      5 UNK        -0.5000 
     50 C           2.3644  -14.3300  -47.3375 C.2       4 UNK         0.5000 
     51 O           1.4658  -15.1747  -47.3681 O.2       4 UNK        -0.5000 
     52 CA          2.5430  -13.3642  -48.5162 C.3       4 UNK         0.1400 
     53 CB          3.3132  -14.0630  -49.6469 C.3       4 UNK        -0.1800 
     54 N           1.2375  -12.9507  -49.0321 N.am      4 UNK        -0.5000 
     55 C           0.6505  -11.7461  -48.9906 C.2       3 UNK         0.5000 
     56 O          -0.4730  -11.5813  -49.4642 O.2       3 UNK        -0.5000 
     57 CA          1.3550  -10.5460  -48.3216 C.3       3 UNK         0.1400 
     58 CB          0.8691   -9.1999  -48.8917 C.3       3 UNK        -0.1800 
     59 N           1.0474  -10.5695  -46.8964 N.am      3 UNK        -0.5000 
     60 C           1.9321  -10.7084  -45.9002 C.2       2 UNK         0.5000 
     61 O           3.1424  -10.8496  -46.0782 O.2       2 UNK        -0.5000 
     62 CA          1.3805  -10.6896  -44.4569 C.3       2 UNK         0.1400 
     63 CB          1.5625   -9.2984  -43.8317 C.3       2 UNK        -0.1800 
     64 N          -0.0336  -11.0624  -44.3797 N.am      2 UNK        -0.5000 
     65 C          -0.4948  -12.2999  -44.6038 C.2       1 UNK         0.5000 
     66 O           0.2479  -13.2715  -44.7251 O.2       1 UNK        -0.5000 
     67 C          -3.5332  -22.5521  -45.8090 C.2       11 UNK         0.5000 
     68 O          -4.4654  -23.3544  -45.8567 O.2       11 UNK        -0.5000 
     69 N          -2.9919  -22.1170  -44.6606 N.am      12 UNK        -0.5000 
     70 CA         -3.4084  -22.5526  -43.3236 C.3       12 UNK         0.1400 
     71 CB         -2.7031  -21.6976  -42.2605 C.3       12 UNK        -0.1800 
     72 C          -3.1588  -24.0523  -43.0689 C.2       12 UNK         0.5000 
     73 O          -3.9802  -24.7036  -42.4230 O.2       12 UNK        -0.5000 
     74 N          -2.0560  -24.5815  -43.6165 N.am      13 UNK        -0.5000 
     75 CA         -1.7151  -26.0068  -43.6190 C.3       13 UNK         0.1400 
     76 CB         -0.2175  -26.1582  -43.9308 C.3       13 UNK        -0.1800 
     77 C          -2.5568  -26.8447  -44.6060 C.2       13 UNK         0.5000 
     78 O          -2.4645  -28.0725  -44.5737 O.2       13 UNK        -0.5000 
     79 N          -3.3454  -26.1783  -45.4632 N.am      14 UNK        -0.5000 
     80 CA         -4.1998  -26.7328  -46.5158 C.3       14 UNK         0.1400 
     81 CB         -5.3315  -27.5940  -45.9177 C.3       14 UNK        -0.1800 
     82 C          -3.4050  -27.4551  -47.6227 C.2       14 UNK         0.5000 
     83 O          -3.8928  -28.4289  -48.2006 O.2       14 UNK        -0.5000 
     84 N          -2.2026  -26.9494  -47.9308 N.am      15 UNK        -0.5000 
     85 CA         -1.3226  -27.4491  -48.9867 C.3       15 UNK         0.1400 
     86 CB          0.1252  -27.0395  -48.6634 C.3       15 UNK        -0.1800 
     87 C          -1.7933  -26.9327  -50.3596 C.2       15 UNK         0.5000 
     88 O          -1.1694  -26.0378  -50.9327 O.2       15 UNK        -0.5000 
     89 N          -2.9394  -27.4558  -50.8215 N.am      16 UNK        -0.5000 
     90 CA         -3.6506  -27.0994  -52.0585 C.3       16 UNK         0.1400 
     91 CB         -2.8442  -27.5556  -53.2926 C.3       16 UNK        -0.1800 
     92 C          -4.0339  -25.6044  -52.1231 C.2       16 UNK         0.5000 
     93 O          -3.9895  -24.9990  -53.1955 O.2       16 UNK        -0.5000 
     94 N          -4.3378  -25.0196  -50.9530 N.am      17 UNK        -0.5000 
     95 CA         -4.5655  -23.5881  -50.7167 C.3       17 UNK         0.1400 
     96 CB         -5.8986  -23.1389  -51.3505 C.3       17 UNK        -0.1800 
     97 C          -3.3681  -22.7163  -51.1597 C.2       17 UNK         0.5000 
     98 O          -3.5688  -21.6408  -51.7214 O.2       17 UNK        -0.5000 
     99 N          -2.1455  -23.2365  -50.9610 N.am      18 UNK        -0.5000 
    100 CA        -0.8625  -22.6794  -51.4069 C.3       18 UNK         0.1400 
    101 CB        -0.5834  -21.3364  -50.7086 C.3       18 UNK        -0.1800 
    102 C         -0.7445  -22.5893  -52.9436 C.2       18 UNK         0.5000 
    103 O         -0.0990  -21.6754  -53.4571 O.2       18 UNK        -0.5000 
    104 N         -1.3893  -23.5354  -53.6442 N.am      19 UNK        -0.5000 
    105 CA        -1.6247  -23.5599  -55.0921 C.3       19 UNK         0.1400 
    106 CB        -0.3040  -23.6888  -55.8801 C.3       19 UNK        -0.1800 
    107 C         -2.5037  -22.3719  -55.5404 C.2       19 UNK         0.5000 
    108 O         -2.2195  -21.7348  -56.5561 O.2       19 UNK        -0.5000 
    109 N         -3.5534  -22.1070  -54.7477 N.am      20 UNK        -0.5000 
    110 CA        -4.5021  -20.9946  -54.8412 C.3       20 UNK         0.1400 
    111 CB        -5.3667  -21.1176  -56.1134 C.3       20 UNK        -0.1800 
    112 C         -3.8067  -19.6239  -54.7023 C.2       20 UNK         0.5000 
    113 O         -3.8485  -18.8102  -55.6282 O.2       20 UNK        -0.5000 
    114 N         -3.1727  -19.3987  -53.5458 N.am      21 UNK        -0.5000 
    115 CA        -2.4924  -18.1538  -53.1919 C.3       21 UNK         0.1400 
    116 CB        -0.9767  -18.3212  -53.3922 C.3       21 UNK        -0.1800 
    117 C         -2.8223  -17.7573  -51.7446 C.2       21 UNK         0.5000 
    118 O         -3.2388  -18.5996  -50.9487 O.2       21 UNK        -0.5000 
    119 N         -2.6195  -16.4737  -51.4378 N.am      22 UNK        -0.5000 
    120 CA        -2.8537  -15.8613  -50.1235 C.3       22 UNK         0.1400 
    121 C         -1.5151  -15.3432  -49.5411 C.2       22 UNK         0.5000 
    122 N         -1.2965  -15.4945  -48.2431 N.am      22 UNK        -0.7600 
    123 O         -0.6750  -14.7981  -50.2536 O.2       22 UNK        -0.5000 
    124 C124       -3.8889  -14.7124  -50.2218 C.3       23 UNK        -0.0398 
    125 S125       -5.5488  -15.3286  -50.6770 S.3       23 UNK        -0.2404 
    126 C126       -6.4651  -15.1888  -49.1083 C.3       23 UNK        -0.0205 
    127 H127       -3.1422   -8.2248  -45.6653 H         1 UNK         0.0600 
    128 H128       -4.3465   -9.2282  -44.8509 H         1 UNK         0.0600 
    129 H129       -4.3256   -9.1307  -46.6142 H         1 UNK         0.0600 
    130 H130       -3.4931  -11.1402  -44.1040 H         1 UNK         0.3000 
    131 H131       -2.1300  -12.9909  -45.7307 H         1 UNK         0.0600 
    132 H132       -1.8864  -14.2766  -43.4662 H         1 UNK         0.0800 
    133 H133       -2.7164  -12.9358  -42.7333 H         1 UNK         0.0800 
    134 H134       -3.3000  -16.4206  -44.2326 H         1 UNK         0.0800 
    135 H135       -2.6364  -15.4534  -45.5384 H         1 UNK         0.0800 
    136 H136       -4.8145  -14.4520  -47.0738 H         1 UNK         0.1150 
    137 H137       -6.8141  -17.8727  -48.7104 H         1 UNK         0.1150 
    138 H138       -4.3901  -18.2804  -45.1972 H         1 UNK         0.1150 
    139 H139       -5.7378  -20.1400  -45.9104 H         1 UNK         0.0800 
    140 H140       -7.0428  -19.8540  -47.0316 H         1 UNK         0.0800 
    141 H141       -3.2489  -19.9415  -46.7540 H         1 UNK         0.0800 
    142 H142       -2.7679  -20.3058  -48.3849 H         1 UNK         0.0800 
    143 H143       -3.1845  -22.7769  -47.9021 H         1 UNK         0.0600 
    144 H144       -0.9317  -21.2538  -47.1052 H         1 UNK         0.3000 
    145 H145        1.1712  -24.0677  -46.3753 H         1 UNK         0.0600 
    146 H146        2.5878  -23.0473  -48.0613 H         1 UNK         0.0600 
    147 H147        1.1777  -23.6928  -48.8876 H         1 UNK         0.0600 
    148 H148        1.3090  -21.9628  -48.5846 H         1 UNK         0.0600 
    149 H149        1.6888  -21.2609  -46.3209 H         1 UNK         0.3000 
    150 H150        0.7991  -20.7665  -42.8680 H         1 UNK         0.0600 
    151 H151        3.1361  -21.6458  -42.9953 H         1 UNK         0.0600 
    152 H152        3.1138  -19.8898  -42.9185 H         1 UNK         0.0600 
    153 H153        3.4240  -20.6999  -44.4513 H         1 UNK         0.0600 
    154 H154        1.7143  -18.9032  -44.7862 H         1 UNK         0.3000 
    155 H155       -1.4852  -17.8620  -46.0321 H         1 UNK         0.0600 
    156 H156        0.7156  -16.6554  -44.2695 H         1 UNK         0.0600 
    157 H157       -0.9968  -16.6139  -43.9565 H         1 UNK         0.0600 
    158 H158       -0.3369  -15.7294  -45.3304 H         1 UNK         0.0600 
    159 H159        1.0679  -17.0387  -46.8503 H         1 UNK         0.3000 
    160 H160        1.7478  -19.6302  -49.2403 H         1 UNK         0.0600 
    161 H161        1.8643  -17.7773  -50.8139 H         1 UNK         0.0600 
    162 H162        1.0996  -16.6803  -49.6695 H         1 UNK         0.0600 
    163 H163        0.1771  -18.0034  -50.3754 H         1 UNK         0.0600 
    164 H164        3.0756  -17.1925  -48.4276 H         1 UNK         0.3000 
    165 H165        5.1327  -18.7084  -45.9421 H         1 UNK         0.0600 
    166 H166        6.8570  -17.6227  -47.3552 H         1 UNK         0.0600 
    167 H167        6.2674  -19.0804  -48.1377 H         1 UNK         0.0600 
    168 H168        5.7249  -17.5046  -48.7023 H         1 UNK         0.0600 
    169 H169        4.8442  -16.0193  -46.9166 H         1 UNK         0.3000 
    170 H170        2.2682  -15.0017  -44.7013 H         1 UNK         0.0600 
    171 H171        4.2456  -14.9819  -43.1850 H         1 UNK         0.0600 
    172 H172        5.2612  -14.3925  -44.4962 H         1 UNK         0.0600 
    173 H173        3.9480  -13.3929  -43.8717 H         1 UNK         0.0600 
    174 H174        3.9596  -13.4941  -46.4006 H         1 UNK         0.3000 
    175 H175        3.1428  -12.5224  -48.1798 H         1 UNK         0.0600 
    176 H176        2.7706  -14.9268  -50.0327 H         1 UNK         0.0600 
    177 H177        3.4875  -13.3823  -50.4803 H         1 UNK         0.0600 
    178 H178        4.2883  -14.4116  -49.3042 H         1 UNK         0.0600 
    179 H179        0.6863  -13.7069  -49.4300 H         1 UNK         0.3000 
    180 H180        2.4269  -10.5826  -48.5110 H         1 UNK         0.0600 
    181 H181       -0.1947   -9.0398  -48.7098 H         1 UNK         0.0600 
    182 H182        1.0315   -9.1510  -49.9690 H         1 UNK         0.0600 
    183 H183        1.4102   -8.3669  -48.4429 H         1 UNK         0.0600 
    184 H184        0.0565  -10.5144  -46.6756 H         1 UNK         0.3000 
    185 H185        1.9611  -11.4068  -43.8725 H         1 UNK         0.0600 
    186 H186        2.6110   -8.9978  -43.8465 H         1 UNK         0.0600 
    187 H187        0.9953   -8.5379  -44.3700 H         1 UNK         0.0600 
    188 H188        1.2373   -9.2876  -42.7912 H         1 UNK         0.0600 
    189 H189       -0.7020  -10.3111  -44.2917 H         1 UNK         0.3000 
    190 H190       -2.2433  -21.4283  -44.6941 H         1 UNK         0.3000 
    191 H191       -4.4831  -22.3793  -43.2391 H         1 UNK         0.0600 
    192 H192       -3.0056  -21.9938  -41.2553 H         1 UNK         0.0600 
    193 H193       -2.9504  -20.6423  -42.3766 H         1 UNK         0.0600 
    194 H194       -1.6187  -21.7955  -42.3207 H         1 UNK         0.0600 
    195 H195       -1.3877  -23.9593  -44.0603 H         1 UNK         0.3000 
    196 H196       -1.8958  -26.4056  -42.6188 H         1 UNK         0.0600 
    197 H197        0.0884  -27.2045  -43.8952 H         1 UNK         0.0600 
    198 H198        0.3931  -25.6183  -43.2070 H         1 UNK         0.0600 
    199 H199        0.0255  -25.7797  -44.9238 H         1 UNK         0.0600 
    200 H200       -3.3427  -25.1673  -45.4096 H         1 UNK         0.3000 
    201 H201       -4.6683  -25.8756  -47.0009 H         1 UNK         0.0600 
    202 H202       -5.8737  -27.0491  -45.1447 H         1 UNK         0.0600 
    203 H203       -4.9520  -28.5157  -45.4760 H         1 UNK         0.0600 
    204 H204       -6.0557  -27.8743  -46.6835 H         1 UNK         0.0600 
    205 H205       -1.8865  -26.1104  -47.4486 H         1 UNK         0.3000 
    206 H206       -1.3632  -28.5403  -49.0050 H         1 UNK         0.0600 
    207 H207        0.4386  -27.4313  -47.6956 H         1 UNK         0.0600 
    208 H208        0.8161  -27.4278  -49.4125 H         1 UNK         0.0600 
    209 H209        0.2448  -25.9566  -48.6384 H         1 UNK         0.0600 
    210 H210       -3.4054  -28.1320  -50.2250 H         1 UNK         0.3000 
    211 H211       -4.5893  -27.6549  -52.0493 H         1 UNK         0.0600 
    212 H212       -1.9135  -26.9970  -53.3985 H         1 UNK         0.0600 
    213 H213       -3.4167  -27.4130  -54.2099 H         1 UNK         0.0600 
    214 H214       -2.5940  -28.6145  -53.2301 H         1 UNK         0.0600 
    215 H215       -4.3419  -25.6065  -50.1319 H         1 UNK         0.3000 
    216 H216       -4.6566  -23.4620  -49.6378 H         1 UNK         0.0600 
    217 H217       -6.1316  -22.1085  -51.0784 H         1 UNK         0.0600 
    218 H218       -6.7265  -23.7584  -51.0065 H         1 UNK         0.0600 
    219 H219       -5.8702  -23.1911  -52.4392 H         1 UNK         0.0600 
    220 H220       -2.0795  -24.1723  -50.5781 H         1 UNK         0.3000 
    221 H221       -0.0961  -23.3854  -51.0849 H         1 UNK         0.0600 
    222 H222       -1.2604  -20.5519  -51.0439 H         1 UNK         0.0600 
    223 H223       -0.7097  -21.4348  -49.6345 H         1 UNK         0.0600 
    224 H224        0.4353  -20.9960  -50.8947 H         1 UNK         0.0600 
    225 H225       -1.9092  -24.2283  -53.1210 H         1 UNK         0.3000 
    226 H226       -2.2083  -24.4603  -55.2892 H         1 UNK         0.0600 
    227 H227       -0.5004  -23.8554  -56.9397 H         1 UNK         0.0600 
    228 H228        0.3094  -22.7911  -55.8020 H         1 UNK         0.0600 
    229 H229        0.2869  -24.5322  -55.5231 H         1 UNK         0.0600 
    230 H230       -3.6647  -22.6903  -53.9285 H         1 UNK         0.3000 
    231 H231       -5.1712  -21.0891  -53.9845 H         1 UNK         0.0600 
    232 H232       -5.8763  -22.0803  -56.1507 H         1 UNK         0.0600 
    233 H233       -4.7741  -21.0168  -57.0230 H         1 UNK         0.0600 
    234 H234       -6.1340  -20.3429  -56.1371 H         1 UNK         0.0600 
    235 H235       -3.2343  -20.0906  -52.7991 H         1 UNK         0.3000 
    236 H236       -2.8432  -17.3446  -53.8358 H         1 UNK         0.0600 
    237 H237       -0.7441  -18.6095  -54.4174 H         1 UNK         0.0600 
    238 H238       -0.4467  -17.3905  -53.1865 H         1 UNK         0.0600 
    239 H239       -0.5643  -19.0831  -52.7319 H         1 UNK         0.0600 
    240 H240       -2.2067  -15.8591  -52.1247 H         1 UNK         0.3000 
    241 H241       -3.2442  -16.6090  -49.4296 H         1 UNK         0.0600 
    242 H242       -0.3974  -15.2142  -47.8638 H         1 UNK         0.3800 
    243 H243       -1.9690  -15.9542  -47.6548 H         1 UNK         0.3800 
    244 H244       -3.9525  -14.1607  -49.2834 H         1 UNK         0.0800 
    245 H245       -3.5771  -13.9827  -50.9709 H         1 UNK         0.0800 
    246 H246       -6.4862  -14.1438  -48.7948 H         1 UNK         0.0800 
    247 H247       -7.5040  -15.4723  -49.2826 H         1 UNK         0.0800 
@<TRIPOS>BOND
     1    1    2 1    
     2    1  127 1    
     3    1  128 1    
     4    1  129 1    
     5    2    3 2    
     6    2    4 am   BACKBONE|DICT|INTERRES
     7    4    5 1    
     8    4  130 1    
     9    5    6 1    
    10    5   65 1    
    11    5  131 1    
    12    6    7 1    
    13    6  132 1    
    14    6  133 1    
    15    7    8 1    
    16    8    9 1    
    17    8  134 1    
    18    8  135 1    
    19    9   10 ar   
    20    9   14 ar   
    21   10   11 ar   
    22   10  136 1    
    23   11   12 ar   
    24   11  126 1    
    25   12   13 ar   
    26   12  137 1    
    27   13   14 ar   
    28   13   15 1    
    29   14  138 1    
    30   15   16 1    
    31   15  139 1    
    32   15  140 1    
    33   16   17 1    
    34   17   18 1    
    35   17  141 1    
    36   17  142 1    
    37   18   19 1    
    38   18   67 1    
    39   18  143 1    
    40   19   20 am   BACKBONE|DICT|INTERRES
    41   19  144 1    
    42   20   21 2    
    43   20   22 1    
    44   22   23 1    
    45   22   24 1    
    46   22  145 1    
    47   23  146 1    
    48   23  147 1    
    49   23  148 1    
    50   24   25 am   BACKBONE|DICT|INTERRES
    51   24  149 1    
    52   25   26 2    
    53   25   27 1    
    54   27   28 1    
    55   27   29 1    
    56   27  150 1    
    57   28  151 1    
    58   28  152 1    
    59   28  153 1    
    60   29   30 am   BACKBONE|DICT|INTERRES
    61   29  154 1    
    62   30   31 2    
    63   30   32 1    
    64   32   33 1    
    65   32   34 1    
    66   32  155 1    
    67   33  156 1    
    68   33  157 1    
    69   33  158 1    
    70   34   35 am   BACKBONE|DICT|INTERRES
    71   34  159 1    
    72   35   36 2    
    73   35   37 1    
    74   37   38 1    
    75   37   39 1    
    76   37  160 1    
    77   38  161 1    
    78   38  162 1    
    79   38  163 1    
    80   39   40 am   BACKBONE|DICT|INTERRES
    81   39  164 1    
    82   40   41 2    
    83   40   42 1    
    84   42   43 1    
    85   42   44 1    
    86   42  165 1    
    87   43  166 1    
    88   43  167 1    
    89   43  168 1    
    90   44   45 am   BACKBONE|DICT|INTERRES
    91   44  169 1    
    92   45   46 2    
    93   45   47 1    
    94   47   48 1    
    95   47   49 1    
    96   47  170 1    
    97   48  171 1    
    98   48  172 1    
    99   48  173 1    
   100   49   50 am   BACKBONE|DICT|INTERRES
   101   49  174 1    
   102   50   51 2    
   103   50   52 1    
   104   52   53 1    
   105   52   54 1    
   106   52  175 1    
   107   53  176 1    
   108   53  177 1    
   109   53  178 1    
   110   54   55 am   BACKBONE|DICT|INTERRES
   111   54  179 1    
   112   55   56 2    
   113   55   57 1    
   114   57   58 1    
   115   57   59 1    
   116   57  180 1    
   117   58  181 1    
   118   58  182 1    
   119   58  183 1    
   120   59   60 am   BACKBONE|DICT|INTERRES
   121   59  184 1    
   122   60   61 2    
   123   60   62 1    
   124   62   63 1    
   125   62   64 1    
   126   62  185 1    
   127   63  186 1    
   128   63  187 1    
   129   63  188 1    
   130   64   65 am   BACKBONE|DICT|INTERRES
   131   64  189 1    
   132   65   66 2    
   133   67   68 2    
   134   67   69 am   BACKBONE|DICT|INTERRES
   135   69   70 1    
   136   69  190 1    
   137   70   71 1    
   138   70   72 1    
   139   70  191 1    
   140   71  192 1    
   141   71  193 1    
   142   71  194 1    
   143   72   73 2    
   144   72   74 am   BACKBONE|DICT|INTERRES
   145   74   75 1    
   146   74  195 1    
   147   75   76 1    
   148   75   77 1    
   149   75  196 1    
   150   76  197 1    
   151   76  198 1    
   152   76  199 1    
   153   77   78 2    
   154   77   79 am   BACKBONE|DICT|INTERRES
   155   79   80 1    
   156   79  200 1    
   157   80   81 1    
   158   80   82 1    
   159   80  201 1    
   160   81  202 1    
   161   81  203 1    
   162   81  204 1    
   163   82   83 2    
   164   82   84 am   BACKBONE|DICT|INTERRES
   165   84   85 1    
   166   84  205 1    
   167   85   86 1    
   168   85   87 1    
   169   85  206 1    
   170   86  207 1    
   171   86  208 1    
   172   86  209 1    
   173   87   88 2    
   174   87   89 am   BACKBONE|DICT|INTERRES
   175   89   90 1    
   176   89  210 1    
   177   90   91 1    
   178   90   92 1    
   179   90  211 1    
   180   91  212 1    
   181   91  213 1    
   182   91  214 1    
   183   92   93 2    
   184   92   94 am   BACKBONE|DICT|INTERRES
   185   94   95 1    
   186   94  215 1    
   187   95   96 1    
   188   95   97 1    
   189   95  216 1    
   190   96  217 1    
   191   96  218 1    
   192   96  219 1    
   193   97   98 2    
   194   97   99 am   BACKBONE|DICT|INTERRES
   195   99  100 1    
   196   99  220 1    
   197  100  101 1    
   198  100  102 1    
   199  100  221 1    
   200  101  222 1    
   201  101  223 1    
   202  101  224 1    
   203  102  103 2    
   204  102  104 am   BACKBONE|DICT|INTERRES
   205  104  105 1    
   206  104  225 1    
   207  105  106 1    
   208  105  107 1    
   209  105  226 1    
   210  106  227 1    
   211  106  228 1    
   212  106  229 1    
   213  107  108 2    
   214  107  109 am   BACKBONE|DICT|INTERRES
   215  109  110 1    
   216  109  230 1    
   217  110  111 1    
   218  110  112 1    
   219  110  231 1    
   220  111  232 1    
   221  111  233 1    
   222  111  234 1    
   223  112  113 2    
   224  112  114 am   BACKBONE|DICT|INTERRES
   225  114  115 1    
   226  114  235 1    
   227  115  116 1    
   228  115  117 1    
   229  115  236 1    
   230  116  237 1    
   231  116  238 1    
   232  116  239 1    
   233  117  118 2    
   234  117  119 am   BACKBONE|DICT|INTERRES
   235  119  120 1    
   236  119  240 1    
   237  120  121 1    
   238  120  124 1    
   239  120  241 1    
   240  121  122 am   BACKBONE|DICT|INTERRES
   241  121  123 2    
   242  122  242 1    
   243  122  243 1    
   244  124  125 1    
   245  124  244 1    
   246  124  245 1    
   247  125  126 1    
   248  126  246 1    
   249  126  247 1    
@<TRIPOS>SUBSTRUCTURE
     1 UNK         1 GROUP             0       ****    0 ROOT    
