@<TRIPOS>MOLECULE
3R540
247   249    1
SMALL
USER_CHARGES


@<TRIPOS>ATOM
      1 CA          0.8195  -12.6083  -49.5911 C.3       0 UNK        -0.1800 
      2 C           1.4595  -13.2863  -48.3880 C.2       0 UNK         0.5000 
      3 O           0.7602  -13.6221  -47.4340 O.2       0 UNK        -0.5000 
      4 N           2.7869  -13.4726  -48.4300 N.am      1 UNK        -0.5000 
      5 CA          3.6081  -14.1768  -47.4305 C.3       1 UNK         0.1400 
      6 C6          3.3548  -15.7092  -47.3955 C.3       23 UNK        -0.0398 
      7 S7          3.6889  -16.5043  -49.0081 S.3       23 UNK        -0.2404 
      8 C8          2.3626  -17.7460  -49.1164 C.3       23 UNK        -0.0205 
      9 C9          1.1015  -17.2024  -49.7695 C.ar      23 UNK        -0.0193 
     10 C10         0.8542  -17.4336  -51.1246 C.ar      23 UNK        -0.1150 
     11 C11        -0.3353  -16.9968  -51.7145 C.ar      23 UNK        -0.0193 
     12 C12        -1.2782  -16.3138  -50.9412 C.ar      23 UNK        -0.1150 
     13 C13        -1.0433  -16.0706  -49.5848 C.ar      23 UNK        -0.0193 
     14 C14         0.1555  -16.5109  -49.0118 C.ar      23 UNK        -0.1150 
     15 C15        -2.0863  -15.3230  -48.7586 C.3       23 UNK        -0.0205 
     16 S16        -2.2631  -15.9427  -47.0513 S.3       23 UNK        -0.2404 
     17 C17        -3.0477  -17.5674  -47.3000 C.3       23 UNK        -0.0398 
     18 CA         -2.0701  -18.7449  -47.5599 C.3       11 UNK         0.1400 
     19 N          -1.0188  -18.9106  -46.5451 N.am      11 UNK        -0.5000 
     20 C          -0.0088  -19.7925  -46.6397 C.2       10 UNK         0.5000 
     21 O           0.1846  -20.5010  -47.6272 O.2       10 UNK        -0.5000 
     22 CA          0.8926  -19.9852  -45.4029 C.3       10 UNK         0.1400 
     23 CB          2.0199  -18.9415  -45.3386 C.3       10 UNK        -0.1800 
     24 N           0.1243  -19.9782  -44.1584 N.am      10 UNK        -0.5000 
     25 C          -0.7833  -20.9089  -43.8288 C.2       9 UNK         0.5000 
     26 O          -1.0035  -21.9140  -44.5025 O.2       9 UNK        -0.5000 
     27 CA         -1.6259  -20.6485  -42.5686 C.3       9 UNK         0.1400 
     28 CB         -0.9397  -21.2177  -41.3180 C.3       9 UNK        -0.1800 
     29 N          -1.9002  -19.2227  -42.3883 N.am      9 UNK        -0.5000 
     30 C          -2.7442  -18.5215  -43.1595 C.2       8 UNK         0.5000 
     31 O          -3.4242  -19.0248  -44.0552 O.2       8 UNK        -0.5000 
     32 CA         -2.8032  -16.9993  -42.9206 C.3       8 UNK         0.1400 
     33 CB         -3.8099  -16.6654  -41.8102 C.3       8 UNK        -0.1800 
     34 N          -1.5004  -16.4149  -42.5866 N.am      8 UNK        -0.5000 
     35 C          -0.4490  -16.3968  -43.4186 C.2       7 UNK         0.5000 
     36 O          -0.4771  -16.8668  -44.5521 O.2       7 UNK        -0.5000 
     37 CA          0.8770  -15.8349  -42.8730 C.3       7 UNK         0.1400 
     38 CB          0.9388  -14.3109  -43.0470 C.3       7 UNK        -0.1800 
     39 N           1.1355  -16.1803  -41.4712 N.am      7 UNK        -0.5000 
     40 C           1.1849  -17.4279  -40.9837 C.2       6 UNK         0.5000 
     41 O           1.0072  -18.4329  -41.6730 O.2       6 UNK        -0.5000 
     42 CA          1.5160  -17.5563  -39.4896 C.3       6 UNK         0.1400 
     43 CB          1.4846  -19.0102  -38.9840 C.3       6 UNK        -0.1800 
     44 N           2.8440  -16.9967  -39.2705 N.am      6 UNK        -0.5000 
     45 C           3.1705  -16.0914  -38.3414 C.2       5 UNK         0.5000 
     46 O           2.3840  -15.6566  -37.4993 O.2       5 UNK        -0.5000 
     47 CA          4.6231  -15.5729  -38.3640 C.3       5 UNK         0.1400 
     48 CB          5.4700  -16.3044  -37.3111 C.3       5 UNK        -0.1800 
     49 N           5.2720  -15.7054  -39.6734 N.am      5 UNK        -0.5000 
     50 C           4.9402  -14.9975  -40.7610 C.2       4 UNK         0.5000 
     51 O           4.0382  -14.1571  -40.7815 O.2       4 UNK        -0.5000 
     52 CA          5.7182  -15.3252  -42.0478 C.3       4 UNK         0.1400 
     53 CB          4.9827  -16.4047  -42.8571 C.3       4 UNK        -0.1800 
     54 N           5.8964  -14.1358  -42.8792 N.am      4 UNK        -0.5000 
     55 C           6.7603  -13.1475  -42.6009 C.2       3 UNK         0.5000 
     56 O           7.5429  -13.1810  -41.6497 O.2       3 UNK        -0.5000 
     57 CA          6.7776  -11.9201  -43.5362 C.3       3 UNK         0.1400 
     58 CB          7.9648  -12.0032  -44.5085 C.3       3 UNK        -0.1800 
     59 N           5.5479  -11.7604  -44.3107 N.am      3 UNK        -0.5000 
     60 C           4.3675  -11.3724  -43.8102 C.2       2 UNK         0.5000 
     61 O           4.2095  -11.0043  -42.6460 O.2       2 UNK        -0.5000 
     62 CA          3.1566  -11.4014  -44.7662 C.3       2 UNK         0.1400 
     63 CB          2.7615   -9.9752  -45.1796 C.3       2 UNK        -0.1800 
     64 N           3.3460  -12.2047  -45.9798 N.am      2 UNK        -0.5000 
     65 C           3.5454  -13.5308  -46.0244 C.2       1 UNK         0.5000 
     66 O           3.7039  -14.2209  -45.0169 O.2       1 UNK        -0.5000 
     67 C          -2.8785  -20.0404  -47.7539 C.2       11 UNK         0.5000 
     68 O          -3.0795  -20.4587  -48.8923 O.2       11 UNK        -0.5000 
     69 N          -3.3011  -20.6639  -46.6444 N.am      12 UNK        -0.5000 
     70 CA         -4.0552  -21.9198  -46.6390 C.3       12 UNK         0.1400 
     71 CB         -4.5474  -22.2103  -45.2135 C.3       12 UNK        -0.1800 
     72 C          -3.2629  -23.1181  -47.1977 C.2       12 UNK         0.5000 
     73 O          -3.8646  -24.0171  -47.7836 O.2       12 UNK        -0.5000 
     74 N          -1.9364  -23.1120  -47.0138 N.am      13 UNK        -0.5000 
     75 CA         -1.0198  -24.0962  -47.5832 C.3       13 UNK         0.1400 
     76 CB          0.3153  -24.0549  -46.8239 C.3       13 UNK        -0.1800 
     77 C          -0.8017  -23.8789  -49.0913 C.2       13 UNK         0.5000 
     78 O          -0.8274  -24.8488  -49.8494 O.2       13 UNK        -0.5000 
     79 N          -0.5855  -22.6193  -49.4983 N.am      14 UNK        -0.5000 
     80 CA         -0.3497  -22.2243  -50.8877 C.3       14 UNK         0.1400 
     81 CB          0.1716  -20.7815  -50.9285 C.3       14 UNK        -0.1800 
     82 C          -1.6016  -22.3934  -51.7661 C.2       14 UNK         0.5000 
     83 O          -1.5336  -23.0370  -52.8142 O.2       14 UNK        -0.5000 
     84 N          -2.7374  -21.8646  -51.2987 N.am      15 UNK        -0.5000 
     85 CA         -4.0580  -22.0779  -51.8767 C.3       15 UNK         0.1400 
     86 CB         -4.8737  -20.7760  -51.7914 C.3       15 UNK        -0.1800 
     87 C          -4.7210  -23.2557  -51.1468 C.2       15 UNK         0.5000 
     88 O          -5.6973  -23.0668  -50.4190 O.2       15 UNK        -0.5000 
     89 N          -4.1472  -24.4512  -51.3443 N.am      16 UNK        -0.5000 
     90 CA         -4.5919  -25.7316  -50.7938 C.3       16 UNK         0.1400 
     91 CB         -3.7106  -26.8551  -51.3602 C.3       16 UNK        -0.1800 
     92 C          -6.0803  -26.0011  -51.0799 C.2       16 UNK         0.5000 
     93 O          -6.4783  -26.0568  -52.2468 O.2       16 UNK        -0.5000 
     94 N          -6.8702  -26.0971  -50.0000 N.am      17 UNK        -0.5000 
     95 CA         -8.3315  -26.2461  -49.9780 C.3       17 UNK         0.1400 
     96 CB         -8.7354  -27.6389  -50.5054 C.3       17 UNK        -0.1800 
     97 C          -9.0824  -25.1022  -50.6985 C.2       17 UNK         0.5000 
     98 O         -10.1860  -25.3190  -51.2020 O.2       17 UNK        -0.5000 
     99 N          -8.4525  -23.9189  -50.7791 N.am      18 UNK        -0.5000 
    100 CA        -8.8195  -22.7132  -51.5332 C.3       18 UNK         0.1400 
    101 CB       -10.1870  -22.1555  -51.0966 C.3       18 UNK        -0.1800 
    102 C         -8.7461  -22.8894  -53.0634 C.2       18 UNK         0.5000 
    103 O         -8.2145  -22.0141  -53.7466 O.2       18 UNK        -0.5000 
    104 N         -9.2601  -24.0183  -53.5665 N.am      19 UNK        -0.5000 
    105 CA        -9.4136  -24.3787  -54.9759 C.3       19 UNK         0.1400 
    106 CB       -10.0916  -25.7548  -55.0580 C.3       19 UNK        -0.1800 
    107 C         -8.1163  -24.3726  -55.8052 C.2       19 UNK         0.5000 
    108 O         -8.1833  -24.1134  -57.0076 O.2       19 UNK        -0.5000 
    109 N         -6.9655  -24.6425  -55.1696 N.am      20 UNK        -0.5000 
    110 CA        -5.6513  -24.5846  -55.8173 C.3       20 UNK         0.1400 
    111 CB        -4.5987  -25.2291  -54.9073 C.3       20 UNK        -0.1800 
    112 C         -5.2251  -23.1537  -56.2026 C.2       20 UNK         0.5000 
    113 O         -4.4752  -22.9934  -57.1661 O.2       20 UNK        -0.5000 
    114 N         -5.7103  -22.1507  -55.4508 N.am      21 UNK        -0.5000 
    115 CA        -5.6022  -20.7061  -55.7002 C.3       21 UNK         0.1400 
    116 CB        -6.5851  -20.3117  -56.8212 C.3       21 UNK        -0.1800 
    117 C         -4.1700  -20.1822  -55.9616 C.2       21 UNK         0.5000 
    118 O         -3.9989  -19.2276  -56.7220 O.2       21 UNK        -0.5000 
    119 N         -3.1703  -20.8265  -55.3434 N.am      22 UNK        -0.5000 
    120 CA        -1.7277  -20.5910  -55.5425 C.3       22 UNK         0.1400 
    121 C         -1.1908  -21.0164  -56.9461 C.2       22 UNK         0.5000 
    122 N         -1.9164  -21.8021  -57.7332 N.am      22 UNK        -0.7600 
    123 O         -0.0783  -20.6573  -57.3232 O.2       22 UNK        -0.5000 
    124 C124       -1.2684  -19.1593  -55.1409 C.3       23 UNK        -0.0398 
    125 S125       -1.6210  -18.7662  -53.3962 S.3       23 UNK        -0.2404 
    126 C126       -0.6018  -17.2741  -53.1843 C.3       23 UNK        -0.0205 
    127 H127        0.2057  -11.7677  -49.2677 H         1 UNK         0.0600 
    128 H128        0.1813  -13.3149  -50.1215 H         1 UNK         0.0600 
    129 H129        1.5670  -12.2342  -50.2910 H         1 UNK         0.0600 
    130 H130        3.2911  -13.1645  -49.2497 H         1 UNK         0.3000 
    131 H131        4.6409  -14.0338  -47.7514 H         1 UNK         0.0600 
    132 H132        4.0067  -16.1916  -46.6652 H         1 UNK         0.0800 
    133 H133        2.3363  -15.9163  -47.0691 H         1 UNK         0.0800 
    134 H134        2.1284  -18.1322  -48.1259 H         1 UNK         0.0800 
    135 H135        2.7331  -18.5991  -49.6866 H         1 UNK         0.0800 
    136 H136        1.5791  -17.9745  -51.7164 H         1 UNK         0.1150 
    137 H137       -2.1994  -15.9800  -51.3978 H         1 UNK         0.1150 
    138 H138        0.3401  -16.3339  -47.9628 H         1 UNK         0.1150 
    139 H139       -1.7946  -14.2734  -48.7123 H         1 UNK         0.0800 
    140 H140       -3.0610  -15.3519  -49.2477 H         1 UNK         0.0800 
    141 H141       -3.7574  -17.4778  -48.1246 H         1 UNK         0.0800 
    142 H142       -3.6493  -17.7651  -46.4118 H         1 UNK         0.0800 
    143 H143       -1.5661  -18.5605  -48.5087 H         1 UNK         0.0600 
    144 H144       -1.0586  -18.2960  -45.7366 H         1 UNK         0.3000 
    145 H145        1.3608  -20.9685  -45.4838 H         1 UNK         0.0600 
    146 H146        2.5432  -18.9775  -44.3827 H         1 UNK         0.0600 
    147 H147        2.7604  -19.1302  -46.1157 H         1 UNK         0.0600 
    148 H148        1.6524  -17.9262  -45.4809 H         1 UNK         0.0600 
    149 H149        0.2691  -19.1976  -43.5289 H         1 UNK         0.3000 
    150 H150       -2.5799  -21.1655  -42.6899 H         1 UNK         0.0600 
    151 H151       -0.8307  -22.2999  -41.3981 H         1 UNK         0.0600 
    152 H152       -1.5216  -21.0152  -40.4188 H         1 UNK         0.0600 
    153 H153        0.0578  -20.8033  -41.1756 H         1 UNK         0.0600 
    154 H154       -1.3205  -18.7308  -41.7234 H         1 UNK         0.3000 
    155 H155       -3.1497  -16.5355  -43.8468 H         1 UNK         0.0600 
    156 H156       -3.5022  -17.0786  -40.8488 H         1 UNK         0.0600 
    157 H157       -4.7953  -17.0719  -42.0423 H         1 UNK         0.0600 
    158 H158       -3.9242  -15.5877  -41.6924 H         1 UNK         0.0600 
    159 H159       -1.3955  -16.0203  -41.6637 H         1 UNK         0.3000 
    160 H160        1.6778  -16.2736  -43.4707 H         1 UNK         0.0600 
    161 H161        0.1805  -13.8036  -42.4500 H         1 UNK         0.0600 
    162 H162        0.7809  -14.0325  -44.0904 H         1 UNK         0.0600 
    163 H163        1.9150  -13.9228  -42.7545 H         1 UNK         0.0600 
    164 H164        1.3346  -15.4102  -40.8483 H         1 UNK         0.3000 
    165 H165        0.7602  -16.9869  -38.9449 H         1 UNK         0.0600 
    166 H166        1.7237  -19.0613  -37.9218 H         1 UNK         0.0600 
    167 H167        0.4939  -19.4468  -39.1141 H         1 UNK         0.0600 
    168 H168        2.1974  -19.6400  -39.5178 H         1 UNK         0.0600 
    169 H169        3.5535  -17.2738  -39.9335 H         1 UNK         0.3000 
    170 H170        4.5959  -14.5125  -38.1040 H         1 UNK         0.0600 
    171 H171        5.0322  -16.2017  -36.3172 H         1 UNK         0.0600 
    172 H172        5.5477  -17.3708  -37.5266 H         1 UNK         0.0600 
    173 H173        6.4796  -15.8959  -37.2629 H         1 UNK         0.0600 
    174 H174        6.0218  -16.3795  -39.7351 H         1 UNK         0.3000 
    175 H175        6.7043  -15.7099  -41.7789 H         1 UNK         0.0600 
    176 H176        3.9750  -16.0870  -43.1223 H         1 UNK         0.0600 
    177 H177        5.5128  -16.6380  -43.7806 H         1 UNK         0.0600 
    178 H178        4.8940  -17.3312  -42.2888 H         1 UNK         0.0600 
    179 H179        5.2378  -14.0204  -43.6418 H         1 UNK         0.3000 
    180 H180        6.9084  -11.0337  -42.9120 H         1 UNK         0.0600 
    181 H181        7.8842  -12.8674  -45.1690 H         1 UNK         0.0600 
    182 H182        8.9079  -12.0906  -43.9674 H         1 UNK         0.0600 
    183 H183        8.0303  -11.1094  -45.1293 H         1 UNK         0.0600 
    184 H184        5.5834  -12.0336  -45.2813 H         1 UNK         0.3000 
    185 H185        2.3237  -11.8373  -44.2115 H         1 UNK         0.0600 
    186 H186        2.5733   -9.3510  -44.3050 H         1 UNK         0.0600 
    187 H187        3.5474   -9.4943  -45.7633 H         1 UNK         0.0600 
    188 H188        1.8498   -9.9757  -45.7773 H         1 UNK         0.0600 
    189 H189        3.2332  -11.7194  -46.8580 H         1 UNK         0.3000 
    190 H190       -3.1201  -20.2361  -45.7427 H         1 UNK         0.3000 
    191 H191       -4.9294  -21.7819  -47.2791 H         1 UNK         0.0600 
    192 H192       -3.7167  -22.3733  -44.5271 H         1 UNK         0.0600 
    193 H193       -5.1705  -23.1052  -45.1917 H         1 UNK         0.0600 
    194 H194       -5.1465  -21.3861  -44.8257 H         1 UNK         0.0600 
    195 H195       -1.5292  -22.3840  -46.4374 H         1 UNK         0.3000 
    196 H196       -1.4519  -25.0899  -47.4468 H         1 UNK         0.0600 
    197 H197        1.0098  -24.7991  -47.2154 H         1 UNK         0.0600 
    198 H198        0.1718  -24.2683  -45.7644 H         1 UNK         0.0600 
    199 H199        0.7976  -23.0807  -46.9049 H         1 UNK         0.0600 
    200 H200       -0.5375  -21.8786  -48.8042 H         1 UNK         0.3000 
    201 H201        0.4302  -22.8725  -51.2927 H         1 UNK         0.0600 
    202 H202        1.0859  -20.6747  -50.3448 H         1 UNK         0.0600 
    203 H203       -0.5597  -20.0757  -50.5316 H         1 UNK         0.0600 
    204 H204        0.4027  -20.4798  -51.9503 H         1 UNK         0.0600 
    205 H205       -2.7266  -21.3771  -50.4034 H         1 UNK         0.3000 
    206 H206       -3.9757  -22.3453  -52.9312 H         1 UNK         0.0600 
    207 H207       -4.3769  -19.9661  -52.3257 H         1 UNK         0.0600 
    208 H208       -5.8600  -20.9049  -52.2383 H         1 UNK         0.0600 
    209 H209       -5.0200  -20.4547  -50.7598 H         1 UNK         0.0600 
    210 H210       -3.3212  -24.4859  -51.9254 H         1 UNK         0.3000 
    211 H211       -4.4376  -25.6963  -49.7147 H         1 UNK         0.0600 
    212 H212       -3.7811  -26.9155  -52.4467 H         1 UNK         0.0600 
    213 H213       -4.0077  -27.8242  -50.9575 H         1 UNK         0.0600 
    214 H214       -2.6628  -26.7030  -51.1001 H         1 UNK         0.0600 
    215 H215       -6.4383  -25.9920  -49.0920 H         1 UNK         0.3000 
    216 H216       -8.6303  -26.1888  -48.9306 H         1 UNK         0.0600 
    217 H217       -9.8006  -27.8212  -50.3588 H         1 UNK         0.0600 
    218 H218       -8.1986  -28.4300  -49.9819 H         1 UNK         0.0600 
    219 H219       -8.5300  -27.7427  -51.5714 H         1 UNK         0.0600 
    220 H220       -7.5198  -23.8661  -50.3787 H         1 UNK         0.3000 
    221 H221       -8.0690  -21.9661  -51.2711 H         1 UNK         0.0600 
    222 H222      -11.0077  -22.8225  -51.3611 H         1 UNK         0.0600 
    223 H223      -10.2200  -21.9925  -50.0194 H         1 UNK         0.0600 
    224 H224      -10.3834  -21.1962  -51.5768 H         1 UNK         0.0600 
    225 H225       -9.6665  -24.6626  -52.8938 H         1 UNK         0.3000 
    226 H226      -10.0829  -23.6410  -55.4228 H         1 UNK         0.0600 
    227 H227      -11.0663  -25.7446  -54.5697 H         1 UNK         0.0600 
    228 H228      -10.2515  -26.0536  -56.0949 H         1 UNK         0.0600 
    229 H229       -9.4863  -26.5273  -54.5814 H         1 UNK         0.0600 
    230 H230       -6.9897  -24.8959  -54.1890 H         1 UNK         0.3000 
    231 H231       -5.7027  -25.1701  -56.7377 H         1 UNK         0.0600 
    232 H232       -4.8632  -26.2581  -54.6637 H         1 UNK         0.0600 
    233 H233       -4.4926  -24.6786  -53.9754 H         1 UNK         0.0600 
    234 H234       -3.6207  -25.2484  -55.3901 H         1 UNK         0.0600 
    235 H235       -6.3665  -22.3970  -54.7185 H         1 UNK         0.3000 
    236 H236       -5.9360  -20.2159  -54.7847 H         1 UNK         0.0600 
    237 H237       -6.2906  -20.7390  -57.7804 H         1 UNK         0.0600 
    238 H238       -7.5945  -20.6573  -56.5968 H         1 UNK         0.0600 
    239 H239       -6.6353  -19.2290  -56.9425 H         1 UNK         0.0600 
    240 H240       -3.4009  -21.6165  -54.7620 H         1 UNK         0.3000 
    241 H241       -1.2331  -21.2800  -54.8582 H         1 UNK         0.0600 
    242 H242       -1.5475  -22.0742  -58.6302 H         1 UNK         0.3800 
    243 H243       -2.8356  -22.1351  -57.4518 H         1 UNK         0.3800 
    244 H244       -1.7273  -18.4025  -55.7775 H         1 UNK         0.0800 
    245 H245       -0.1914  -19.0617  -55.2851 H         1 UNK         0.0800 
    246 H246       -1.1069  -16.4227  -53.6428 H         1 UNK         0.0800 
    247 H247        0.3458  -17.3910  -53.7121 H         1 UNK         0.0800 
@<TRIPOS>BOND
     1    1    2 1    
     2    1  127 1    
     3    1  128 1    
     4    1  129 1    
     5    2    3 2    
     6    2    4 am   BACKBONE|DICT|INTERRES
     7    4    5 1    
     8    4  130 1    
     9    5    6 1    
    10    5   65 1    
    11    5  131 1    
    12    6    7 1    
    13    6  132 1    
    14    6  133 1    
    15    7    8 1    
    16    8    9 1    
    17    8  134 1    
    18    8  135 1    
    19    9   10 ar   
    20    9   14 ar   
    21   10   11 ar   
    22   10  136 1    
    23   11   12 ar   
    24   11  126 1    
    25   12   13 ar   
    26   12  137 1    
    27   13   14 ar   
    28   13   15 1    
    29   14  138 1    
    30   15   16 1    
    31   15  139 1    
    32   15  140 1    
    33   16   17 1    
    34   17   18 1    
    35   17  141 1    
    36   17  142 1    
    37   18   19 1    
    38   18   67 1    
    39   18  143 1    
    40   19   20 am   BACKBONE|DICT|INTERRES
    41   19  144 1    
    42   20   21 2    
    43   20   22 1    
    44   22   23 1    
    45   22   24 1    
    46   22  145 1    
    47   23  146 1    
    48   23  147 1    
    49   23  148 1    
    50   24   25 am   BACKBONE|DICT|INTERRES
    51   24  149 1    
    52   25   26 2    
    53   25   27 1    
    54   27   28 1    
    55   27   29 1    
    56   27  150 1    
    57   28  151 1    
    58   28  152 1    
    59   28  153 1    
    60   29   30 am   BACKBONE|DICT|INTERRES
    61   29  154 1    
    62   30   31 2    
    63   30   32 1    
    64   32   33 1    
    65   32   34 1    
    66   32  155 1    
    67   33  156 1    
    68   33  157 1    
    69   33  158 1    
    70   34   35 am   BACKBONE|DICT|INTERRES
    71   34  159 1    
    72   35   36 2    
    73   35   37 1    
    74   37   38 1    
    75   37   39 1    
    76   37  160 1    
    77   38  161 1    
    78   38  162 1    
    79   38  163 1    
    80   39   40 am   BACKBONE|DICT|INTERRES
    81   39  164 1    
    82   40   41 2    
    83   40   42 1    
    84   42   43 1    
    85   42   44 1    
    86   42  165 1    
    87   43  166 1    
    88   43  167 1    
    89   43  168 1    
    90   44   45 am   BACKBONE|DICT|INTERRES
    91   44  169 1    
    92   45   46 2    
    93   45   47 1    
    94   47   48 1    
    95   47   49 1    
    96   47  170 1    
    97   48  171 1    
    98   48  172 1    
    99   48  173 1    
   100   49   50 am   BACKBONE|DICT|INTERRES
   101   49  174 1    
   102   50   51 2    
   103   50   52 1    
   104   52   53 1    
   105   52   54 1    
   106   52  175 1    
   107   53  176 1    
   108   53  177 1    
   109   53  178 1    
   110   54   55 am   BACKBONE|DICT|INTERRES
   111   54  179 1    
   112   55   56 2    
   113   55   57 1    
   114   57   58 1    
   115   57   59 1    
   116   57  180 1    
   117   58  181 1    
   118   58  182 1    
   119   58  183 1    
   120   59   60 am   BACKBONE|DICT|INTERRES
   121   59  184 1    
   122   60   61 2    
   123   60   62 1    
   124   62   63 1    
   125   62   64 1    
   126   62  185 1    
   127   63  186 1    
   128   63  187 1    
   129   63  188 1    
   130   64   65 am   BACKBONE|DICT|INTERRES
   131   64  189 1    
   132   65   66 2    
   133   67   68 2    
   134   67   69 am   BACKBONE|DICT|INTERRES
   135   69   70 1    
   136   69  190 1    
   137   70   71 1    
   138   70   72 1    
   139   70  191 1    
   140   71  192 1    
   141   71  193 1    
   142   71  194 1    
   143   72   73 2    
   144   72   74 am   BACKBONE|DICT|INTERRES
   145   74   75 1    
   146   74  195 1    
   147   75   76 1    
   148   75   77 1    
   149   75  196 1    
   150   76  197 1    
   151   76  198 1    
   152   76  199 1    
   153   77   78 2    
   154   77   79 am   BACKBONE|DICT|INTERRES
   155   79   80 1    
   156   79  200 1    
   157   80   81 1    
   158   80   82 1    
   159   80  201 1    
   160   81  202 1    
   161   81  203 1    
   162   81  204 1    
   163   82   83 2    
   164   82   84 am   BACKBONE|DICT|INTERRES
   165   84   85 1    
   166   84  205 1    
   167   85   86 1    
   168   85   87 1    
   169   85  206 1    
   170   86  207 1    
   171   86  208 1    
   172   86  209 1    
   173   87   88 2    
   174   87   89 am   BACKBONE|DICT|INTERRES
   175   89   90 1    
   176   89  210 1    
   177   90   91 1    
   178   90   92 1    
   179   90  211 1    
   180   91  212 1    
   181   91  213 1    
   182   91  214 1    
   183   92   93 2    
   184   92   94 am   BACKBONE|DICT|INTERRES
   185   94   95 1    
   186   94  215 1    
   187   95   96 1    
   188   95   97 1    
   189   95  216 1    
   190   96  217 1    
   191   96  218 1    
   192   96  219 1    
   193   97   98 2    
   194   97   99 am   BACKBONE|DICT|INTERRES
   195   99  100 1    
   196   99  220 1    
   197  100  101 1    
   198  100  102 1    
   199  100  221 1    
   200  101  222 1    
   201  101  223 1    
   202  101  224 1    
   203  102  103 2    
   204  102  104 am   BACKBONE|DICT|INTERRES
   205  104  105 1    
   206  104  225 1    
   207  105  106 1    
   208  105  107 1    
   209  105  226 1    
   210  106  227 1    
   211  106  228 1    
   212  106  229 1    
   213  107  108 2    
   214  107  109 am   BACKBONE|DICT|INTERRES
   215  109  110 1    
   216  109  230 1    
   217  110  111 1    
   218  110  112 1    
   219  110  231 1    
   220  111  232 1    
   221  111  233 1    
   222  111  234 1    
   223  112  113 2    
   224  112  114 am   BACKBONE|DICT|INTERRES
   225  114  115 1    
   226  114  235 1    
   227  115  116 1    
   228  115  117 1    
   229  115  236 1    
   230  116  237 1    
   231  116  238 1    
   232  116  239 1    
   233  117  118 2    
   234  117  119 am   BACKBONE|DICT|INTERRES
   235  119  120 1    
   236  119  240 1    
   237  120  121 1    
   238  120  124 1    
   239  120  241 1    
   240  121  122 am   BACKBONE|DICT|INTERRES
   241  121  123 2    
   242  122  242 1    
   243  122  243 1    
   244  124  125 1    
   245  124  244 1    
   246  124  245 1    
   247  125  126 1    
   248  126  246 1    
   249  126  247 1    
@<TRIPOS>SUBSTRUCTURE
     1 UNK         1 GROUP             0       ****    0 ROOT    
