@<TRIPOS>MOLECULE
3R540
247   249    1
SMALL
USER_CHARGES


@<TRIPOS>ATOM
      1 CA         -2.6541  -13.7312  -46.8627 C.3       0 UNK        -0.1800 
      2 C          -1.6281  -13.3740  -47.9260 C.2       0 UNK         0.5000 
      3 O          -1.8731  -12.4746  -48.7295 O.2       0 UNK        -0.5000 
      4 N          -0.4784  -14.0599  -47.9191 N.am      1 UNK        -0.5000 
      5 CA          0.6496  -13.8864  -48.8432 C.3       1 UNK         0.1400 
      6 C6          1.6998  -15.0096  -48.6665 C.3       23 UNK        -0.0398 
      7 S7          1.0165  -16.6678  -48.9860 S.3       23 UNK        -0.2404 
      8 C8          1.9058  -17.1076  -50.5079 C.3       23 UNK        -0.0205 
      9 C9          1.5705  -18.5248  -50.9329 C.ar      23 UNK        -0.0193 
     10 C10         0.5322  -18.7635  -51.8334 C.ar      23 UNK        -0.1150 
     11 C11         0.1995  -20.0679  -52.2088 C.ar      23 UNK        -0.0193 
     12 C12         0.9130  -21.1424  -51.6683 C.ar      23 UNK        -0.1150 
     13 C13         1.9579  -20.9133  -50.7664 C.ar      23 UNK        -0.0193 
     14 C14         2.2882  -19.6023  -50.4121 C.ar      23 UNK        -0.1150 
     15 C15         2.7276  -22.0750  -50.1578 C.3       23 UNK        -0.0205 
     16 S16         2.4900  -22.1597  -48.3549 S.3       23 UNK        -0.2404 
     17 C17         0.7232  -22.5990  -48.2457 C.3       23 UNK        -0.0398 
     18 CA          0.4882  -23.6244  -47.1169 C.3       11 UNK         0.1400 
     19 N           0.6257  -23.0325  -45.7836 N.am      11 UNK        -0.5000 
     20 C           0.7211  -23.7454  -44.6536 C.2       10 UNK         0.5000 
     21 O           0.7360  -24.9757  -44.6230 O.2       10 UNK        -0.5000 
     22 CA          0.7483  -22.9564  -43.3333 C.3       10 UNK         0.1400 
     23 CB          2.1405  -22.3618  -43.0747 C.3       10 UNK        -0.1800 
     24 N          -0.2627  -21.8991  -43.2969 N.am      10 UNK        -0.5000 
     25 C          -1.5846  -22.1199  -43.3449 C.2       9 UNK         0.5000 
     26 O          -2.0875  -23.2434  -43.3674 O.2       9 UNK        -0.5000 
     27 CA         -2.4993  -20.8842  -43.4217 C.3       9 UNK         0.1400 
     28 CB         -2.7322  -20.2951  -42.0229 C.3       9 UNK        -0.1800 
     29 N          -1.9902  -19.8455  -44.3192 N.am      9 UNK        -0.5000 
     30 C          -1.7973  -20.0028  -45.6370 C.2       8 UNK         0.5000 
     31 O          -2.0484  -21.0427  -46.2413 O.2       8 UNK        -0.5000 
     32 CA         -1.1637  -18.8258  -46.3998 C.3       8 UNK         0.1400 
     33 CB         -2.2001  -17.7382  -46.7115 C.3       8 UNK        -0.1800 
     34 N          -0.0356  -18.2433  -45.6762 N.am      8 UNK        -0.5000 
     35 C           1.0995  -18.9031  -45.4056 C.2       7 UNK         0.5000 
     36 O           1.3273  -20.0587  -45.7643 O.2       7 UNK        -0.5000 
     37 CA          2.1207  -18.1630  -44.5272 C.3       7 UNK         0.1400 
     38 CB          2.9099  -17.1326  -45.3483 C.3       7 UNK        -0.1800 
     39 N           1.4770  -17.5005  -43.3919 N.am      7 UNK        -0.5000 
     40 C           0.9128  -18.1506  -42.3634 C.2       6 UNK         0.5000 
     41 O           0.9036  -19.3759  -42.2513 O.2       6 UNK        -0.5000 
     42 CA          0.2093  -17.2902  -41.2977 C.3       6 UNK         0.1400 
     43 CB          1.2172  -16.8026  -40.2465 C.3       6 UNK        -0.1800 
     44 N          -0.4963  -16.1388  -41.8618 N.am      6 UNK        -0.5000 
     45 C          -1.5415  -16.2177  -42.6976 C.2       5 UNK         0.5000 
     46 O          -2.0317  -17.2777  -43.0820 O.2       5 UNK        -0.5000 
     47 CA         -2.1076  -14.8895  -43.2285 C.3       5 UNK         0.1400 
     48 CB         -3.2008  -14.3531  -42.2938 C.3       5 UNK        -0.1800 
     49 N          -1.0844  -13.8590  -43.4183 N.am      5 UNK        -0.5000 
     50 C          -0.0530  -13.9477  -44.2666 C.2       4 UNK         0.5000 
     51 O           0.1294  -14.9076  -45.0212 O.2       4 UNK        -0.5000 
     52 CA          0.9021  -12.7406  -44.2894 C.3       4 UNK         0.1400 
     53 CB          2.3357  -13.1489  -44.6675 C.3       4 UNK        -0.1800 
     54 N           0.3987  -11.7215  -45.2144 N.am      4 UNK        -0.5000 
     55 C          -0.5905  -10.8635  -44.9146 C.2       3 UNK         0.5000 
     56 O          -1.0903  -10.7954  -43.7902 O.2       3 UNK        -0.5000 
     57 CA         -1.1753   -9.9735  -46.0336 C.3       3 UNK         0.1400 
     58 CB         -1.3124   -8.4982  -45.6028 C.3       3 UNK        -0.1800 
     59 N          -0.5203  -10.1118  -47.3386 N.am      3 UNK        -0.5000 
     60 C           0.6589   -9.6175  -47.7459 C.2       2 UNK         0.5000 
     61 O           1.3865   -8.8988  -47.0598 O.2       2 UNK        -0.5000 
     62 CA          1.1000  -10.0634  -49.1603 C.3       2 UNK         0.1400 
     63 CB          2.5696   -9.7186  -49.4813 C.3       2 UNK        -0.1800 
     64 N           0.8293  -11.4914  -49.3835 N.am      2 UNK        -0.5000 
     65 C           1.2948  -12.5021  -48.6352 C.2       1 UNK         0.5000 
     66 O           2.1322  -12.3552  -47.7463 O.2       1 UNK        -0.5000 
     67 C          -0.8513  -24.3671  -47.2869 C.2       11 UNK         0.5000 
     68 O          -0.8519  -25.4623  -47.8471 O.2       11 UNK        -0.5000 
     69 N          -1.9505  -23.8070  -46.7608 N.am      12 UNK        -0.5000 
     70 CA         -3.2738  -24.4348  -46.7396 C.3       12 UNK         0.1400 
     71 CB         -4.3184  -23.4486  -46.1972 C.3       12 UNK        -0.1800 
     72 C          -3.3052  -25.7496  -45.9410 C.2       12 UNK         0.5000 
     73 O          -3.9477  -26.7050  -46.3762 O.2       12 UNK        -0.5000 
     74 N          -2.5944  -25.7826  -44.8059 N.am      13 UNK        -0.5000 
     75 CA         -2.4078  -26.9788  -43.9866 C.3       13 UNK         0.1400 
     76 CB         -1.8295  -26.5789  -42.6206 C.3       13 UNK        -0.1800 
     77 C          -1.5174  -28.0315  -44.6740 C.2       13 UNK         0.5000 
     78 O          -1.8105  -29.2241  -44.5797 O.2       13 UNK        -0.5000 
     79 N          -0.4525  -27.5766  -45.3493 N.am      14 UNK        -0.5000 
     80 CA          0.4970  -28.4240  -46.0702 C.3       14 UNK         0.1400 
     81 CB          1.7563  -27.6129  -46.4122 C.3       14 UNK        -0.1800 
     82 C          -0.0973  -29.0616  -47.3393 C.2       14 UNK         0.5000 
     83 O           0.1287  -30.2496  -47.5758 O.2       14 UNK        -0.5000 
     84 N          -0.8343  -28.2735  -48.1316 N.am      15 UNK        -0.5000 
     85 CA         -1.4334  -28.6996  -49.3922 C.3       15 UNK         0.1400 
     86 CB         -0.3888  -28.6504  -50.5258 C.3       15 UNK        -0.1800 
     87 C          -2.6794  -27.8602  -49.7049 C.2       15 UNK         0.5000 
     88 O          -3.7968  -28.3561  -49.5548 O.2       15 UNK        -0.5000 
     89 N          -2.4703  -26.6154  -50.1469 N.am      16 UNK        -0.5000 
     90 CA         -3.5024  -25.6687  -50.5538 C.3       16 UNK         0.1400 
     91 CB         -4.0910  -26.0728  -51.9197 C.3       16 UNK        -0.1800 
     92 C          -2.8949  -24.2606  -50.6300 C.2       16 UNK         0.5000 
     93 O          -1.6821  -24.1206  -50.8071 O.2       16 UNK        -0.5000 
     94 N          -3.7602  -23.2478  -50.5299 N.am      17 UNK        -0.5000 
     95 CA         -3.4300  -21.8369  -50.6971 C.3       17 UNK         0.1400 
     96 CB         -2.9744  -21.2253  -49.3609 C.3       17 UNK        -0.1800 
     97 C          -4.6646  -21.1496  -51.2945 C.2       17 UNK         0.5000 
     98 O          -5.4057  -20.4713  -50.5806 O.2       17 UNK        -0.5000 
     99 N          -4.9098  -21.4163  -52.5850 N.am      18 UNK        -0.5000 
    100 CA        -6.0588  -20.9326  -53.3550 C.3       18 UNK         0.1400 
    101 CB        -5.9723  -21.4879  -54.7858 C.3       18 UNK        -0.1800 
    102 C         -6.1498  -19.3951  -53.3620 C.2       18 UNK         0.5000 
    103 O         -5.2644  -18.7401  -53.9117 O.2       18 UNK        -0.5000 
    104 N         -7.1960  -18.8612  -52.7141 N.am      19 UNK        -0.5000 
    105 CA        -7.4448  -17.4337  -52.4660 C.3       19 UNK         0.1400 
    106 CB        -7.7190  -16.6860  -53.7882 C.3       19 UNK        -0.1800 
    107 C         -6.3428  -16.7593  -51.6158 C.2       19 UNK         0.5000 
    108 O         -6.1138  -15.5559  -51.7517 O.2       19 UNK        -0.5000 
    109 N         -5.6821  -17.5528  -50.7578 N.am      20 UNK        -0.5000 
    110 CA        -4.4954  -17.2408  -49.9607 C.3       20 UNK         0.1400 
    111 CB        -4.7562  -16.1137  -48.9399 C.3       20 UNK        -0.1800 
    112 C         -3.2743  -16.9786  -50.8578 C.2       20 UNK         0.5000 
    113 O         -2.4600  -17.8794  -51.0475 O.2       20 UNK        -0.5000 
    114 N         -3.1865  -15.7674  -51.4157 N.am      21 UNK        -0.5000 
    115 CA        -2.1653  -15.3541  -52.3698 C.3       21 UNK         0.1400 
    116 CB        -1.9844  -13.8296  -52.2656 C.3       21 UNK        -0.1800 
    117 C         -2.5647  -15.8024  -53.7884 C.2       21 UNK         0.5000 
    118 O         -3.1626  -15.0240  -54.5346 O.2       21 UNK        -0.5000 
    119 N         -2.2544  -17.0606  -54.1202 N.am      22 UNK        -0.5000 
    120 CA        -2.4599  -17.6620  -55.4482 C.3       22 UNK         0.1400 
    121 C         -1.6607  -16.9657  -56.5905 C.2       22 UNK         0.5000 
    122 N         -2.1360  -17.0541  -57.8261 N.am      22 UNK        -0.7600 
    123 O         -0.6042  -16.3733  -56.3787 O.2       22 UNK        -0.5000 
    124 C124       -2.2180  -19.1968  -55.4323 C.3       23 UNK        -0.0398 
    125 S125       -0.5594  -19.6903  -54.8415 S.3       23 UNK        -0.2404 
    126 C126       -0.9507  -20.3020  -53.1739 C.3       23 UNK        -0.0205 
    127 H127       -2.5922  -13.0352  -46.0268 H         1 UNK         0.0600 
    128 H128       -2.4948  -14.7404  -46.4864 H         1 UNK         0.0600 
    129 H129       -3.6615  -13.6792  -47.2753 H         1 UNK         0.0600 
    130 H130       -0.3184  -14.7334  -47.1794 H         1 UNK         0.3000 
    131 H131        0.2682  -13.9381  -49.8646 H         1 UNK         0.0600 
    132 H132        2.5552  -14.8368  -49.3219 H         1 UNK         0.0800 
    133 H133        2.0976  -15.0074  -47.6513 H         1 UNK         0.0800 
    134 H134        1.6473  -16.4020  -51.2990 H         1 UNK         0.0800 
    135 H135        2.9809  -17.0171  -50.3452 H         1 UNK         0.0800 
    136 H136       -0.0265  -17.9320  -52.2353 H         1 UNK         0.1150 
    137 H137        0.6492  -22.1548  -51.9413 H         1 UNK         0.1150 
    138 H138        3.0876  -19.4234  -49.7066 H         1 UNK         0.1150 
    139 H139        2.4354  -23.0239  -50.6104 H         1 UNK         0.0800 
    140 H140        3.7900  -21.9468  -50.3691 H         1 UNK         0.0800 
    141 H141        0.1406  -21.6912  -48.0806 H         1 UNK         0.0800 
    142 H142        0.4016  -23.0029  -49.2078 H         1 UNK         0.0800 
    143 H143        1.2628  -24.3890  -47.2058 H         1 UNK         0.0600 
    144 H144        0.6575  -22.0189  -45.7351 H         1 UNK         0.3000 
    145 H145        0.5257  -23.6568  -42.5256 H         1 UNK         0.0600 
    146 H146        2.1875  -21.8819  -42.0971 H         1 UNK         0.0600 
    147 H147        2.9062  -23.1383  -43.0929 H         1 UNK         0.0600 
    148 H148        2.4089  -21.6178  -43.8249 H         1 UNK         0.0600 
    149 H149        0.0770  -20.9452  -43.2300 H         1 UNK         0.3000 
    150 H150       -3.4641  -21.2113  -43.8137 H         1 UNK         0.0600 
    151 H151       -3.1313  -21.0486  -41.3428 H         1 UNK         0.0600 
    152 H152       -3.4487  -19.4743  -42.0551 H         1 UNK         0.0600 
    153 H153       -1.8075  -19.9159  -41.5877 H         1 UNK         0.0600 
    154 H154       -1.8050  -18.9372  -43.9004 H         1 UNK         0.3000 
    155 H155       -0.7874  -19.2124  -47.3499 H         1 UNK         0.0600 
    156 H156       -1.7754  -16.9711  -47.3591 H         1 UNK         0.0600 
    157 H157       -2.5663  -17.2541  -45.8060 H         1 UNK         0.0600 
    158 H158       -3.0609  -18.1622  -47.2291 H         1 UNK         0.0600 
    159 H159       -0.1422  -17.2981  -45.3334 H         1 UNK         0.3000 
    160 H160        2.8260  -18.9013  -44.1394 H         1 UNK         0.0600 
    161 H161        2.2620  -16.3463  -45.7333 H         1 UNK         0.0600 
    162 H162        3.3957  -17.6040  -46.2036 H         1 UNK         0.0600 
    163 H163        3.6883  -16.6612  -44.7484 H         1 UNK         0.0600 
    164 H164        1.3960  -16.4955  -43.4370 H         1 UNK         0.3000 
    165 H165       -0.5274  -17.9211  -40.7962 H         1 UNK         0.0600 
    166 H166        1.9658  -16.1393  -40.6816 H         1 UNK         0.0600 
    167 H167        0.7177  -16.2637  -39.4412 H         1 UNK         0.0600 
    168 H168        1.7460  -17.6427  -39.7942 H         1 UNK         0.0600 
    169 H169       -0.1604  -15.2240  -41.5996 H         1 UNK         0.3000 
    170 H170       -2.5636  -15.0968  -44.1970 H         1 UNK         0.0600 
    171 H171       -3.9891  -15.0932  -42.1497 H         1 UNK         0.0600 
    172 H172       -2.8025  -14.1008  -41.3102 H         1 UNK         0.0600 
    173 H173       -3.6678  -13.4587  -42.7069 H         1 UNK         0.0600 
    174 H174       -1.1983  -13.0035  -42.8904 H         1 UNK         0.3000 
    175 H175        0.9476  -12.3167  -43.2839 H         1 UNK         0.0600 
    176 H176        2.9855  -12.2783  -44.7578 H         1 UNK         0.0600 
    177 H177        2.7645  -13.7985  -43.9038 H         1 UNK         0.0600 
    178 H178        2.3756  -13.6958  -45.6081 H         1 UNK         0.0600 
    179 H179        0.7879  -11.7332  -46.1490 H         1 UNK         0.3000 
    180 H180       -2.1876  -10.3479  -46.1920 H         1 UNK         0.0600 
    181 H181       -1.7280   -7.8879  -46.4047 H         1 UNK         0.0600 
    182 H182       -1.9810   -8.4039  -44.7464 H         1 UNK         0.0600 
    183 H183       -0.3550   -8.0668  -45.3104 H         1 UNK         0.0600 
    184 H184       -1.0069  -10.7241  -47.9860 H         1 UNK         0.3000 
    185 H185        0.4720   -9.5146  -49.8635 H         1 UNK         0.0600 
    186 H186        2.8409  -10.0471  -50.4845 H         1 UNK         0.0600 
    187 H187        2.7345   -8.6415  -49.4373 H         1 UNK         0.0600 
    188 H188        3.2618  -10.1822  -48.7780 H         1 UNK         0.0600 
    189 H189        0.0908  -11.6945  -50.0441 H         1 UNK         0.3000 
    190 H190       -1.8878  -22.8695  -46.3688 H         1 UNK         0.3000 
    191 H191       -3.5404  -24.6712  -47.7689 H         1 UNK         0.0600 
    192 H192       -5.3163  -23.8882  -46.2173 H         1 UNK         0.0600 
    193 H193       -4.3543  -22.5381  -46.7930 H         1 UNK         0.0600 
    194 H194       -4.1072  -23.1647  -45.1669 H         1 UNK         0.0600 
    195 H195       -2.1494  -24.9298  -44.4812 H         1 UNK         0.3000 
    196 H196       -3.3877  -27.4305  -43.8180 H         1 UNK         0.0600 
    197 H197       -1.7021  -27.4520  -41.9795 H         1 UNK         0.0600 
    198 H198       -2.4918  -25.8864  -42.1007 H         1 UNK         0.0600 
    199 H199       -0.8560  -26.0979  -42.7186 H         1 UNK         0.0600 
    200 H200       -0.2465  -26.5831  -45.3229 H         1 UNK         0.3000 
    201 H201        0.7952  -29.2343  -45.4015 H         1 UNK         0.0600 
    202 H202        2.2254  -27.2136  -45.5129 H         1 UNK         0.0600 
    203 H203        1.5288  -26.7757  -47.0718 H         1 UNK         0.0600 
    204 H204        2.4964  -28.2354  -46.9163 H         1 UNK         0.0600 
    205 H205       -0.9637  -27.2938  -47.8821 H         1 UNK         0.3000 
    206 H206       -1.7737  -29.7327  -49.2920 H         1 UNK         0.0600 
    207 H207        0.3999  -29.3854  -50.3648 H         1 UNK         0.0600 
    208 H208       -0.8463  -28.8742  -51.4903 H         1 UNK         0.0600 
    209 H209        0.0840  -27.6706  -50.6019 H         1 UNK         0.0600 
    210 H210       -1.5299  -26.2390  -50.1769 H         1 UNK         0.3000 
    211 H211       -4.2949  -25.6675  -49.8028 H         1 UNK         0.0600 
    212 H212       -3.3188  -26.1208  -52.6885 H         1 UNK         0.0600 
    213 H213       -4.8425  -25.3562  -52.2533 H         1 UNK         0.0600 
    214 H214       -4.5774  -27.0471  -51.8743 H         1 UNK         0.0600 
    215 H215       -4.7448  -23.4462  -50.4129 H         1 UNK         0.3000 
    216 H216       -2.6132  -21.7372  -51.4113 H         1 UNK         0.0600 
    217 H217       -2.6681  -20.1873  -49.4921 H         1 UNK         0.0600 
    218 H218       -2.1207  -21.7646  -48.9536 H         1 UNK         0.0600 
    219 H219       -3.7670  -21.2421  -48.6138 H         1 UNK         0.0600 
    220 H220       -4.2608  -22.0042  -53.0864 H         1 UNK         0.3000 
    221 H221       -6.9607  -21.3375  -52.8913 H         1 UNK         0.0600 
    222 H222       -5.0616  -21.1639  -55.2911 H         1 UNK         0.0600 
    223 H223       -5.9880  -22.5779  -54.7884 H         1 UNK         0.0600 
    224 H224       -6.8179  -21.1502  -55.3864 H         1 UNK         0.0600 
    225 H225       -7.8525  -19.4918  -52.2749 H         1 UNK         0.3000 
    226 H226       -8.3553  -17.3842  -51.8673 H         1 UNK         0.0600 
    227 H227       -8.4933  -17.1848  -54.3710 H         1 UNK         0.0600 
    228 H228       -8.0629  -15.6687  -53.5981 H         1 UNK         0.0600 
    229 H229       -6.8243  -16.6158  -54.4077 H         1 UNK         0.0600 
    230 H230       -5.9189  -18.5405  -50.7614 H         1 UNK         0.3000 
    231 H231       -4.2737  -18.1447  -49.3916 H         1 UNK         0.0600 
    232 H232       -3.8667  -15.9315  -48.3387 H         1 UNK         0.0600 
    233 H233       -5.5594  -16.3858  -48.2554 H         1 UNK         0.0600 
    234 H234       -5.0268  -15.1685  -49.4097 H         1 UNK         0.0600 
    235 H235       -3.9792  -15.1471  -51.3075 H         1 UNK         0.3000 
    236 H236       -1.2116  -15.8189  -52.1112 H         1 UNK         0.0600 
    237 H237       -1.6664  -13.5394  -51.2652 H         1 UNK         0.0600 
    238 H238       -1.2248  -13.4786  -52.9650 H         1 UNK         0.0600 
    239 H239       -2.9091  -13.2946  -52.4858 H         1 UNK         0.0600 
    240 H240       -1.8062  -17.6488  -53.4333 H         1 UNK         0.3000 
    241 H241       -3.5156  -17.5097  -55.6812 H         1 UNK         0.0600 
    242 H242       -2.9990  -17.5338  -58.0311 H         1 UNK         0.3800 
    243 H243       -1.6245  -16.6183  -58.5780 H         1 UNK         0.3800 
    244 H244       -2.9762  -19.6789  -54.8155 H         1 UNK         0.0800 
    245 H245       -2.3617  -19.6156  -56.4296 H         1 UNK         0.0800 
    246 H246       -1.1939  -21.3631  -53.2425 H         1 UNK         0.0800 
    247 H247       -1.8369  -19.8009  -52.7835 H         1 UNK         0.0800 
@<TRIPOS>BOND
     1    1    2 1    
     2    1  127 1    
     3    1  128 1    
     4    1  129 1    
     5    2    3 2    
     6    2    4 am   BACKBONE|DICT|INTERRES
     7    4    5 1    
     8    4  130 1    
     9    5    6 1    
    10    5   65 1    
    11    5  131 1    
    12    6    7 1    
    13    6  132 1    
    14    6  133 1    
    15    7    8 1    
    16    8    9 1    
    17    8  134 1    
    18    8  135 1    
    19    9   10 ar   
    20    9   14 ar   
    21   10   11 ar   
    22   10  136 1    
    23   11   12 ar   
    24   11  126 1    
    25   12   13 ar   
    26   12  137 1    
    27   13   14 ar   
    28   13   15 1    
    29   14  138 1    
    30   15   16 1    
    31   15  139 1    
    32   15  140 1    
    33   16   17 1    
    34   17   18 1    
    35   17  141 1    
    36   17  142 1    
    37   18   19 1    
    38   18   67 1    
    39   18  143 1    
    40   19   20 am   BACKBONE|DICT|INTERRES
    41   19  144 1    
    42   20   21 2    
    43   20   22 1    
    44   22   23 1    
    45   22   24 1    
    46   22  145 1    
    47   23  146 1    
    48   23  147 1    
    49   23  148 1    
    50   24   25 am   BACKBONE|DICT|INTERRES
    51   24  149 1    
    52   25   26 2    
    53   25   27 1    
    54   27   28 1    
    55   27   29 1    
    56   27  150 1    
    57   28  151 1    
    58   28  152 1    
    59   28  153 1    
    60   29   30 am   BACKBONE|DICT|INTERRES
    61   29  154 1    
    62   30   31 2    
    63   30   32 1    
    64   32   33 1    
    65   32   34 1    
    66   32  155 1    
    67   33  156 1    
    68   33  157 1    
    69   33  158 1    
    70   34   35 am   BACKBONE|DICT|INTERRES
    71   34  159 1    
    72   35   36 2    
    73   35   37 1    
    74   37   38 1    
    75   37   39 1    
    76   37  160 1    
    77   38  161 1    
    78   38  162 1    
    79   38  163 1    
    80   39   40 am   BACKBONE|DICT|INTERRES
    81   39  164 1    
    82   40   41 2    
    83   40   42 1    
    84   42   43 1    
    85   42   44 1    
    86   42  165 1    
    87   43  166 1    
    88   43  167 1    
    89   43  168 1    
    90   44   45 am   BACKBONE|DICT|INTERRES
    91   44  169 1    
    92   45   46 2    
    93   45   47 1    
    94   47   48 1    
    95   47   49 1    
    96   47  170 1    
    97   48  171 1    
    98   48  172 1    
    99   48  173 1    
   100   49   50 am   BACKBONE|DICT|INTERRES
   101   49  174 1    
   102   50   51 2    
   103   50   52 1    
   104   52   53 1    
   105   52   54 1    
   106   52  175 1    
   107   53  176 1    
   108   53  177 1    
   109   53  178 1    
   110   54   55 am   BACKBONE|DICT|INTERRES
   111   54  179 1    
   112   55   56 2    
   113   55   57 1    
   114   57   58 1    
   115   57   59 1    
   116   57  180 1    
   117   58  181 1    
   118   58  182 1    
   119   58  183 1    
   120   59   60 am   BACKBONE|DICT|INTERRES
   121   59  184 1    
   122   60   61 2    
   123   60   62 1    
   124   62   63 1    
   125   62   64 1    
   126   62  185 1    
   127   63  186 1    
   128   63  187 1    
   129   63  188 1    
   130   64   65 am   BACKBONE|DICT|INTERRES
   131   64  189 1    
   132   65   66 2    
   133   67   68 2    
   134   67   69 am   BACKBONE|DICT|INTERRES
   135   69   70 1    
   136   69  190 1    
   137   70   71 1    
   138   70   72 1    
   139   70  191 1    
   140   71  192 1    
   141   71  193 1    
   142   71  194 1    
   143   72   73 2    
   144   72   74 am   BACKBONE|DICT|INTERRES
   145   74   75 1    
   146   74  195 1    
   147   75   76 1    
   148   75   77 1    
   149   75  196 1    
   150   76  197 1    
   151   76  198 1    
   152   76  199 1    
   153   77   78 2    
   154   77   79 am   BACKBONE|DICT|INTERRES
   155   79   80 1    
   156   79  200 1    
   157   80   81 1    
   158   80   82 1    
   159   80  201 1    
   160   81  202 1    
   161   81  203 1    
   162   81  204 1    
   163   82   83 2    
   164   82   84 am   BACKBONE|DICT|INTERRES
   165   84   85 1    
   166   84  205 1    
   167   85   86 1    
   168   85   87 1    
   169   85  206 1    
   170   86  207 1    
   171   86  208 1    
   172   86  209 1    
   173   87   88 2    
   174   87   89 am   BACKBONE|DICT|INTERRES
   175   89   90 1    
   176   89  210 1    
   177   90   91 1    
   178   90   92 1    
   179   90  211 1    
   180   91  212 1    
   181   91  213 1    
   182   91  214 1    
   183   92   93 2    
   184   92   94 am   BACKBONE|DICT|INTERRES
   185   94   95 1    
   186   94  215 1    
   187   95   96 1    
   188   95   97 1    
   189   95  216 1    
   190   96  217 1    
   191   96  218 1    
   192   96  219 1    
   193   97   98 2    
   194   97   99 am   BACKBONE|DICT|INTERRES
   195   99  100 1    
   196   99  220 1    
   197  100  101 1    
   198  100  102 1    
   199  100  221 1    
   200  101  222 1    
   201  101  223 1    
   202  101  224 1    
   203  102  103 2    
   204  102  104 am   BACKBONE|DICT|INTERRES
   205  104  105 1    
   206  104  225 1    
   207  105  106 1    
   208  105  107 1    
   209  105  226 1    
   210  106  227 1    
   211  106  228 1    
   212  106  229 1    
   213  107  108 2    
   214  107  109 am   BACKBONE|DICT|INTERRES
   215  109  110 1    
   216  109  230 1    
   217  110  111 1    
   218  110  112 1    
   219  110  231 1    
   220  111  232 1    
   221  111  233 1    
   222  111  234 1    
   223  112  113 2    
   224  112  114 am   BACKBONE|DICT|INTERRES
   225  114  115 1    
   226  114  235 1    
   227  115  116 1    
   228  115  117 1    
   229  115  236 1    
   230  116  237 1    
   231  116  238 1    
   232  116  239 1    
   233  117  118 2    
   234  117  119 am   BACKBONE|DICT|INTERRES
   235  119  120 1    
   236  119  240 1    
   237  120  121 1    
   238  120  124 1    
   239  120  241 1    
   240  121  122 am   BACKBONE|DICT|INTERRES
   241  121  123 2    
   242  122  242 1    
   243  122  243 1    
   244  124  125 1    
   245  124  244 1    
   246  124  245 1    
   247  125  126 1    
   248  126  246 1    
   249  126  247 1    
@<TRIPOS>SUBSTRUCTURE
     1 UNK         1 GROUP             0       ****    0 ROOT    
