@<TRIPOS>MOLECULE
3R540
247   249    1
SMALL
USER_CHARGES


@<TRIPOS>ATOM
      1 CA          0.5949  -15.1531  -47.6404 C.3       0 UNK        -0.1800 
      2 C           1.4043  -14.0237  -48.2517 C.2       0 UNK         0.5000 
      3 O           1.4420  -12.9251  -47.6992 O.2       0 UNK        -0.5000 
      4 N           2.0885  -14.2963  -49.3694 N.am      1 UNK        -0.5000 
      5 CA          2.9663  -13.3591  -50.0863 C.3       1 UNK         0.1400 
      6 C6          3.2590  -13.8104  -51.5409 C.3       23 UNK        -0.0398 
      7 S7          3.7292  -15.5698  -51.7244 S.3       23 UNK        -0.2404 
      8 C8          2.4028  -16.2061  -52.8049 C.3       23 UNK        -0.0205 
      9 C9          1.1904  -16.6861  -52.0180 C.ar      23 UNK        -0.0193 
     10 C10         0.2496  -15.7760  -51.5301 C.ar      23 UNK        -0.1150 
     11 C11        -0.8614  -16.2170  -50.8051 C.ar      23 UNK        -0.0193 
     12 C12        -1.0338  -17.5864  -50.5785 C.ar      23 UNK        -0.1150 
     13 C13        -0.1205  -18.5113  -51.0922 C.ar      23 UNK        -0.0193 
     14 C14         0.9922  -18.0525  -51.8035 C.ar      23 UNK        -0.1150 
     15 C15        -0.3448  -20.0070  -50.9169 C.3       23 UNK        -0.0205 
     16 S16         0.9791  -20.7868  -49.9430 S.3       23 UNK        -0.2404 
     17 C17         0.4405  -20.4515  -48.2334 C.3       23 UNK        -0.0398 
     18 CA          0.1714  -21.7615  -47.4537 C.3       11 UNK         0.1400 
     19 N           0.3029  -21.5869  -46.0066 N.am      11 UNK        -0.5000 
     20 C           0.3634  -22.5954  -45.1260 C.2       10 UNK         0.5000 
     21 O           0.3443  -23.7828  -45.4470 O.2       10 UNK        -0.5000 
     22 CA          0.4088  -22.2212  -43.6346 C.3       10 UNK         0.1400 
     23 CB          1.8344  -21.8381  -43.2123 C.3       10 UNK        -0.1800 
     24 N          -0.5210  -21.1435  -43.2950 N.am      10 UNK        -0.5000 
     25 C          -1.8542  -21.2323  -43.4104 C.2       9 UNK         0.5000 
     26 O          -2.4413  -22.2490  -43.7798 O.2       9 UNK        -0.5000 
     27 CA         -2.6673  -19.9612  -43.1092 C.3       9 UNK         0.1400 
     28 CB         -2.8186  -19.7532  -41.5951 C.3       9 UNK        -0.1800 
     29 N          -2.0866  -18.7631  -43.7141 N.am      9 UNK        -0.5000 
     30 C          -1.9321  -18.5679  -45.0317 C.2       8 UNK         0.5000 
     31 O          -2.2925  -19.3686  -45.8947 O.2       8 UNK        -0.5000 
     32 CA         -1.1913  -17.2861  -45.4504 C.3       8 UNK         0.1400 
     33 CB         -2.1047  -16.0560  -45.3286 C.3       8 UNK        -0.1800 
     34 N           0.0313  -17.0787  -44.6717 N.am      8 UNK        -0.5000 
     35 C           1.0770  -17.9189  -44.6694 C.2       7 UNK         0.5000 
     36 O           1.1413  -18.9325  -45.3620 O.2       7 UNK        -0.5000 
     37 CA          2.2219  -17.6051  -43.6941 C.3       7 UNK         0.1400 
     38 CB          3.1916  -16.5799  -44.2984 C.3       7 UNK        -0.1800 
     39 N           1.7237  -17.1310  -42.4036 N.am      7 UNK        -0.5000 
     40 C           1.0628  -17.9008  -41.5258 C.2       6 UNK         0.5000 
     41 O           0.8455  -19.0999  -41.6945 O.2       6 UNK        -0.5000 
     42 CA          0.5076  -17.1999  -40.2734 C.3       6 UNK         0.1400 
     43 CB          1.5931  -17.0762  -39.1940 C.3       6 UNK        -0.1800 
     44 N          -0.0326  -15.8743  -40.5747 N.am      6 UNK        -0.5000 
     45 C          -1.1026  -15.6493  -41.3507 C.2       5 UNK         0.5000 
     46 O          -1.7876  -16.5436  -41.8460 O.2       5 UNK        -0.5000 
     47 CA         -1.4261  -14.1779  -41.6674 C.3       5 UNK         0.1400 
     48 CB         -2.3702  -13.5919  -40.6075 C.3       5 UNK        -0.1800 
     49 N          -0.2243  -13.3438  -41.7656 N.am      5 UNK        -0.5000 
     50 C           0.6998  -13.4617  -42.7275 C.2       4 UNK         0.5000 
     51 O           0.6335  -14.2828  -43.6461 O.2       4 UNK        -0.5000 
     52 CA          1.9246  -12.5472  -42.6151 C.3       4 UNK         0.1400 
     53 CB          3.0987  -13.2821  -41.9462 C.3       4 UNK        -0.1800 
     54 N           2.3107  -12.1066  -43.9502 N.am      4 UNK        -0.5000 
     55 C           2.8735  -10.9260  -44.2326 C.2       3 UNK         0.5000 
     56 O           3.1999  -10.1023  -43.3753 O.2       3 UNK        -0.5000 
     57 CA          3.0890  -10.6233  -45.7272 C.3       3 UNK         0.1400 
     58 CB          3.7844   -9.2708  -45.9938 C.3       3 UNK        -0.1800 
     59 N           3.7628  -11.7205  -46.4258 N.am      3 UNK        -0.5000 
     60 C           5.0309  -12.1410  -46.2830 C.2       2 UNK         0.5000 
     61 O           5.8331  -11.6416  -45.4935 O.2       2 UNK        -0.5000 
     62 CA          5.4955  -13.3216  -47.1696 C.3       2 UNK         0.1400 
     63 CB          5.7918  -14.5578  -46.3070 C.3       2 UNK        -0.1800 
     64 N           4.5214  -13.6940  -48.1983 N.am      2 UNK        -0.5000 
     65 C           4.2495  -12.9860  -49.3044 C.2       1 UNK         0.5000 
     66 O           4.9285  -12.0284  -49.6770 O.2       1 UNK        -0.5000 
     67 C          -1.1771  -22.4077  -47.8342 C.2       11 UNK         0.5000 
     68 O          -1.1927  -23.3319  -48.6459 O.2       11 UNK        -0.5000 
     69 N          -2.2746  -21.9621  -47.2049 N.am      12 UNK        -0.5000 
     70 CA         -3.6086  -22.5456  -47.3667 C.3       12 UNK         0.1400 
     71 CB         -4.6460  -21.6768  -46.6414 C.3       12 UNK        -0.1800 
     72 C          -3.6847  -24.0076  -46.8865 C.2       12 UNK         0.5000 
     73 O          -4.3062  -24.8334  -47.5568 O.2       12 UNK        -0.5000 
     74 N          -3.0238  -24.3111  -45.7602 N.am      13 UNK        -0.5000 
     75 CA         -2.8860  -25.6632  -45.2195 C.3       13 UNK         0.1400 
     76 CB         -2.2906  -25.6035  -43.8050 C.3       13 UNK        -0.1800 
     77 C          -2.0523  -26.5786  -46.1341 C.2       13 UNK         0.5000 
     78 O          -2.4704  -27.7055  -46.3992 O.2       13 UNK        -0.5000 
     79 N          -0.9203  -26.0688  -46.6419 N.am      14 UNK        -0.5000 
     80 CA         -0.0485  -26.7551  -47.6012 C.3       14 UNK         0.1400 
     81 CB          1.2363  -25.9385  -47.8054 C.3       14 UNK        -0.1800 
     82 C          -0.7382  -27.0312  -48.9512 C.2       14 UNK         0.5000 
     83 O          -0.5180  -28.0878  -49.5439 O.2       14 UNK        -0.5000 
     84 N          -1.5955  -26.0985  -49.3858 N.am      15 UNK        -0.5000 
     85 CA         -2.4636  -26.2223  -50.5573 C.3       15 UNK         0.1400 
     86 CB         -2.9270  -24.8173  -50.9791 C.3       15 UNK        -0.1800 
     87 C          -3.6795  -27.1467  -50.3329 C.2       15 UNK         0.5000 
     88 O          -4.4234  -27.3846  -51.2830 O.2       15 UNK        -0.5000 
     89 N          -3.8849  -27.6311  -49.0980 N.am      16 UNK        -0.5000 
     90 CA         -4.9926  -28.4821  -48.6501 C.3       16 UNK         0.1400 
     91 CB         -4.9090  -29.8783  -49.3015 C.3       16 UNK        -0.1800 
     92 C          -6.3687  -27.8065  -48.8276 C.2       16 UNK         0.5000 
     93 O          -7.3304  -28.4534  -49.2461 O.2       16 UNK        -0.5000 
     94 N          -6.4204  -26.5035  -48.5140 N.am      17 UNK        -0.5000 
     95 CA         -7.5733  -25.6024  -48.6074 C.3       17 UNK         0.1400 
     96 CB         -8.7254  -26.0676  -47.6918 C.3       17 UNK        -0.1800 
     97 C          -8.0358  -25.3045  -50.0509 C.2       17 UNK         0.5000 
     98 O          -9.1505  -24.8127  -50.2396 O.2       17 UNK        -0.5000 
     99 N          -7.1722  -25.5611  -51.0443 N.am      18 UNK        -0.5000 
    100 CA        -7.3484  -25.1152  -52.4279 C.3       18 UNK         0.1400 
    101 CB        -6.4253  -25.9354  -53.3435 C.3       18 UNK        -0.1800 
    102 C         -7.0703  -23.6039  -52.5729 C.2       18 UNK         0.5000 
    103 O         -6.6024  -22.9621  -51.6276 O.2       18 UNK        -0.5000 
    104 N         -7.3659  -23.0627  -53.7623 N.am      19 UNK        -0.5000 
    105 CA        -7.1751  -21.6554  -54.1193 C.3       19 UNK         0.1400 
    106 CB        -7.6821  -21.4261  -55.5516 C.3       19 UNK        -0.1800 
    107 C         -5.7100  -21.1944  -53.9820 C.2       19 UNK         0.5000 
    108 O         -4.8006  -21.8793  -54.4574 O.2       19 UNK        -0.5000 
    109 N         -5.5223  -20.0407  -53.3337 N.am      20 UNK        -0.5000 
    110 CA        -4.2290  -19.3980  -53.1153 C.3       20 UNK         0.1400 
    111 CB        -4.3950  -18.3701  -51.9872 C.3       20 UNK        -0.1800 
    112 C         -3.6942  -18.7166  -54.3891 C.2       20 UNK         0.5000 
    113 O         -4.4637  -18.4323  -55.3108 O.2       20 UNK        -0.5000 
    114 N         -2.3829  -18.4417  -54.4039 N.am      21 UNK        -0.5000 
    115 CA        -1.7115  -17.7220  -55.4895 C.3       21 UNK         0.1400 
    116 CB        -0.2007  -17.9875  -55.4171 C.3       21 UNK        -0.1800 
    117 C         -1.9990  -16.2074  -55.4712 C.2       21 UNK         0.5000 
    118 O         -1.9726  -15.5766  -56.5291 O.2       21 UNK        -0.5000 
    119 N         -2.2681  -15.6530  -54.2819 N.am      22 UNK        -0.5000 
    120 CA        -2.7227  -14.2699  -54.0842 C.3       22 UNK         0.1400 
    121 C         -4.1745  -14.0239  -54.5890 C.2       22 UNK         0.5000 
    122 N         -4.4961  -12.7999  -54.9871 N.am      22 UNK        -0.7600 
    123 O         -5.0206  -14.9152  -54.5964 O.2       22 UNK        -0.5000 
    124 C124       -2.5371  -13.8006  -52.6163 C.3       23 UNK        -0.0398 
    125 S125       -3.2637  -14.9146  -51.3590 S.3       23 UNK        -0.2404 
    126 C126       -1.8587  -15.2150  -50.2400 C.3       23 UNK        -0.0205 
    127 H127       -0.4631  -14.8971  -47.6470 H         1 UNK         0.0600 
    128 H128        0.7272  -16.0915  -48.1798 H         1 UNK         0.0600 
    129 H129        0.9050  -15.3050  -46.6074 H         1 UNK         0.0600 
    130 H130        2.0321  -15.2201  -49.7776 H         1 UNK         0.3000 
    131 H131        2.4121  -12.4211  -50.1652 H         1 UNK         0.0600 
    132 H132        4.0436  -13.1985  -51.9897 H         1 UNK         0.0800 
    133 H133        2.3776  -13.6118  -52.1498 H         1 UNK         0.0800 
    134 H134        2.1035  -15.4501  -53.5321 H         1 UNK         0.0800 
    135 H135        2.8106  -17.0306  -53.3918 H         1 UNK         0.0800 
    136 H136        0.3923  -14.7200  -51.7010 H         1 UNK         0.1150 
    137 H137       -1.8886  -17.9311  -50.0136 H         1 UNK         0.1150 
    138 H138        1.7032  -18.7663  -52.1957 H         1 UNK         0.1150 
    139 H139       -1.3139  -20.2155  -50.4604 H         1 UNK         0.0800 
    140 H140       -0.3677  -20.4728  -51.9030 H         1 UNK         0.0800 
    141 H141       -0.4215  -19.7822  -48.2103 H         1 UNK         0.0800 
    142 H142        1.2568  -19.9011  -47.7655 H         1 UNK         0.0800 
    143 H143        0.9509  -22.4740  -47.7333 H         1 UNK         0.0600 
    144 H144        0.3771  -20.6307  -45.6685 H         1 UNK         0.3000 
    145 H145        0.1143  -23.1040  -43.0635 H         1 UNK         0.0600 
    146 H146        1.8917  -21.6557  -42.1392 H         1 UNK         0.0600 
    147 H147        2.5386  -22.6382  -43.4439 H         1 UNK         0.0600 
    148 H148        2.1785  -20.9393  -43.7239 H         1 UNK         0.0600 
    149 H149       -0.1114  -20.2863  -42.9358 H         1 UNK         0.3000 
    150 H150       -3.6637  -20.0968  -43.5347 H         1 UNK         0.0600 
    151 H151       -3.2671  -20.6282  -41.1231 H         1 UNK         0.0600 
    152 H152       -3.4615  -18.9001  -41.3776 H         1 UNK         0.0600 
    153 H153       -1.8563  -19.5761  -41.1140 H         1 UNK         0.0600 
    154 H154       -1.7931  -18.0293  -43.0749 H         1 UNK         0.3000 
    155 H155       -0.9024  -17.3953  -46.4976 H         1 UNK         0.0600 
    156 H156       -2.5225  -15.9563  -44.3274 H         1 UNK         0.0600 
    157 H157       -2.9416  -16.1269  -46.0242 H         1 UNK         0.0600 
    158 H158       -1.5691  -15.1341  -45.5532 H         1 UNK         0.0600 
    159 H159        0.0803  -16.2392  -44.1053 H         1 UNK         0.3000 
    160 H160        2.7771  -18.5296  -43.5227 H         1 UNK         0.0600 
    161 H161        4.0289  -16.3852  -43.6283 H         1 UNK         0.0600 
    162 H162        2.7030  -15.6300  -44.5136 H         1 UNK         0.0600 
    163 H163        3.6069  -16.9514  -45.2361 H         1 UNK         0.0600 
    164 H164        1.8188  -16.1456  -42.2122 H         1 UNK         0.3000 
    165 H165       -0.3027  -17.8156  -39.8771 H         1 UNK         0.0600 
    166 H166        1.1896  -16.6465  -38.2769 H         1 UNK         0.0600 
    167 H167        2.0031  -18.0547  -38.9401 H         1 UNK         0.0600 
    168 H168        2.4219  -16.4482  -39.5232 H         1 UNK         0.0600 
    169 H169        0.4659  -15.0809  -40.2003 H         1 UNK         0.3000 
    170 H170       -1.9371  -14.1515  -42.6321 H         1 UNK         0.0600 
    171 H171       -3.2832  -14.1838  -40.5290 H         1 UNK         0.0600 
    172 H172       -1.9067  -13.5708  -39.6204 H         1 UNK         0.0600 
    173 H173       -2.6658  -12.5740  -40.8622 H         1 UNK         0.0600 
    174 H174       -0.0998  -12.6475  -41.0445 H         1 UNK         0.3000 
    175 H175        1.6510  -11.6812  -42.0083 H         1 UNK         0.0600 
    176 H176        3.4265  -14.1381  -42.5361 H         1 UNK         0.0600 
    177 H177        3.9552  -12.6196  -41.8200 H         1 UNK         0.0600 
    178 H178        2.8228  -13.6474  -40.9563 H         1 UNK         0.0600 
    179 H179        2.0301  -12.7240  -44.7016 H         1 UNK         0.3000 
    180 H180        2.0920  -10.5598  -46.1655 H         1 UNK         0.0600 
    181 H181        4.7714   -9.2187  -45.5337 H         1 UNK         0.0600 
    182 H182        3.1954   -8.4462  -45.5908 H         1 UNK         0.0600 
    183 H183        3.9023   -9.0928  -47.0626 H         1 UNK         0.0600 
    184 H184        3.1621  -12.2295  -47.0666 H         1 UNK         0.3000 
    185 H185        6.4209  -13.0171  -47.6626 H         1 UNK         0.0600 
    186 H186        6.5668  -14.3448  -45.5696 H         1 UNK         0.0600 
    187 H187        4.9056  -14.8841  -45.7641 H         1 UNK         0.0600 
    188 H188        6.1432  -15.3918  -46.9146 H         1 UNK         0.0600 
    189 H189        3.9163  -14.4723  -47.9828 H         1 UNK         0.3000 
    190 H190       -2.1968  -21.1704  -46.5717 H         1 UNK         0.3000 
    191 H191       -3.8472  -22.5365  -48.4321 H         1 UNK         0.0600 
    192 H192       -4.4466  -21.6192  -45.5712 H         1 UNK         0.0600 
    193 H193       -5.6512  -22.0808  -46.7684 H         1 UNK         0.0600 
    194 H194       -4.6513  -20.6600  -47.0347 H         1 UNK         0.0600 
    195 H195       -2.5905  -23.5612  -45.2293 H         1 UNK         0.3000 
    196 H196       -3.8866  -26.0940  -45.1440 H         1 UNK         0.0600 
    197 H197       -1.2961  -25.1578  -43.8020 H         1 UNK         0.0600 
    198 H198       -2.2042  -26.6022  -43.3755 H         1 UNK         0.0600 
    199 H199       -2.9210  -25.0156  -43.1377 H         1 UNK         0.0600 
    200 H200       -0.6176  -25.1475  -46.3349 H         1 UNK         0.3000 
    201 H201        0.2267  -27.7188  -47.1679 H         1 UNK         0.0600 
    202 H202        1.0243  -24.9514  -48.2165 H         1 UNK         0.0600 
    203 H203        1.9149  -26.4428  -48.4944 H         1 UNK         0.0600 
    204 H204        1.7701  -25.8016  -46.8648 H         1 UNK         0.0600 
    205 H205       -1.6505  -25.2194  -48.8790 H         1 UNK         0.3000 
    206 H206       -1.8797  -26.6477  -51.3758 H         1 UNK         0.0600 
    207 H207       -2.0771  -24.1627  -51.1731 H         1 UNK         0.0600 
    208 H208       -3.5194  -24.8532  -51.8934 H         1 UNK         0.0600 
    209 H209       -3.5413  -24.3490  -50.2097 H         1 UNK         0.0600 
    210 H210       -3.2281  -27.3710  -48.3722 H         1 UNK         0.3000 
    211 H211       -4.8590  -28.6143  -47.5757 H         1 UNK         0.0600 
    212 H212       -5.0905  -29.8377  -50.3759 H         1 UNK         0.0600 
    213 H213       -5.6483  -30.5547  -48.8710 H         1 UNK         0.0600 
    214 H214       -3.9285  -30.3275  -49.1435 H         1 UNK         0.0600 
    215 H215       -5.5625  -26.0543  -48.1969 H         1 UNK         0.3000 
    216 H216       -7.2203  -24.6469  -48.2166 H         1 UNK         0.0600 
    217 H217       -8.3713  -26.2604  -46.6791 H         1 UNK         0.0600 
    218 H218       -9.5015  -25.3047  -47.6216 H         1 UNK         0.0600 
    219 H219       -9.1981  -26.9772  -48.0625 H         1 UNK         0.0600 
    220 H220       -6.2783  -25.9741  -50.8155 H         1 UNK         0.3000 
    221 H221       -8.3825  -25.3021  -52.7246 H         1 UNK         0.0600 
    222 H222       -5.3747  -25.7068  -53.1651 H         1 UNK         0.0600 
    223 H223       -6.5662  -27.0058  -53.1913 H         1 UNK         0.0600 
    224 H224       -6.6278  -25.7308  -54.3951 H         1 UNK         0.0600 
    225 H225       -7.7199  -23.6613  -54.4938 H         1 UNK         0.3000 
    226 H226       -7.7939  -21.0638  -53.4412 H         1 UNK         0.0600 
    227 H227       -8.7393  -21.6764  -55.6429 H         1 UNK         0.0600 
    228 H228       -7.5700  -20.3806  -55.8420 H         1 UNK         0.0600 
    229 H229       -7.1294  -22.0277  -56.2744 H         1 UNK         0.0600 
    230 H230       -6.3291  -19.5290  -53.0084 H         1 UNK         0.3000 
    231 H231       -3.5088  -20.1557  -52.7985 H         1 UNK         0.0600 
    232 H232       -5.1339  -17.6085  -52.2405 H         1 UNK         0.0600 
    233 H233       -3.4580  -17.8545  -51.7910 H         1 UNK         0.0600 
    234 H234       -4.7044  -18.8466  -51.0568 H         1 UNK         0.0600 
    235 H235       -1.8103  -18.7017  -53.6144 H         1 UNK         0.3000 
    236 H236       -2.0749  -18.1156  -56.4413 H         1 UNK         0.0600 
    237 H237        0.2326  -17.5865  -54.5027 H         1 UNK         0.0600 
    238 H238        0.0179  -19.0547  -55.4550 H         1 UNK         0.0600 
    239 H239        0.3171  -17.5192  -56.2551 H         1 UNK         0.0600 
    240 H240       -2.2988  -16.2428  -53.4641 H         1 UNK         0.3000 
    241 H241       -2.0746  -13.6410  -54.6981 H         1 UNK         0.0600 
    242 H242       -5.4362  -12.6221  -55.3058 H         1 UNK         0.3800 
    243 H243       -3.8248  -12.0472  -54.9901 H         1 UNK         0.3800 
    244 H244       -1.4739  -13.6776  -52.4193 H         1 UNK         0.0800 
    245 H245       -2.9622  -12.8056  -52.4739 H         1 UNK         0.0800 
    246 H246       -2.2488  -15.5887  -49.2921 H         1 UNK         0.0800 
    247 H247       -1.3649  -14.2697  -50.0099 H         1 UNK         0.0800 
@<TRIPOS>BOND
     1    1    2 1    
     2    1  127 1    
     3    1  128 1    
     4    1  129 1    
     5    2    3 2    
     6    2    4 am   BACKBONE|DICT|INTERRES
     7    4    5 1    
     8    4  130 1    
     9    5    6 1    
    10    5   65 1    
    11    5  131 1    
    12    6    7 1    
    13    6  132 1    
    14    6  133 1    
    15    7    8 1    
    16    8    9 1    
    17    8  134 1    
    18    8  135 1    
    19    9   10 ar   
    20    9   14 ar   
    21   10   11 ar   
    22   10  136 1    
    23   11   12 ar   
    24   11  126 1    
    25   12   13 ar   
    26   12  137 1    
    27   13   14 ar   
    28   13   15 1    
    29   14  138 1    
    30   15   16 1    
    31   15  139 1    
    32   15  140 1    
    33   16   17 1    
    34   17   18 1    
    35   17  141 1    
    36   17  142 1    
    37   18   19 1    
    38   18   67 1    
    39   18  143 1    
    40   19   20 am   BACKBONE|DICT|INTERRES
    41   19  144 1    
    42   20   21 2    
    43   20   22 1    
    44   22   23 1    
    45   22   24 1    
    46   22  145 1    
    47   23  146 1    
    48   23  147 1    
    49   23  148 1    
    50   24   25 am   BACKBONE|DICT|INTERRES
    51   24  149 1    
    52   25   26 2    
    53   25   27 1    
    54   27   28 1    
    55   27   29 1    
    56   27  150 1    
    57   28  151 1    
    58   28  152 1    
    59   28  153 1    
    60   29   30 am   BACKBONE|DICT|INTERRES
    61   29  154 1    
    62   30   31 2    
    63   30   32 1    
    64   32   33 1    
    65   32   34 1    
    66   32  155 1    
    67   33  156 1    
    68   33  157 1    
    69   33  158 1    
    70   34   35 am   BACKBONE|DICT|INTERRES
    71   34  159 1    
    72   35   36 2    
    73   35   37 1    
    74   37   38 1    
    75   37   39 1    
    76   37  160 1    
    77   38  161 1    
    78   38  162 1    
    79   38  163 1    
    80   39   40 am   BACKBONE|DICT|INTERRES
    81   39  164 1    
    82   40   41 2    
    83   40   42 1    
    84   42   43 1    
    85   42   44 1    
    86   42  165 1    
    87   43  166 1    
    88   43  167 1    
    89   43  168 1    
    90   44   45 am   BACKBONE|DICT|INTERRES
    91   44  169 1    
    92   45   46 2    
    93   45   47 1    
    94   47   48 1    
    95   47   49 1    
    96   47  170 1    
    97   48  171 1    
    98   48  172 1    
    99   48  173 1    
   100   49   50 am   BACKBONE|DICT|INTERRES
   101   49  174 1    
   102   50   51 2    
   103   50   52 1    
   104   52   53 1    
   105   52   54 1    
   106   52  175 1    
   107   53  176 1    
   108   53  177 1    
   109   53  178 1    
   110   54   55 am   BACKBONE|DICT|INTERRES
   111   54  179 1    
   112   55   56 2    
   113   55   57 1    
   114   57   58 1    
   115   57   59 1    
   116   57  180 1    
   117   58  181 1    
   118   58  182 1    
   119   58  183 1    
   120   59   60 am   BACKBONE|DICT|INTERRES
   121   59  184 1    
   122   60   61 2    
   123   60   62 1    
   124   62   63 1    
   125   62   64 1    
   126   62  185 1    
   127   63  186 1    
   128   63  187 1    
   129   63  188 1    
   130   64   65 am   BACKBONE|DICT|INTERRES
   131   64  189 1    
   132   65   66 2    
   133   67   68 2    
   134   67   69 am   BACKBONE|DICT|INTERRES
   135   69   70 1    
   136   69  190 1    
   137   70   71 1    
   138   70   72 1    
   139   70  191 1    
   140   71  192 1    
   141   71  193 1    
   142   71  194 1    
   143   72   73 2    
   144   72   74 am   BACKBONE|DICT|INTERRES
   145   74   75 1    
   146   74  195 1    
   147   75   76 1    
   148   75   77 1    
   149   75  196 1    
   150   76  197 1    
   151   76  198 1    
   152   76  199 1    
   153   77   78 2    
   154   77   79 am   BACKBONE|DICT|INTERRES
   155   79   80 1    
   156   79  200 1    
   157   80   81 1    
   158   80   82 1    
   159   80  201 1    
   160   81  202 1    
   161   81  203 1    
   162   81  204 1    
   163   82   83 2    
   164   82   84 am   BACKBONE|DICT|INTERRES
   165   84   85 1    
   166   84  205 1    
   167   85   86 1    
   168   85   87 1    
   169   85  206 1    
   170   86  207 1    
   171   86  208 1    
   172   86  209 1    
   173   87   88 2    
   174   87   89 am   BACKBONE|DICT|INTERRES
   175   89   90 1    
   176   89  210 1    
   177   90   91 1    
   178   90   92 1    
   179   90  211 1    
   180   91  212 1    
   181   91  213 1    
   182   91  214 1    
   183   92   93 2    
   184   92   94 am   BACKBONE|DICT|INTERRES
   185   94   95 1    
   186   94  215 1    
   187   95   96 1    
   188   95   97 1    
   189   95  216 1    
   190   96  217 1    
   191   96  218 1    
   192   96  219 1    
   193   97   98 2    
   194   97   99 am   BACKBONE|DICT|INTERRES
   195   99  100 1    
   196   99  220 1    
   197  100  101 1    
   198  100  102 1    
   199  100  221 1    
   200  101  222 1    
   201  101  223 1    
   202  101  224 1    
   203  102  103 2    
   204  102  104 am   BACKBONE|DICT|INTERRES
   205  104  105 1    
   206  104  225 1    
   207  105  106 1    
   208  105  107 1    
   209  105  226 1    
   210  106  227 1    
   211  106  228 1    
   212  106  229 1    
   213  107  108 2    
   214  107  109 am   BACKBONE|DICT|INTERRES
   215  109  110 1    
   216  109  230 1    
   217  110  111 1    
   218  110  112 1    
   219  110  231 1    
   220  111  232 1    
   221  111  233 1    
   222  111  234 1    
   223  112  113 2    
   224  112  114 am   BACKBONE|DICT|INTERRES
   225  114  115 1    
   226  114  235 1    
   227  115  116 1    
   228  115  117 1    
   229  115  236 1    
   230  116  237 1    
   231  116  238 1    
   232  116  239 1    
   233  117  118 2    
   234  117  119 am   BACKBONE|DICT|INTERRES
   235  119  120 1    
   236  119  240 1    
   237  120  121 1    
   238  120  124 1    
   239  120  241 1    
   240  121  122 am   BACKBONE|DICT|INTERRES
   241  121  123 2    
   242  122  242 1    
   243  122  243 1    
   244  124  125 1    
   245  124  244 1    
   246  124  245 1    
   247  125  126 1    
   248  126  246 1    
   249  126  247 1    
@<TRIPOS>SUBSTRUCTURE
     1 UNK         1 GROUP             0       ****    0 ROOT    
