@<TRIPOS>MOLECULE
3R540
247   249    1
SMALL
USER_CHARGES


@<TRIPOS>ATOM
      1 CA          4.1452  -10.7008  -51.6601 C.3       0 UNK        -0.1800 
      2 C           4.6361  -11.7647  -50.6881 C.2       0 UNK         0.5000 
      3 O           5.8445  -11.9618  -50.5539 O.2       0 UNK        -0.5000 
      4 N           3.7051  -12.4555  -50.0202 N.am      1 UNK        -0.5000 
      5 CA          3.9751  -13.4646  -48.9915 C.3       1 UNK         0.1400 
      6 C6          2.7726  -14.4184  -48.7834 C.3       23 UNK        -0.0398 
      7 S7          1.1479  -13.6033  -48.5777 S.3       23 UNK        -0.2404 
      8 C8          0.0358  -15.0318  -48.3497 C.3       23 UNK        -0.0205 
      9 C9          0.1472  -16.0521  -49.4752 C.ar      23 UNK        -0.0193 
     10 C10        -0.5552  -15.8777  -50.6719 C.ar      23 UNK        -0.1150 
     11 C11        -0.4101  -16.7870  -51.7267 C.ar      23 UNK        -0.0193 
     12 C12         0.4529  -17.8791  -51.5649 C.ar      23 UNK        -0.1150 
     13 C13         1.1488  -18.0758  -50.3695 C.ar      23 UNK        -0.0193 
     14 C14         0.9829  -17.1612  -49.3258 C.ar      23 UNK        -0.1150 
     15 C15         2.1202  -19.2458  -50.2447 C.3       23 UNK        -0.0205 
     16 S16         2.0215  -20.1139  -48.6463 S.3       23 UNK        -0.2404 
     17 C17         0.3023  -20.7144  -48.6840 C.3       23 UNK        -0.0398 
     18 CA          0.1268  -21.9697  -47.8030 C.3       11 UNK         0.1400 
     19 N           0.2460  -21.6764  -46.3722 N.am      11 UNK        -0.5000 
     20 C           0.3195  -22.6064  -45.4101 C.2       10 UNK         0.5000 
     21 O           0.3130  -23.8184  -45.6275 O.2       10 UNK        -0.5000 
     22 CA          0.3562  -22.0996  -43.9573 C.3       10 UNK         0.1400 
     23 CB          1.7368  -21.5282  -43.6000 C.3       10 UNK        -0.1800 
     24 N          -0.6777  -21.0997  -43.6926 N.am      10 UNK        -0.5000 
     25 C          -1.9952  -21.3448  -43.7412 C.2       9 UNK         0.5000 
     26 O          -2.4799  -22.4510  -43.9803 O.2       9 UNK        -0.5000 
     27 CA         -2.9305  -20.1417  -43.5272 C.3       9 UNK         0.1400 
     28 CB         -3.1147  -19.8594  -42.0289 C.3       9 UNK        -0.1800 
     29 N          -2.4631  -18.9292  -44.2001 N.am      9 UNK        -0.5000 
     30 C          -2.2985  -18.8134  -45.5254 C.2       8 UNK         0.5000 
     31 O          -2.5381  -19.7155  -46.3237 O.2       8 UNK        -0.5000 
     32 CA         -1.7031  -17.4935  -46.0417 C.3       8 UNK         0.1400 
     33 CB         -2.7467  -16.3663  -46.0222 C.3       8 UNK        -0.1800 
     34 N          -0.5201  -17.0901  -45.2850 N.am      8 UNK        -0.5000 
     35 C           0.6169  -17.7982  -45.2200 C.2       7 UNK         0.5000 
     36 O           0.7906  -18.8694  -45.7971 O.2       7 UNK        -0.5000 
     37 CA          1.7324  -17.2290  -44.3299 C.3       7 UNK         0.1400 
     38 CB          2.6569  -16.3092  -45.1426 C.3       7 UNK        -0.1800 
     39 N           1.1867  -16.5130  -43.1736 N.am      7 UNK        -0.5000 
     40 C           0.6250  -17.1416  -42.1289 C.2       6 UNK         0.5000 
     41 O           0.5477  -18.3680  -42.0336 O.2       6 UNK        -0.5000 
     42 CA          0.0140  -16.2606  -41.0256 C.3       6 UNK         0.1400 
     43 CB          1.1057  -15.5562  -40.2073 C.3       6 UNK        -0.1800 
     44 N          -0.9286  -15.2651  -41.5337 N.am      6 UNK        -0.5000 
     45 C          -2.0827  -15.5286  -42.1574 C.2       5 UNK         0.5000 
     46 O          -2.4575  -16.6656  -42.4380 O.2       5 UNK        -0.5000 
     47 CA         -2.9638  -14.3288  -42.5610 C.3       5 UNK         0.1400 
     48 CB         -3.7546  -13.7821  -41.3569 C.3       5 UNK        -0.1800 
     49 N          -2.2361  -13.2678  -43.2703 N.am      5 UNK        -0.5000 
     50 C          -1.2848  -12.4523  -42.7982 C.2       4 UNK         0.5000 
     51 O          -0.9141  -12.4237  -41.6216 O.2       4 UNK        -0.5000 
     52 CA         -0.6080  -11.5333  -43.8302 C.3       4 UNK         0.1400 
     53 CB         -1.1986  -10.1169  -43.7645 C.3       4 UNK        -0.1800 
     54 N           0.8378  -11.4633  -43.6185 N.am      4 UNK        -0.5000 
     55 C           1.6712  -12.5085  -43.6924 C.2       3 UNK         0.5000 
     56 O           1.3225  -13.6537  -43.9911 O.2       3 UNK        -0.5000 
     57 CA          3.1369  -12.2369  -43.3468 C.3       3 UNK         0.1400 
     58 CB          3.4860  -12.7957  -41.9557 C.3       3 UNK        -0.1800 
     59 N           3.9834  -12.8485  -44.3640 N.am      3 UNK        -0.5000 
     60 C           5.2519  -12.4995  -44.6018 C.2       2 UNK         0.5000 
     61 O           5.8476  -11.6228  -43.9734 O.2       2 UNK        -0.5000 
     62 CA          5.9953  -13.2496  -45.7227 C.3       2 UNK         0.1400 
     63 CB          6.7004  -14.4902  -45.1515 C.3       2 UNK        -0.1800 
     64 N           5.1815  -13.6566  -46.8729 N.am      2 UNK        -0.5000 
     65 C           4.4900  -12.8351  -47.6767 C.2       1 UNK         0.5000 
     66 O           4.2926  -11.6410  -47.4365 O.2       1 UNK        -0.5000 
     67 C          -1.1898  -22.6927  -48.1366 C.2       11 UNK         0.5000 
     68 O          -1.1562  -23.6681  -48.8848 O.2       11 UNK        -0.5000 
     69 N          -2.3099  -22.2445  -47.5527 N.am      12 UNK        -0.5000 
     70 CA         -3.6240  -22.8662  -47.7130 C.3       12 UNK         0.1400 
     71 CB         -4.7022  -22.0065  -47.0391 C.3       12 UNK        -0.1800 
     72 C          -3.6665  -24.3086  -47.1852 C.2       12 UNK         0.5000 
     73 O          -4.2238  -25.1750  -47.8585 O.2       12 UNK        -0.5000 
     74 N          -3.0467  -24.5531  -46.0224 N.am      13 UNK        -0.5000 
     75 CA         -2.9004  -25.8853  -45.4377 C.3       13 UNK         0.1400 
     76 CB         -2.3590  -25.7660  -44.0050 C.3       13 UNK        -0.1800 
     77 C          -2.0080  -26.8089  -46.2869 C.2       13 UNK         0.5000 
     78 O          -2.3746  -27.9627  -46.5121 O.2       13 UNK        -0.5000 
     79 N          -0.8680  -26.2830  -46.7565 N.am      14 UNK        -0.5000 
     80 CA          0.1040  -27.0077  -47.5762 C.3       14 UNK         0.1400 
     81 CB          1.3969  -26.1844  -47.6827 C.3       14 UNK        -0.1800 
     82 C          -0.4264  -27.3651  -48.9766 C.2       14 UNK         0.5000 
     83 O          -0.2318  -28.4934  -49.4304 O.2       14 UNK        -0.5000 
     84 N          -1.0841  -26.4021  -49.6344 N.am      15 UNK        -0.5000 
     85 CA         -1.6070  -26.5353  -50.9950 C.3       15 UNK         0.1400 
     86 CB         -1.6439  -25.1426  -51.6432 C.3       15 UNK        -0.1800 
     87 C          -3.0008  -27.1865  -51.0594 C.2       15 UNK         0.5000 
     88 O          -3.4775  -27.4501  -52.1625 O.2       15 UNK        -0.5000 
     89 N          -3.6475  -27.3957  -49.9028 N.am      16 UNK        -0.5000 
     90 CA         -5.0271  -27.8714  -49.7385 C.3       16 UNK         0.1400 
     91 CB         -5.1708  -29.3342  -50.2079 C.3       16 UNK        -0.1800 
     92 C          -6.0406  -26.9111  -50.3984 C.2       16 UNK         0.5000 
     93 O          -6.8880  -27.3308  -51.1880 O.2       16 UNK        -0.5000 
     94 N          -5.8881  -25.6206  -50.0709 N.am      17 UNK        -0.5000 
     95 CA         -6.6608  -24.4595  -50.5266 C.3       17 UNK         0.1400 
     96 CB         -8.1424  -24.5872  -50.1168 C.3       17 UNK        -0.1800 
     97 C          -6.4933  -24.1036  -52.0210 C.2       17 UNK         0.5000 
     98 O          -7.2156  -23.2355  -52.5128 O.2       17 UNK        -0.5000 
     99 N          -5.5340  -24.7308  -52.7192 N.am      18 UNK        -0.5000 
    100 CA        -5.1841  -24.4112  -54.1094 C.3       18 UNK         0.1400 
    101 CB        -4.4841  -25.6195  -54.7492 C.3       18 UNK        -0.1800 
    102 C         -4.3145  -23.1414  -54.2383 C.2       18 UNK         0.5000 
    103 O         -4.1646  -22.6198  -55.3438 O.2       18 UNK        -0.5000 
    104 N         -3.7679  -22.6679  -53.1143 N.am      19 UNK        -0.5000 
    105 CA        -3.0620  -21.4030  -52.9570 C.3       19 UNK         0.1400 
    106 CB        -1.5601  -21.6796  -52.7718 C.3       19 UNK        -0.1800 
    107 C         -3.6360  -20.6984  -51.7201 C.2       19 UNK         0.5000 
    108 O         -4.2161  -21.3673  -50.8610 O.2       19 UNK        -0.5000 
    109 N         -3.4303  -19.3761  -51.6565 N.am      20 UNK        -0.5000 
    110 CA        -3.8631  -18.4436  -50.6117 C.3       20 UNK         0.1400 
    111 CB        -3.0359  -18.6815  -49.3373 C.3       20 UNK        -0.1800 
    112 C         -5.3912  -18.4875  -50.3412 C.2       20 UNK         0.5000 
    113 O         -5.8196  -19.1650  -49.4078 O.2       20 UNK        -0.5000 
    114 N         -6.2403  -17.7821  -51.1059 N.am      21 UNK        -0.5000 
    115 CA        -5.9467  -16.8958  -52.2339 C.3       21 UNK         0.1400 
    116 CB        -7.2063  -16.0764  -52.5538 C.3       21 UNK        -0.1800 
    117 C         -5.4865  -17.6646  -53.4834 C.2       21 UNK         0.5000 
    118 O         -5.9672  -18.7696  -53.7415 O.2       21 UNK        -0.5000 
    119 N         -4.5576  -17.0556  -54.2249 N.am      22 UNK        -0.5000 
    120 CA        -3.9253  -17.6306  -55.4250 C.3       22 UNK         0.1400 
    121 C         -4.6122  -17.2175  -56.7601 C.2       22 UNK         0.5000 
    122 N         -5.6707  -16.4161  -56.7480 N.am      22 UNK        -0.7600 
    123 O         -4.1859  -17.6423  -57.8304 O.2       22 UNK        -0.5000 
    124 C124       -2.4045  -17.3285  -55.4532 C.3       23 UNK        -0.0398 
    125 S125       -1.5361  -18.0269  -54.0074 S.3       23 UNK        -0.2404 
    126 C126       -1.1431  -16.5251  -53.0439 C.3       23 UNK        -0.0205 
    127 H127        3.0565  -10.6460  -51.6851 H         1 UNK         0.0600 
    128 H128        4.5280   -9.7224  -51.3697 H         1 UNK         0.0600 
    129 H129        4.4977  -10.9210  -52.6678 H         1 UNK         0.0600 
    130 H130        2.7285  -12.2300  -50.1467 H         1 UNK         0.3000 
    131 H131        4.7953  -14.0807  -49.3675 H         1 UNK         0.0600 
    132 H132        2.7076  -15.0534  -49.6672 H         1 UNK         0.0800 
    133 H133        2.9441  -15.0967  -47.9469 H         1 UNK         0.0800 
    134 H134        0.2598  -15.4990  -47.3915 H         1 UNK         0.0800 
    135 H135       -0.9912  -14.6713  -48.2830 H         1 UNK         0.0800 
    136 H136       -1.1942  -15.0138  -50.7903 H         1 UNK         0.1150 
    137 H137        0.6058  -18.5724  -52.3791 H         1 UNK         0.1150 
    138 H138        1.5308  -17.2963  -48.4038 H         1 UNK         0.1150 
    139 H139        1.9584  -19.9699  -51.0448 H         1 UNK         0.0800 
    140 H140        3.1347  -18.8667  -50.3729 H         1 UNK         0.0800 
    141 H141        0.0375  -20.9283  -49.7217 H         1 UNK         0.0800 
    142 H142       -0.3598  -19.9130  -48.3521 H         1 UNK         0.0800 
    143 H143        0.9295  -22.6666  -48.0539 H         1 UNK         0.0600 
    144 H144        0.2955  -20.6929  -46.1175 H         1 UNK         0.3000 
    145 H145        0.1664  -22.9539  -43.3039 H         1 UNK         0.0600 
    146 H146        1.7757  -21.2151  -42.5565 H         1 UNK         0.0600 
    147 H147        2.5164  -22.2769  -43.7455 H         1 UNK         0.0600 
    148 H148        1.9924  -20.6663  -44.2161 H         1 UNK         0.0600 
    149 H149       -0.3659  -20.1584  -43.4938 H         1 UNK         0.3000 
    150 H150       -3.9042  -20.4005  -43.9479 H         1 UNK         0.0600 
    151 H151       -3.4579  -20.7501  -41.5010 H         1 UNK         0.0600 
    152 H152       -3.8566  -19.0778  -41.8646 H         1 UNK         0.0600 
    153 H153       -2.1821  -19.5373  -41.5633 H         1 UNK         0.0600 
    154 H154       -2.2725  -18.1276  -43.6037 H         1 UNK         0.3000 
    155 H155       -1.3887  -17.6502  -47.0755 H         1 UNK         0.0600 
    156 H156       -2.3309  -15.4290  -46.3899 H         1 UNK         0.0600 
    157 H157       -3.1317  -16.1916  -45.0193 H         1 UNK         0.0600 
    158 H158       -3.6008  -16.6134  -46.6530 H         1 UNK         0.0600 
    159 H159       -0.5819  -16.2387  -44.7479 H         1 UNK         0.3000 
    160 H160        2.3316  -18.0668  -43.9664 H         1 UNK         0.0600 
    161 H161        3.4313  -15.8714  -44.5130 H         1 UNK         0.0600 
    162 H162        3.1569  -16.8684  -45.9344 H         1 UNK         0.0600 
    163 H163        2.1054  -15.4983  -45.6179 H         1 UNK         0.0600 
    164 H164        1.1934  -15.4982  -43.2182 H         1 UNK         0.3000 
    165 H165       -0.5370  -16.9199  -40.3515 H         1 UNK         0.0600 
    166 H166        1.6302  -14.8085  -40.8007 H         1 UNK         0.0600 
    167 H167        0.6814  -15.0526  -39.3385 H         1 UNK         0.0600 
    168 H168        1.8460  -16.2689  -39.8413 H         1 UNK         0.0600 
    169 H169       -0.7042  -14.2871  -41.3713 H         1 UNK         0.3000 
    170 H170       -3.6984  -14.7053  -43.2737 H         1 UNK         0.0600 
    171 H171       -4.3851  -14.5599  -40.9245 H         1 UNK         0.0600 
    172 H172       -3.1013  -13.4193  -40.5631 H         1 UNK         0.0600 
    173 H173       -4.4083  -12.9622  -41.6544 H         1 UNK         0.0600 
    174 H174       -2.4493  -13.2060  -44.2560 H         1 UNK         0.3000 
    175 H175       -0.7777  -11.9358  -44.8312 H         1 UNK         0.0600 
    176 H176       -0.7556   -9.4683  -44.5205 H         1 UNK         0.0600 
    177 H177       -2.2747  -10.1339  -43.9424 H         1 UNK         0.0600 
    178 H178       -1.0347   -9.6575  -42.7887 H         1 UNK         0.0600 
    179 H179        1.2017  -10.5671  -43.3302 H         1 UNK         0.3000 
    180 H180        3.2995  -11.1568  -43.3488 H         1 UNK         0.0600 
    181 H181        3.4610  -13.8857  -41.9479 H         1 UNK         0.0600 
    182 H182        2.7840  -12.4402  -41.2002 H         1 UNK         0.0600 
    183 H183        4.4827  -12.4851  -41.6426 H         1 UNK         0.0600 
    184 H184        3.5365  -13.5518  -44.9361 H         1 UNK         0.3000 
    185 H185        6.7635  -12.5722  -46.1014 H         1 UNK         0.0600 
    186 H186        7.3375  -14.9632  -45.8990 H         1 UNK         0.0600 
    187 H187        7.3378  -14.2247  -44.3069 H         1 UNK         0.0600 
    188 H188        5.9839  -15.2337  -44.8001 H         1 UNK         0.0600 
    189 H189        5.2847  -14.6219  -47.1500 H         1 UNK         0.3000 
    190 H190       -2.2748  -21.4038  -46.9790 H         1 UNK         0.3000 
    191 H191       -3.8415  -22.9058  -48.7812 H         1 UNK         0.0600 
    192 H192       -4.7462  -21.0130  -47.4860 H         1 UNK         0.0600 
    193 H193       -5.6893  -22.4560  -47.1534 H         1 UNK         0.0600 
    194 H194       -4.5133  -21.8866  -45.9721 H         1 UNK         0.0600 
    195 H195       -2.6433  -23.7793  -45.5035 H         1 UNK         0.3000 
    196 H196       -3.8925  -26.3388  -45.3859 H         1 UNK         0.0600 
    197 H197       -2.2444  -26.7489  -43.5465 H         1 UNK         0.0600 
    198 H198       -3.0378  -25.1904  -43.3755 H         1 UNK         0.0600 
    199 H199       -1.3856  -25.2751  -43.9806 H         1 UNK         0.0600 
    200 H200       -0.6217  -25.3328  -46.4943 H         1 UNK         0.3000 
    201 H201        0.3419  -27.9424  -47.0641 H         1 UNK         0.0600 
    202 H202        1.8315  -26.0052  -46.6991 H         1 UNK         0.0600 
    203 H203        1.2193  -25.2154  -48.1503 H         1 UNK         0.0600 
    204 H204        2.1461  -26.7062  -48.2794 H         1 UNK         0.0600 
    205 H205       -1.1713  -25.4805  -49.2090 H         1 UNK         0.3000 
    206 H206       -0.9269  -27.1594  -51.5783 H         1 UNK         0.0600 
    207 H207       -0.6694  -24.6570  -51.5887 H         1 UNK         0.0600 
    208 H208       -1.9125  -25.2030  -52.6973 H         1 UNK         0.0600 
    209 H209       -2.3705  -24.4927  -51.1541 H         1 UNK         0.0600 
    210 H210       -3.1836  -27.1061  -49.0521 H         1 UNK         0.3000 
    211 H211       -5.2335  -27.8487  -48.6673 H         1 UNK         0.0600 
    212 H212       -5.0243  -29.4357  -51.2835 H         1 UNK         0.0600 
    213 H213       -6.1644  -29.7198  -49.9772 H         1 UNK         0.0600 
    214 H214       -4.4480  -29.9796  -49.7087 H         1 UNK         0.0600 
    215 H215       -5.1744  -25.4144  -49.3729 H         1 UNK         0.3000 
    216 H216       -6.2488  -23.6090  -49.9809 H         1 UNK         0.0600 
    217 H217       -8.2398  -24.8102  -49.0543 H         1 UNK         0.0600 
    218 H218       -8.6515  -25.3737  -50.6743 H         1 UNK         0.0600 
    219 H219       -8.6817  -23.6574  -50.3011 H         1 UNK         0.0600 
    220 H220       -5.0057  -25.4681  -52.2731 H         1 UNK         0.3000 
    221 H221       -6.1061  -24.2306  -54.6661 H         1 UNK         0.0600 
    222 H222       -3.5146  -25.8148  -54.2927 H         1 UNK         0.0600 
    223 H223       -5.0873  -26.5228  -54.6552 H         1 UNK         0.0600 
    224 H224       -4.3136  -25.4515  -55.8132 H         1 UNK         0.0600 
    225 H225       -4.0225  -23.1056  -52.2396 H         1 UNK         0.3000 
    226 H226       -3.2183  -20.7656  -53.8300 H         1 UNK         0.0600 
    227 H227       -1.1566  -22.2481  -53.6097 H         1 UNK         0.0600 
    228 H228       -0.9946  -20.7499  -52.7062 H         1 UNK         0.0600 
    229 H229       -1.3645  -22.2413  -51.8578 H         1 UNK         0.0600 
    230 H230       -2.9197  -18.9492  -52.4193 H         1 UNK         0.3000 
    231 H231       -3.6033  -17.4432  -50.9546 H         1 UNK         0.0600 
    232 H232       -1.9760  -18.5052  -49.5186 H         1 UNK         0.0600 
    233 H233       -3.1475  -19.6989  -48.9621 H         1 UNK         0.0600 
    234 H234       -3.3497  -18.0044  -48.5448 H         1 UNK         0.0600 
    235 H235       -7.2234  -17.8875  -50.9071 H         1 UNK         0.3000 
    236 H236       -5.1662  -16.1952  -51.9330 H         1 UNK         0.0600 
    237 H237       -7.0221  -15.3733  -53.3671 H         1 UNK         0.0600 
    238 H238       -8.0375  -16.7157  -52.8550 H         1 UNK         0.0600 
    239 H239       -7.5280  -15.4930  -51.6908 H         1 UNK         0.0600 
    240 H240       -4.2500  -16.1280  -53.9719 H         1 UNK         0.3000 
    241 H241       -4.0284  -18.7169  -55.3851 H         1 UNK         0.0600 
    242 H242       -6.0444  -16.0691  -55.8799 H         1 UNK         0.3800 
    243 H243       -6.1092  -16.1614  -57.6195 H         1 UNK         0.3800 
    244 H244       -1.9445  -17.7633  -56.3422 H         1 UNK         0.0800 
    245 H245       -2.2246  -16.2541  -55.5151 H         1 UNK         0.0800 
    246 H246       -0.5244  -15.8657  -53.6538 H         1 UNK         0.0800 
    247 H247       -2.0720  -15.9891  -52.8452 H         1 UNK         0.0800 
@<TRIPOS>BOND
     1    1    2 1    
     2    1  127 1    
     3    1  128 1    
     4    1  129 1    
     5    2    3 2    
     6    2    4 am   BACKBONE|DICT|INTERRES
     7    4    5 1    
     8    4  130 1    
     9    5    6 1    
    10    5   65 1    
    11    5  131 1    
    12    6    7 1    
    13    6  132 1    
    14    6  133 1    
    15    7    8 1    
    16    8    9 1    
    17    8  134 1    
    18    8  135 1    
    19    9   10 ar   
    20    9   14 ar   
    21   10   11 ar   
    22   10  136 1    
    23   11   12 ar   
    24   11  126 1    
    25   12   13 ar   
    26   12  137 1    
    27   13   14 ar   
    28   13   15 1    
    29   14  138 1    
    30   15   16 1    
    31   15  139 1    
    32   15  140 1    
    33   16   17 1    
    34   17   18 1    
    35   17  141 1    
    36   17  142 1    
    37   18   19 1    
    38   18   67 1    
    39   18  143 1    
    40   19   20 am   BACKBONE|DICT|INTERRES
    41   19  144 1    
    42   20   21 2    
    43   20   22 1    
    44   22   23 1    
    45   22   24 1    
    46   22  145 1    
    47   23  146 1    
    48   23  147 1    
    49   23  148 1    
    50   24   25 am   BACKBONE|DICT|INTERRES
    51   24  149 1    
    52   25   26 2    
    53   25   27 1    
    54   27   28 1    
    55   27   29 1    
    56   27  150 1    
    57   28  151 1    
    58   28  152 1    
    59   28  153 1    
    60   29   30 am   BACKBONE|DICT|INTERRES
    61   29  154 1    
    62   30   31 2    
    63   30   32 1    
    64   32   33 1    
    65   32   34 1    
    66   32  155 1    
    67   33  156 1    
    68   33  157 1    
    69   33  158 1    
    70   34   35 am   BACKBONE|DICT|INTERRES
    71   34  159 1    
    72   35   36 2    
    73   35   37 1    
    74   37   38 1    
    75   37   39 1    
    76   37  160 1    
    77   38  161 1    
    78   38  162 1    
    79   38  163 1    
    80   39   40 am   BACKBONE|DICT|INTERRES
    81   39  164 1    
    82   40   41 2    
    83   40   42 1    
    84   42   43 1    
    85   42   44 1    
    86   42  165 1    
    87   43  166 1    
    88   43  167 1    
    89   43  168 1    
    90   44   45 am   BACKBONE|DICT|INTERRES
    91   44  169 1    
    92   45   46 2    
    93   45   47 1    
    94   47   48 1    
    95   47   49 1    
    96   47  170 1    
    97   48  171 1    
    98   48  172 1    
    99   48  173 1    
   100   49   50 am   BACKBONE|DICT|INTERRES
   101   49  174 1    
   102   50   51 2    
   103   50   52 1    
   104   52   53 1    
   105   52   54 1    
   106   52  175 1    
   107   53  176 1    
   108   53  177 1    
   109   53  178 1    
   110   54   55 am   BACKBONE|DICT|INTERRES
   111   54  179 1    
   112   55   56 2    
   113   55   57 1    
   114   57   58 1    
   115   57   59 1    
   116   57  180 1    
   117   58  181 1    
   118   58  182 1    
   119   58  183 1    
   120   59   60 am   BACKBONE|DICT|INTERRES
   121   59  184 1    
   122   60   61 2    
   123   60   62 1    
   124   62   63 1    
   125   62   64 1    
   126   62  185 1    
   127   63  186 1    
   128   63  187 1    
   129   63  188 1    
   130   64   65 am   BACKBONE|DICT|INTERRES
   131   64  189 1    
   132   65   66 2    
   133   67   68 2    
   134   67   69 am   BACKBONE|DICT|INTERRES
   135   69   70 1    
   136   69  190 1    
   137   70   71 1    
   138   70   72 1    
   139   70  191 1    
   140   71  192 1    
   141   71  193 1    
   142   71  194 1    
   143   72   73 2    
   144   72   74 am   BACKBONE|DICT|INTERRES
   145   74   75 1    
   146   74  195 1    
   147   75   76 1    
   148   75   77 1    
   149   75  196 1    
   150   76  197 1    
   151   76  198 1    
   152   76  199 1    
   153   77   78 2    
   154   77   79 am   BACKBONE|DICT|INTERRES
   155   79   80 1    
   156   79  200 1    
   157   80   81 1    
   158   80   82 1    
   159   80  201 1    
   160   81  202 1    
   161   81  203 1    
   162   81  204 1    
   163   82   83 2    
   164   82   84 am   BACKBONE|DICT|INTERRES
   165   84   85 1    
   166   84  205 1    
   167   85   86 1    
   168   85   87 1    
   169   85  206 1    
   170   86  207 1    
   171   86  208 1    
   172   86  209 1    
   173   87   88 2    
   174   87   89 am   BACKBONE|DICT|INTERRES
   175   89   90 1    
   176   89  210 1    
   177   90   91 1    
   178   90   92 1    
   179   90  211 1    
   180   91  212 1    
   181   91  213 1    
   182   91  214 1    
   183   92   93 2    
   184   92   94 am   BACKBONE|DICT|INTERRES
   185   94   95 1    
   186   94  215 1    
   187   95   96 1    
   188   95   97 1    
   189   95  216 1    
   190   96  217 1    
   191   96  218 1    
   192   96  219 1    
   193   97   98 2    
   194   97   99 am   BACKBONE|DICT|INTERRES
   195   99  100 1    
   196   99  220 1    
   197  100  101 1    
   198  100  102 1    
   199  100  221 1    
   200  101  222 1    
   201  101  223 1    
   202  101  224 1    
   203  102  103 2    
   204  102  104 am   BACKBONE|DICT|INTERRES
   205  104  105 1    
   206  104  225 1    
   207  105  106 1    
   208  105  107 1    
   209  105  226 1    
   210  106  227 1    
   211  106  228 1    
   212  106  229 1    
   213  107  108 2    
   214  107  109 am   BACKBONE|DICT|INTERRES
   215  109  110 1    
   216  109  230 1    
   217  110  111 1    
   218  110  112 1    
   219  110  231 1    
   220  111  232 1    
   221  111  233 1    
   222  111  234 1    
   223  112  113 2    
   224  112  114 am   BACKBONE|DICT|INTERRES
   225  114  115 1    
   226  114  235 1    
   227  115  116 1    
   228  115  117 1    
   229  115  236 1    
   230  116  237 1    
   231  116  238 1    
   232  116  239 1    
   233  117  118 2    
   234  117  119 am   BACKBONE|DICT|INTERRES
   235  119  120 1    
   236  119  240 1    
   237  120  121 1    
   238  120  124 1    
   239  120  241 1    
   240  121  122 am   BACKBONE|DICT|INTERRES
   241  121  123 2    
   242  122  242 1    
   243  122  243 1    
   244  124  125 1    
   245  124  244 1    
   246  124  245 1    
   247  125  126 1    
   248  126  246 1    
   249  126  247 1    
@<TRIPOS>SUBSTRUCTURE
     1 UNK         1 GROUP             0       ****    0 ROOT    
