@<TRIPOS>MOLECULE
3R540
247   249    1
SMALL
USER_CHARGES


@<TRIPOS>ATOM
      1 CA          6.4311  -12.1469  -46.1416 C.3       0 UNK        -0.1800 
      2 C           4.9519  -12.3548  -46.4285 C.2       0 UNK         0.5000 
      3 O           4.1732  -11.4041  -46.3529 O.2       0 UNK        -0.5000 
      4 N           4.5589  -13.5865  -46.7796 N.am      1 UNK        -0.5000 
      5 CA          3.1740  -13.9757  -47.0787 C.3       1 UNK         0.1400 
      6 C6          3.0078  -15.5066  -47.2364 C.3       23 UNK        -0.0398 
      7 S7          4.1055  -16.2856  -48.4789 S.3       23 UNK        -0.2404 
      8 C8          3.0560  -16.3690  -49.9704 C.3       23 UNK        -0.0205 
      9 C9          1.8370  -17.2587  -49.7817 C.ar      23 UNK        -0.0193 
     10 C10         0.5801  -16.6920  -49.5509 C.ar      23 UNK        -0.1150 
     11 C11        -0.5404  -17.5042  -49.3580 C.ar      23 UNK        -0.0193 
     12 C12        -0.3989  -18.8938  -49.4214 C.ar      23 UNK        -0.1150 
     13 C13         0.8494  -19.4730  -49.6671 C.ar      23 UNK        -0.0193 
     14 C14         1.9639  -18.6487  -49.8453 C.ar      23 UNK        -0.1150 
     15 C15         0.9988  -20.9839  -49.7715 C.3       23 UNK        -0.0205 
     16 S16         1.7307  -21.7173  -48.2748 S.3       23 UNK        -0.2404 
     17 C17         0.3018  -21.8350  -47.1468 C.3       23 UNK        -0.0398 
     18 CA         -0.2574  -23.2857  -47.0447 C.3       11 UNK         0.1400 
     19 N          -0.3181  -23.7393  -45.6526 N.am      11 UNK        -0.5000 
     20 C          -0.0169  -24.9725  -45.2201 C.2       10 UNK         0.5000 
     21 O           0.3919  -25.8716  -45.9512 O.2       10 UNK        -0.5000 
     22 CA         -0.2574  -25.2728  -43.7247 C.3       10 UNK         0.1400 
     23 CB          1.0393  -25.0818  -42.9243 C.3       10 UNK        -0.1800 
     24 N          -1.3111  -24.4488  -43.1274 N.am      10 UNK        -0.5000 
     25 C          -2.5881  -24.4278  -43.5323 C.2       9 UNK         0.5000 
     26 O          -3.0337  -25.1949  -44.3854 O.2       9 UNK        -0.5000 
     27 CA         -3.4991  -23.3245  -42.9571 C.3       9 UNK         0.1400 
     28 CB         -4.4027  -23.8991  -41.8569 C.3       9 UNK        -0.1800 
     29 N          -2.7858  -22.1524  -42.4330 N.am      9 UNK        -0.5000 
     30 C          -1.9590  -21.3594  -43.1302 C.2       8 UNK         0.5000 
     31 O          -1.6576  -21.5531  -44.3112 O.2       8 UNK        -0.5000 
     32 CA         -1.3043  -20.2113  -42.3380 C.3       8 UNK         0.1400 
     33 CB         -0.1942  -20.7618  -41.4272 C.3       8 UNK        -0.1800 
     34 N          -0.7207  -19.1904  -43.2074 N.am      8 UNK        -0.5000 
     35 C          -1.4176  -18.3360  -43.9648 C.2       7 UNK         0.5000 
     36 O          -2.6499  -18.2644  -43.9702 O.2       7 UNK        -0.5000 
     37 CA         -0.5859  -17.4032  -44.8577 C.3       7 UNK         0.1400 
     38 CB          0.1341  -18.1873  -45.9687 C.3       7 UNK        -0.1800 
     39 N          -1.4616  -16.3914  -45.4402 N.am      7 UNK        -0.5000 
     40 C          -1.0864  -15.1638  -45.8069 C.2       6 UNK         0.5000 
     41 O           0.0757  -14.7533  -45.7589 O.2       6 UNK        -0.5000 
     42 CA         -2.2055  -14.2252  -46.2743 C.3       6 UNK         0.1400 
     43 CB         -2.9195  -13.5876  -45.0678 C.3       6 UNK        -0.1800 
     44 N          -1.6351  -13.1886  -47.1248 N.am      6 UNK        -0.5000 
     45 C          -2.3167  -12.3957  -47.9596 C.2       5 UNK         0.5000 
     46 O          -3.5291  -12.4949  -48.1570 O.2       5 UNK        -0.5000 
     47 CA         -1.4971  -11.3052  -48.6818 C.3       5 UNK         0.1400 
     48 CB         -2.3655  -10.1786  -49.2789 C.3       5 UNK        -0.1800 
     49 N          -0.4329  -10.7603  -47.8333 N.am      5 UNK        -0.5000 
     50 C          -0.5600  -10.0973  -46.6737 C.2       4 UNK         0.5000 
     51 O          -1.6358   -9.7525  -46.1839 O.2       4 UNK        -0.5000 
     52 CA          0.7468   -9.7839  -45.9191 C.3       4 UNK         0.1400 
     53 CB          1.0468  -10.8962  -44.9021 C.3       4 UNK        -0.1800 
     54 N           1.9001   -9.6303  -46.8077 N.am      4 UNK        -0.5000 
     55 C           2.0821   -8.6049  -47.6522 C.2       3 UNK         0.5000 
     56 O           1.3266   -7.6354  -47.7286 O.2       3 UNK        -0.5000 
     57 CA          3.2985   -8.6966  -48.5886 C.3       3 UNK         0.1400 
     58 CB          4.5803   -8.2394  -47.8748 C.3       3 UNK        -0.1800 
     59 N           3.4773  -10.0571  -49.0962 N.am      3 UNK        -0.5000 
     60 C           2.7634  -10.5908  -50.0979 C.2       2 UNK         0.5000 
     61 O           1.9164   -9.9706  -50.7405 O.2       2 UNK        -0.5000 
     62 CA          3.0264  -12.0717  -50.4291 C.3       2 UNK         0.1400 
     63 CB          4.1229  -12.2032  -51.4961 C.3       2 UNK        -0.1800 
     64 N           3.4093  -12.8516  -49.2530 N.am      2 UNK        -0.5000 
     65 C           2.5664  -13.2173  -48.2773 C.2       1 UNK         0.5000 
     66 O           1.3637  -12.9584  -48.2856 O.2       1 UNK        -0.5000 
     67 C          -1.6236  -23.4359  -47.7557 C.2       11 UNK         0.5000 
     68 O          -1.7586  -22.9765  -48.8894 O.2       11 UNK        -0.5000 
     69 N          -2.6230  -24.0335  -47.0881 N.am      12 UNK        -0.5000 
     70 CA         -3.9279  -24.3860  -47.6522 C.3       12 UNK         0.1400 
     71 CB         -5.0594  -23.8778  -46.7399 C.3       12 UNK        -0.1800 
     72 C          -4.0226  -25.9110  -47.8038 C.2       12 UNK         0.5000 
     73 O          -4.4319  -26.3977  -48.8563 O.2       12 UNK        -0.5000 
     74 N          -3.6283  -26.6364  -46.7484 N.am      13 UNK        -0.5000 
     75 CA         -3.6237  -28.0971  -46.6868 C.3       13 UNK         0.1400 
     76 CB         -3.5713  -28.5196  -45.2101 C.3       13 UNK        -0.1800 
     77 C          -2.4619  -28.7411  -47.4671 C.2       13 UNK         0.5000 
     78 O          -2.5496  -29.9215  -47.8086 O.2       13 UNK        -0.5000 
     79 N          -1.3966  -27.9746  -47.7220 N.am      14 UNK        -0.5000 
     80 CA         -0.1882  -28.4022  -48.4165 C.3       14 UNK         0.1400 
     81 CB          0.7681  -29.0869  -47.4175 C.3       14 UNK        -0.1800 
     82 C           0.4488  -27.1983  -49.1325 C.2       14 UNK         0.5000 
     83 O          -0.1879  -26.1478  -49.2628 O.2       14 UNK        -0.5000 
     84 N           1.6895  -27.3857  -49.6056 N.am      15 UNK        -0.5000 
     85 CA          2.4837  -26.4428  -50.3973 C.3       15 UNK         0.1400 
     86 CB          2.8627  -25.2027  -49.5551 C.3       15 UNK        -0.1800 
     87 C           1.7768  -26.1220  -51.7304 C.2       15 UNK         0.5000 
     88 O           1.4285  -27.0515  -52.4615 O.2       15 UNK        -0.5000 
     89 N           1.5594  -24.8337  -52.0208 N.am      16 UNK        -0.5000 
     90 CA          0.8190  -24.3642  -53.1932 C.3       16 UNK         0.1400 
     91 CB          1.1608  -22.8840  -53.4304 C.3       16 UNK        -0.1800 
     92 C          -0.7083  -24.5408  -53.0644 C.2       16 UNK         0.5000 
     93 O          -1.4059  -24.4172  -54.0712 O.2       16 UNK        -0.5000 
     94 N          -1.2014  -24.7745  -51.8359 N.am      17 UNK        -0.5000 
     95 CA         -2.6136  -24.8457  -51.4337 C.3       17 UNK         0.1400 
     96 CB         -3.3256  -26.0332  -52.1124 C.3       17 UNK        -0.1800 
     97 C          -3.3790  -23.5128  -51.6114 C.2       17 UNK         0.5000 
     98 O          -4.6107  -23.4985  -51.6023 O.2       17 UNK        -0.5000 
     99 N          -2.6345  -22.4097  -51.7634 N.am      18 UNK        -0.5000 
    100 CA        -3.1412  -21.0791  -52.0771 C.3       18 UNK         0.1400 
    101 CB        -1.9779  -20.1964  -52.5511 C.3       18 UNK        -0.1800 
    102 C         -3.9065  -20.4106  -50.9247 C.2       18 UNK         0.5000 
    103 O         -4.8021  -19.6125  -51.2014 O.2       18 UNK        -0.5000 
    104 N         -3.6003  -20.7531  -49.6613 N.am      19 UNK        -0.5000 
    105 CA        -4.2557  -20.1521  -48.4877 C.3       19 UNK         0.1400 
    106 CB        -3.4053  -20.3258  -47.2209 C.3       19 UNK        -0.1800 
    107 C         -5.7130  -20.6121  -48.2769 C.2       19 UNK         0.5000 
    108 O         -6.3840  -20.1101  -47.3763 O.2       19 UNK        -0.5000 
    109 N         -6.2014  -21.5197  -49.1346 N.am      20 UNK        -0.5000 
    110 CA        -7.6264  -21.7867  -49.3201 C.3       20 UNK         0.1400 
    111 CB        -7.7896  -23.0545  -50.1709 C.3       20 UNK        -0.1800 
    112 C         -8.3611  -20.5910  -49.9681 C.2       20 UNK         0.5000 
    113 O         -9.5567  -20.4204  -49.7278 O.2       20 UNK        -0.5000 
    114 N         -7.6352  -19.7803  -50.7540 N.am      21 UNK        -0.5000 
    115 CA        -8.0948  -18.5121  -51.3107 C.3       21 UNK         0.1400 
    116 CB        -7.6008  -18.3669  -52.7602 C.3       21 UNK        -0.1800 
    117 C         -7.6071  -17.3539  -50.4253 C.2       21 UNK         0.5000 
    118 O         -8.4375  -16.6409  -49.8594 O.2       21 UNK        -0.5000 
    119 N         -6.2812  -17.2010  -50.2825 N.am      22 UNK        -0.5000 
    120 CA        -5.6418  -16.1903  -49.4179 C.3       22 UNK         0.1400 
    121 C         -5.6430  -16.5821  -47.9105 C.2       22 UNK         0.5000 
    122 N         -6.8046  -16.8623  -47.3375 N.am      22 UNK        -0.7600 
    123 O         -4.6095  -16.6380  -47.2526 O.2       22 UNK        -0.5000 
    124 C124       -4.2779  -15.6781  -49.9658 C.3       23 UNK        -0.0398 
    125 S125       -3.0393  -16.9380  -50.4367 S.3       23 UNK        -0.2404 
    126 C126       -1.8866  -16.8763  -49.0323 C.3       23 UNK        -0.0205 
    127 H127        6.5680  -11.8040  -45.1162 H         1 UNK         0.0600 
    128 H128        6.8397  -11.3911  -46.8124 H         1 UNK         0.0600 
    129 H129        7.0029  -13.0658  -46.2737 H         1 UNK         0.0600 
    130 H130        5.2418  -14.3286  -46.8448 H         1 UNK         0.3000 
    131 H131        2.5814  -13.6832  -46.2098 H         1 UNK         0.0600 
    132 H132        3.2206  -15.9826  -46.2786 H         1 UNK         0.0800 
    133 H133        1.9678  -15.7529  -47.4420 H         1 UNK         0.0800 
    134 H134        2.7533  -15.3664  -50.2717 H         1 UNK         0.0800 
    135 H135        3.6563  -16.7568  -50.7946 H         1 UNK         0.0800 
    136 H136        0.4790  -15.6167  -49.4976 H         1 UNK         0.1150 
    137 H137       -1.2627  -19.5233  -49.2820 H         1 UNK         0.1150 
    138 H138        2.9333  -19.0903  -50.0294 H         1 UNK         0.1150 
    139 H139        0.0420  -21.4571  -49.9907 H         1 UNK         0.0800 
    140 H140        1.6501  -21.2131  -50.6154 H         1 UNK         0.0800 
    141 H141       -0.4575  -21.1112  -47.4408 H         1 UNK         0.0800 
    142 H142        0.6500  -21.4875  -46.1730 H         1 UNK         0.0800 
    143 H143        0.4139  -23.9552  -47.5851 H         1 UNK         0.0600 
    144 H144       -0.6922  -23.0593  -44.9956 H         1 UNK         0.3000 
    145 H145       -0.5632  -26.3181  -43.6443 H         1 UNK         0.0600 
    146 H146        0.9051  -25.3673  -41.8807 H         1 UNK         0.0600 
    147 H147        1.8421  -25.7000  -43.3284 H         1 UNK         0.0600 
    148 H148        1.3784  -24.0453  -42.9492 H         1 UNK         0.0600 
    149 H149       -1.0245  -23.7877  -42.4213 H         1 UNK         0.3000 
    150 H150       -4.1342  -22.9786  -43.7752 H         1 UNK         0.0600 
    151 H151       -3.8241  -24.2326  -40.9946 H         1 UNK         0.0600 
    152 H152       -4.9692  -24.7563  -42.2239 H         1 UNK         0.0600 
    153 H153       -5.1253  -23.1590  -41.5123 H         1 UNK         0.0600 
    154 H154       -2.9580  -21.9326  -41.4624 H         1 UNK         0.3000 
    155 H155       -2.0700  -19.7395  -41.7185 H         1 UNK         0.0600 
    156 H156        0.5910  -21.2548  -42.0022 H         1 UNK         0.0600 
    157 H157       -0.5873  -21.4904  -40.7172 H         1 UNK         0.0600 
    158 H158        0.2682  -19.9651  -40.8440 H         1 UNK         0.0600 
    159 H159        0.2852  -19.1990  -43.2854 H         1 UNK         0.3000 
    160 H160        0.1555  -16.9123  -44.2236 H         1 UNK         0.0600 
    161 H161        0.7018  -17.5267  -46.6213 H         1 UNK         0.0600 
    162 H162       -0.5738  -18.7367  -46.5858 H         1 UNK         0.0600 
    163 H163        0.8378  -18.9104  -45.5561 H         1 UNK         0.0600 
    164 H164       -2.4422  -16.6498  -45.4509 H         1 UNK         0.3000 
    165 H165       -2.9215  -14.8004  -46.8593 H         1 UNK         0.0600 
    166 H166       -3.7491  -12.9552  -45.3839 H         1 UNK         0.0600 
    167 H167       -2.2367  -12.9736  -44.4789 H         1 UNK         0.0600 
    168 H168       -3.3315  -14.3514  -44.4073 H         1 UNK         0.0600 
    169 H169       -0.6260  -13.0986  -47.0632 H         1 UNK         0.3000 
    170 H170       -0.9945  -11.8054  -49.5108 H         1 UNK         0.0600 
    171 H171       -3.0588  -10.5735  -50.0222 H         1 UNK         0.0600 
    172 H172       -2.9586   -9.6740  -48.5160 H         1 UNK         0.0600 
    173 H173       -1.7493   -9.4293  -49.7761 H         1 UNK         0.0600 
    174 H174        0.4990  -11.0622  -48.0904 H         1 UNK         0.3000 
    175 H175        0.6049   -8.8477  -45.3754 H         1 UNK         0.0600 
    176 H176        1.9484  -10.6769  -44.3299 H         1 UNK         0.0600 
    177 H177        0.2272  -11.0072  -44.1909 H         1 UNK         0.0600 
    178 H178        1.1869  -11.8605  -45.3917 H         1 UNK         0.0600 
    179 H179        2.6146  -10.3516  -46.7580 H         1 UNK         0.3000 
    180 H180        3.1261   -8.0243  -49.4320 H         1 UNK         0.0600 
    181 H181        4.8131   -8.8659  -47.0134 H         1 UNK         0.0600 
    182 H182        4.4801   -7.2144  -47.5159 H         1 UNK         0.0600 
    183 H183        5.4366   -8.2653  -48.5488 H         1 UNK         0.0600 
    184 H184        4.1147  -10.6497  -48.5836 H         1 UNK         0.3000 
    185 H185        2.1033  -12.4909  -50.8356 H         1 UNK         0.0600 
    186 H186        4.2702  -13.2446  -51.7833 H         1 UNK         0.0600 
    187 H187        3.8566  -11.6523  -52.3992 H         1 UNK         0.0600 
    188 H188        5.0784  -11.8131  -51.1431 H         1 UNK         0.0600 
    189 H189        4.3816  -13.1110  -49.1694 H         1 UNK         0.3000 
    190 H190       -2.4438  -24.3641  -46.1484 H         1 UNK         0.3000 
    191 H191       -4.0584  -23.9311  -48.6356 H         1 UNK         0.0600 
    192 H192       -5.1024  -24.4144  -45.7925 H         1 UNK         0.0600 
    193 H193       -6.0278  -24.0054  -47.2251 H         1 UNK         0.0600 
    194 H194       -4.9529  -22.8207  -46.5077 H         1 UNK         0.0600 
    195 H195       -3.3607  -26.1548  -45.8930 H         1 UNK         0.3000 
    196 H196       -4.5569  -28.4667  -47.1170 H         1 UNK         0.0600 
    197 H197       -3.5980  -29.6055  -45.1111 H         1 UNK         0.0600 
    198 H198       -4.4213  -28.1215  -44.6556 H         1 UNK         0.0600 
    199 H199       -2.6606  -28.1662  -44.7244 H         1 UNK         0.0600 
    200 H200       -1.4074  -26.9979  -47.4592 H         1 UNK         0.3000 
    201 H201       -0.4606  -29.1182  -49.1944 H         1 UNK         0.0600 
    202 H202        1.6338  -29.5183  -47.9202 H         1 UNK         0.0600 
    203 H203        1.1356  -28.3837  -46.6695 H         1 UNK         0.0600 
    204 H204        0.2724  -29.9020  -46.8902 H         1 UNK         0.0600 
    205 H205        2.1117  -28.2936  -49.4741 H         1 UNK         0.3000 
    206 H206        3.4085  -26.9587  -50.6590 H         1 UNK         0.0600 
    207 H207        3.3554  -25.4980  -48.6287 H         1 UNK         0.0600 
    208 H208        3.5570  -24.5557  -50.0925 H         1 UNK         0.0600 
    209 H209        1.9923  -24.6059  -49.2844 H         1 UNK         0.0600 
    210 H210        1.8779  -24.1312  -51.3697 H         1 UNK         0.3000 
    211 H211        1.1456  -24.9345  -54.0655 H         1 UNK         0.0600 
    212 H212        0.8173  -22.2539  -52.6102 H         1 UNK         0.0600 
    213 H213        0.6882  -22.5160  -54.3421 H         1 UNK         0.0600 
    214 H214        2.2352  -22.7376  -53.5423 H         1 UNK         0.0600 
    215 H215       -0.5460  -24.8996  -51.0731 H         1 UNK         0.3000 
    216 H216       -2.5999  -25.0472  -50.3638 H         1 UNK         0.0600 
    217 H217       -4.3224  -26.1793  -51.6949 H         1 UNK         0.0600 
    218 H218       -2.7738  -26.9607  -51.9592 H         1 UNK         0.0600 
    219 H219       -3.4420  -25.8812  -53.1854 H         1 UNK         0.0600 
    220 H220       -1.6341  -22.5143  -51.7011 H         1 UNK         0.3000 
    221 H221       -3.8429  -21.1789  -52.9079 H         1 UNK         0.0600 
    222 H222       -1.1938  -20.1224  -51.7996 H         1 UNK         0.0600 
    223 H223       -1.5294  -20.5931  -53.4621 H         1 UNK         0.0600 
    224 H224       -2.3176  -19.1831  -52.7708 H         1 UNK         0.0600 
    225 H225       -2.9008  -21.4710  -49.4936 H         1 UNK         0.3000 
    226 H226       -4.3119  -19.0784  -48.6694 H         1 UNK         0.0600 
    227 H227       -3.8645  -19.8197  -46.3705 H         1 UNK         0.0600 
    228 H228       -3.2822  -21.3674  -46.9433 H         1 UNK         0.0600 
    229 H229       -2.4191  -19.8880  -47.3453 H         1 UNK         0.0600 
    230 H230       -5.5787  -21.9015  -49.8334 H         1 UNK         0.3000 
    231 H231       -8.0748  -21.9684  -48.3411 H         1 UNK         0.0600 
    232 H232       -7.3655  -22.9269  -51.1678 H         1 UNK         0.0600 
    233 H233       -8.8430  -23.3102  -50.2919 H         1 UNK         0.0600 
    234 H234       -7.2976  -23.9091  -49.7056 H         1 UNK         0.0600 
    235 H235       -6.6443  -19.9687  -50.8716 H         1 UNK         0.3000 
    236 H236       -9.1863  -18.4840  -51.3306 H         1 UNK         0.0600 
    237 H237       -7.9350  -17.4224  -53.1911 H         1 UNK         0.0600 
    238 H238       -6.5134  -18.3924  -52.8326 H         1 UNK         0.0600 
    239 H239       -7.9932  -19.1669  -53.3880 H         1 UNK         0.0600 
    240 H240       -5.6554  -17.8636  -50.7304 H         1 UNK         0.3000 
    241 H241       -6.2792  -15.3040  -49.4448 H         1 UNK         0.0600 
    242 H242       -7.6557  -16.8291  -47.8835 H         1 UNK         0.3800 
    243 H243       -6.8284  -17.1458  -46.3715 H         1 UNK         0.3800 
    244 H244       -3.8339  -14.9665  -49.2693 H         1 UNK         0.0800 
    245 H245       -4.4717  -15.0961  -50.8674 H         1 UNK         0.0800 
    246 H246       -1.7427  -15.8388  -48.7319 H         1 UNK         0.0800 
    247 H247       -2.3241  -17.3924  -48.1780 H         1 UNK         0.0800 
@<TRIPOS>BOND
     1    1    2 1    
     2    1  127 1    
     3    1  128 1    
     4    1  129 1    
     5    2    3 2    
     6    2    4 am   BACKBONE|DICT|INTERRES
     7    4    5 1    
     8    4  130 1    
     9    5    6 1    
    10    5   65 1    
    11    5  131 1    
    12    6    7 1    
    13    6  132 1    
    14    6  133 1    
    15    7    8 1    
    16    8    9 1    
    17    8  134 1    
    18    8  135 1    
    19    9   10 ar   
    20    9   14 ar   
    21   10   11 ar   
    22   10  136 1    
    23   11   12 ar   
    24   11  126 1    
    25   12   13 ar   
    26   12  137 1    
    27   13   14 ar   
    28   13   15 1    
    29   14  138 1    
    30   15   16 1    
    31   15  139 1    
    32   15  140 1    
    33   16   17 1    
    34   17   18 1    
    35   17  141 1    
    36   17  142 1    
    37   18   19 1    
    38   18   67 1    
    39   18  143 1    
    40   19   20 am   BACKBONE|DICT|INTERRES
    41   19  144 1    
    42   20   21 2    
    43   20   22 1    
    44   22   23 1    
    45   22   24 1    
    46   22  145 1    
    47   23  146 1    
    48   23  147 1    
    49   23  148 1    
    50   24   25 am   BACKBONE|DICT|INTERRES
    51   24  149 1    
    52   25   26 2    
    53   25   27 1    
    54   27   28 1    
    55   27   29 1    
    56   27  150 1    
    57   28  151 1    
    58   28  152 1    
    59   28  153 1    
    60   29   30 am   BACKBONE|DICT|INTERRES
    61   29  154 1    
    62   30   31 2    
    63   30   32 1    
    64   32   33 1    
    65   32   34 1    
    66   32  155 1    
    67   33  156 1    
    68   33  157 1    
    69   33  158 1    
    70   34   35 am   BACKBONE|DICT|INTERRES
    71   34  159 1    
    72   35   36 2    
    73   35   37 1    
    74   37   38 1    
    75   37   39 1    
    76   37  160 1    
    77   38  161 1    
    78   38  162 1    
    79   38  163 1    
    80   39   40 am   BACKBONE|DICT|INTERRES
    81   39  164 1    
    82   40   41 2    
    83   40   42 1    
    84   42   43 1    
    85   42   44 1    
    86   42  165 1    
    87   43  166 1    
    88   43  167 1    
    89   43  168 1    
    90   44   45 am   BACKBONE|DICT|INTERRES
    91   44  169 1    
    92   45   46 2    
    93   45   47 1    
    94   47   48 1    
    95   47   49 1    
    96   47  170 1    
    97   48  171 1    
    98   48  172 1    
    99   48  173 1    
   100   49   50 am   BACKBONE|DICT|INTERRES
   101   49  174 1    
   102   50   51 2    
   103   50   52 1    
   104   52   53 1    
   105   52   54 1    
   106   52  175 1    
   107   53  176 1    
   108   53  177 1    
   109   53  178 1    
   110   54   55 am   BACKBONE|DICT|INTERRES
   111   54  179 1    
   112   55   56 2    
   113   55   57 1    
   114   57   58 1    
   115   57   59 1    
   116   57  180 1    
   117   58  181 1    
   118   58  182 1    
   119   58  183 1    
   120   59   60 am   BACKBONE|DICT|INTERRES
   121   59  184 1    
   122   60   61 2    
   123   60   62 1    
   124   62   63 1    
   125   62   64 1    
   126   62  185 1    
   127   63  186 1    
   128   63  187 1    
   129   63  188 1    
   130   64   65 am   BACKBONE|DICT|INTERRES
   131   64  189 1    
   132   65   66 2    
   133   67   68 2    
   134   67   69 am   BACKBONE|DICT|INTERRES
   135   69   70 1    
   136   69  190 1    
   137   70   71 1    
   138   70   72 1    
   139   70  191 1    
   140   71  192 1    
   141   71  193 1    
   142   71  194 1    
   143   72   73 2    
   144   72   74 am   BACKBONE|DICT|INTERRES
   145   74   75 1    
   146   74  195 1    
   147   75   76 1    
   148   75   77 1    
   149   75  196 1    
   150   76  197 1    
   151   76  198 1    
   152   76  199 1    
   153   77   78 2    
   154   77   79 am   BACKBONE|DICT|INTERRES
   155   79   80 1    
   156   79  200 1    
   157   80   81 1    
   158   80   82 1    
   159   80  201 1    
   160   81  202 1    
   161   81  203 1    
   162   81  204 1    
   163   82   83 2    
   164   82   84 am   BACKBONE|DICT|INTERRES
   165   84   85 1    
   166   84  205 1    
   167   85   86 1    
   168   85   87 1    
   169   85  206 1    
   170   86  207 1    
   171   86  208 1    
   172   86  209 1    
   173   87   88 2    
   174   87   89 am   BACKBONE|DICT|INTERRES
   175   89   90 1    
   176   89  210 1    
   177   90   91 1    
   178   90   92 1    
   179   90  211 1    
   180   91  212 1    
   181   91  213 1    
   182   91  214 1    
   183   92   93 2    
   184   92   94 am   BACKBONE|DICT|INTERRES
   185   94   95 1    
   186   94  215 1    
   187   95   96 1    
   188   95   97 1    
   189   95  216 1    
   190   96  217 1    
   191   96  218 1    
   192   96  219 1    
   193   97   98 2    
   194   97   99 am   BACKBONE|DICT|INTERRES
   195   99  100 1    
   196   99  220 1    
   197  100  101 1    
   198  100  102 1    
   199  100  221 1    
   200  101  222 1    
   201  101  223 1    
   202  101  224 1    
   203  102  103 2    
   204  102  104 am   BACKBONE|DICT|INTERRES
   205  104  105 1    
   206  104  225 1    
   207  105  106 1    
   208  105  107 1    
   209  105  226 1    
   210  106  227 1    
   211  106  228 1    
   212  106  229 1    
   213  107  108 2    
   214  107  109 am   BACKBONE|DICT|INTERRES
   215  109  110 1    
   216  109  230 1    
   217  110  111 1    
   218  110  112 1    
   219  110  231 1    
   220  111  232 1    
   221  111  233 1    
   222  111  234 1    
   223  112  113 2    
   224  112  114 am   BACKBONE|DICT|INTERRES
   225  114  115 1    
   226  114  235 1    
   227  115  116 1    
   228  115  117 1    
   229  115  236 1    
   230  116  237 1    
   231  116  238 1    
   232  116  239 1    
   233  117  118 2    
   234  117  119 am   BACKBONE|DICT|INTERRES
   235  119  120 1    
   236  119  240 1    
   237  120  121 1    
   238  120  124 1    
   239  120  241 1    
   240  121  122 am   BACKBONE|DICT|INTERRES
   241  121  123 2    
   242  122  242 1    
   243  122  243 1    
   244  124  125 1    
   245  124  244 1    
   246  124  245 1    
   247  125  126 1    
   248  126  246 1    
   249  126  247 1    
@<TRIPOS>SUBSTRUCTURE
     1 UNK         1 GROUP             0       ****    0 ROOT    
