@<TRIPOS>MOLECULE
3R540
247   249    1
SMALL
USER_CHARGES


@<TRIPOS>ATOM
      1 CA          0.1857  -17.0486  -41.4457 C.3       0 UNK        -0.1800 
      2 C           0.9321  -15.9176  -42.1362 C.2       0 UNK         0.5000 
      3 O           0.5661  -14.7558  -41.9678 O.2       0 UNK        -0.5000 
      4 N           1.9937  -16.2438  -42.8872 N.am      1 UNK        -0.5000 
      5 CA          2.8006  -15.3272  -43.7139 C.3       1 UNK         0.1400 
      6 C6          3.8554  -16.0902  -44.5533 C.3       23 UNK        -0.0398 
      7 S7          3.0991  -17.3539  -45.6292 S.3       23 UNK        -0.2404 
      8 C8          3.5065  -16.7325  -47.2892 C.3       23 UNK        -0.0205 
      9 C9          2.7908  -17.5288  -48.3716 C.ar      23 UNK        -0.0193 
     10 C10         1.8263  -16.9180  -49.1779 C.ar      23 UNK        -0.1150 
     11 C11         1.1631  -17.6420  -50.1726 C.ar      23 UNK        -0.0193 
     12 C12         1.4700  -18.9950  -50.3472 C.ar      23 UNK        -0.1150 
     13 C13         2.4230  -19.6301  -49.5410 C.ar      23 UNK        -0.0193 
     14 C14         3.0858  -18.8817  -48.5637 C.ar      23 UNK        -0.1150 
     15 C15         2.7842  -21.1090  -49.6982 C.3       23 UNK        -0.0205 
     16 S16         1.5780  -22.1501  -50.5991 S.3       23 UNK        -0.2404 
     17 C17         0.0570  -21.9768  -49.6056 C.3       23 UNK        -0.0398 
     18 CA         -0.1334  -23.1411  -48.6083 C.3       11 UNK         0.1400 
     19 N           0.8624  -23.1124  -47.5346 N.am      11 UNK        -0.5000 
     20 C           1.1306  -24.1372  -46.7158 C.2       10 UNK         0.5000 
     21 O           0.5696  -25.2289  -46.7821 O.2       10 UNK        -0.5000 
     22 CA          2.1462  -23.8649  -45.5913 C.3       10 UNK         0.1400 
     23 CB          3.5809  -24.0672  -46.1003 C.3       10 UNK        -0.1800 
     24 N           2.0176  -22.5208  -45.0175 N.am      10 UNK        -0.5000 
     25 C           0.9154  -22.0529  -44.4132 C.2       9 UNK         0.5000 
     26 O          -0.1225  -22.7048  -44.2979 O.2       9 UNK        -0.5000 
     27 CA          0.9506  -20.5970  -43.9325 C.3       9 UNK         0.1400 
     28 CB          2.3098  -20.2025  -43.3223 C.3       9 UNK        -0.1800 
     29 N           0.6594  -19.7416  -45.0802 N.am      9 UNK        -0.5000 
     30 C          -0.3110  -18.8222  -45.1453 C.2       8 UNK         0.5000 
     31 O          -1.0690  -18.5602  -44.2114 O.2       8 UNK        -0.5000 
     32 CA         -0.4434  -18.1057  -46.5048 C.3       8 UNK         0.1400 
     33 CB         -1.4597  -18.8120  -47.4230 C.3       8 UNK        -0.1800 
     34 N          -0.6999  -16.6641  -46.4038 N.am      8 UNK        -0.5000 
     35 C          -1.8195  -16.0355  -46.0149 C.2       7 UNK         0.5000 
     36 O          -2.8683  -16.5971  -45.6971 O.2       7 UNK        -0.5000 
     37 CA         -1.7729  -14.4944  -45.9945 C.3       7 UNK         0.1400 
     38 CB         -1.4417  -13.9916  -44.5830 C.3       7 UNK        -0.1800 
     39 N          -0.8395  -13.8936  -46.9574 N.am      7 UNK        -0.5000 
     40 C          -1.0193  -13.9105  -48.2890 C.2       6 UNK         0.5000 
     41 O          -1.9330  -14.5300  -48.8339 O.2       6 UNK        -0.5000 
     42 CA         -0.0600  -13.0839  -49.1724 C.3       6 UNK         0.1400 
     43 CB         -0.8449  -12.0759  -50.0293 C.3       6 UNK        -0.1800 
     44 N           0.9349  -12.3444  -48.3962 N.am      6 UNK        -0.5000 
     45 C           2.2363  -12.6472  -48.3144 C.2       5 UNK         0.5000 
     46 O           2.7585  -13.5830  -48.9182 O.2       5 UNK        -0.5000 
     47 CA          3.1161  -11.7589  -47.4086 C.3       5 UNK         0.1400 
     48 CB          4.0116  -10.8467  -48.2616 C.3       5 UNK        -0.1800 
     49 N           2.3856  -10.9297  -46.4422 N.am      5 UNK        -0.5000 
     50 C           1.6181  -11.4016  -45.4536 C.2       4 UNK         0.5000 
     51 O           1.3367  -12.5940  -45.3183 O.2       4 UNK        -0.5000 
     52 CA          1.0244  -10.3721  -44.4878 C.3       4 UNK         0.1400 
     53 CB         -0.3302   -9.8564  -45.0090 C.3       4 UNK        -0.1800 
     54 N           0.8703  -11.0193  -43.1914 N.am      4 UNK        -0.5000 
     55 C           0.6685  -10.4067  -42.0205 C.2       3 UNK         0.5000 
     56 O           0.5321   -9.1891  -41.8940 O.2       3 UNK        -0.5000 
     57 CA          0.6427  -11.3104  -40.7762 C.3       3 UNK         0.1400 
     58 CB         -0.7269  -11.9918  -40.6283 C.3       3 UNK        -0.1800 
     59 N           1.6989  -12.3247  -40.8172 N.am      3 UNK        -0.5000 
     60 C           2.9939  -12.0704  -40.5691 C.2       2 UNK         0.5000 
     61 O           3.4166  -10.9592  -40.2468 O.2       2 UNK        -0.5000 
     62 CA          3.9933  -13.2407  -40.6871 C.3       2 UNK         0.1400 
     63 CB          4.2595  -13.8597  -39.3064 C.3       2 UNK        -0.1800 
     64 N           3.5457  -14.2930  -41.5975 N.am      2 UNK        -0.5000 
     65 C           3.4750  -14.1749  -42.9302 C.2       1 UNK         0.5000 
     66 O           3.9102  -13.1992  -43.5422 O.2       1 UNK        -0.5000 
     67 C          -1.5785  -23.1570  -48.0691 C.2       11 UNK         0.5000 
     68 O          -2.4619  -23.6564  -48.7644 O.2       11 UNK        -0.5000 
     69 N          -1.8113  -22.6330  -46.8569 N.am      12 UNK        -0.5000 
     70 CA         -3.1081  -22.7159  -46.1835 C.3       12 UNK         0.1400 
     71 CB         -3.2336  -21.6111  -45.1234 C.3       12 UNK        -0.1800 
     72 C          -3.3180  -24.1117  -45.5758 C.2       12 UNK         0.5000 
     73 O          -4.3982  -24.6805  -45.7298 O.2       12 UNK        -0.5000 
     74 N          -2.2641  -24.6626  -44.9554 N.am      13 UNK        -0.5000 
     75 CA         -2.2315  -26.0192  -44.4028 C.3       13 UNK         0.1400 
     76 CB         -0.9275  -26.2160  -43.6150 C.3       13 UNK        -0.1800 
     77 C          -2.3950  -27.1114  -45.4789 C.2       13 UNK         0.5000 
     78 O          -3.1185  -28.0826  -45.2566 O.2       13 UNK        -0.5000 
     79 N          -1.7522  -26.9124  -46.6379 N.am      14 UNK        -0.5000 
     80 CA         -1.8543  -27.7750  -47.8183 C.3       14 UNK         0.1400 
     81 CB         -0.6458  -27.5063  -48.7297 C.3       14 UNK        -0.1800 
     82 C          -3.1651  -27.5913  -48.6117 C.2       14 UNK         0.5000 
     83 O          -3.4311  -28.3859  -49.5137 O.2       14 UNK        -0.5000 
     84 N          -3.9374  -26.5420  -48.2893 N.am      15 UNK        -0.5000 
     85 CA         -5.1859  -26.1101  -48.9301 C.3       15 UNK         0.1400 
     86 CB         -6.2798  -27.1920  -48.8185 C.3       15 UNK        -0.1800 
     87 C          -5.0070  -25.5921  -50.3741 C.2       15 UNK         0.5000 
     88 O          -5.9909  -25.4512  -51.0998 O.2       15 UNK        -0.5000 
     89 N          -3.7694  -25.2525  -50.7546 N.am      16 UNK        -0.5000 
     90 CA         -3.4237  -24.6138  -52.0237 C.3       16 UNK         0.1400 
     91 CB         -1.8997  -24.6567  -52.2106 C.3       16 UNK        -0.1800 
     92 C          -3.9448  -23.1676  -52.0929 C.2       16 UNK         0.5000 
     93 O          -4.4254  -22.7387  -53.1415 O.2       16 UNK        -0.5000 
     94 N          -3.8902  -22.4552  -50.9590 N.am      17 UNK        -0.5000 
     95 CA         -4.4531  -21.1129  -50.8100 C.3       17 UNK         0.1400 
     96 CB         -3.9193  -20.4701  -49.5226 C.3       17 UNK        -0.1800 
     97 C          -5.9939  -21.1240  -50.8327 C.2       17 UNK         0.5000 
     98 O          -6.5995  -20.2106  -51.3908 O.2       17 UNK        -0.5000 
     99 N          -6.6026  -22.1853  -50.2814 N.am      18 UNK        -0.5000 
    100 CA        -8.0484  -22.4284  -50.3282 C.3       18 UNK         0.1400 
    101 CB        -8.4190  -23.5362  -49.3308 C.3       18 UNK        -0.1800 
    102 C         -8.5377  -22.7735  -51.7491 C.2       18 UNK         0.5000 
    103 O         -9.6277  -22.3539  -52.1377 O.2       18 UNK        -0.5000 
    104 N         -7.6966  -23.4823  -52.5153 N.am      19 UNK        -0.5000 
    105 CA        -7.8747  -23.7674  -53.9417 C.3       19 UNK         0.1400 
    106 CB        -6.9949  -24.9712  -54.3168 C.3       19 UNK        -0.1800 
    107 C         -7.5696  -22.5598  -54.8576 C.2       19 UNK         0.5000 
    108 O         -7.7576  -22.6671  -56.0700 O.2       19 UNK        -0.5000 
    109 N         -7.1102  -21.4437  -54.2717 N.am      20 UNK        -0.5000 
    110 CA        -6.7693  -20.1669  -54.9030 C.3       20 UNK         0.1400 
    111 CB        -8.0037  -19.5284  -55.5745 C.3       20 UNK        -0.1800 
    112 C         -5.5398  -20.2400  -55.8315 C.2       20 UNK         0.5000 
    113 O         -5.4507  -19.4715  -56.7910 O.2       20 UNK        -0.5000 
    114 N         -4.5843  -21.1261  -55.5119 N.am      21 UNK        -0.5000 
    115 CA        -3.2716  -21.1880  -56.1650 C.3       21 UNK         0.1400 
    116 CB        -2.6310  -22.5571  -55.8921 C.3       21 UNK        -0.1800 
    117 C         -2.3353  -20.0503  -55.7036 C.2       21 UNK         0.5000 
    118 O         -1.3711  -19.7325  -56.4003 O.2       21 UNK        -0.5000 
    119 N         -2.6465  -19.4526  -54.5493 N.am      22 UNK        -0.5000 
    120 CA        -2.0086  -18.2692  -53.9722 C.3       22 UNK         0.1400 
    121 C         -3.0621  -17.4681  -53.1599 C.2       22 UNK         0.5000 
    122 N         -2.8981  -16.1595  -53.0311 N.am      22 UNK        -0.7600 
    123 O         -4.0251  -18.0253  -52.6376 O.2       22 UNK        -0.5000 
    124 C124       -0.7646  -18.6507  -53.1289 C.3       23 UNK        -0.0398 
    125 S125        0.3449  -17.2308  -52.8211 S.3       23 UNK        -0.2404 
    126 C126        0.1047  -16.9574  -51.0327 C.3       23 UNK        -0.0205 
    127 H127        0.5939  -18.0253  -41.7024 H         1 UNK         0.0600 
    128 H128       -0.8634  -17.0347  -41.7415 H         1 UNK         0.0600 
    129 H129        0.2382  -16.9283  -40.3639 H         1 UNK         0.0600 
    130 H130        2.2420  -17.2176  -42.9792 H         1 UNK         0.3000 
    131 H131        2.1063  -14.8571  -44.4109 H         1 UNK         0.0600 
    132 H132        4.4315  -15.3976  -45.1700 H         1 UNK         0.0800 
    133 H133        4.5762  -16.5864  -43.9011 H         1 UNK         0.0800 
    134 H134        4.5841  -16.7924  -47.4472 H         1 UNK         0.0800 
    135 H135        3.2390  -15.6771  -47.3491 H         1 UNK         0.0800 
    136 H136        1.5900  -15.8751  -49.0293 H         1 UNK         0.1150 
    137 H137        0.9637  -19.5508  -51.1199 H         1 UNK         0.1150 
    138 H138        3.8327  -19.3537  -47.9403 H         1 UNK         0.1150 
    139 H139        2.9574  -21.5511  -48.7169 H         1 UNK         0.0800 
    140 H140        3.7365  -21.1672  -50.2266 H         1 UNK         0.0800 
    141 H141       -0.7714  -21.9363  -50.3158 H         1 UNK         0.0800 
    142 H142        0.0512  -21.0193  -49.0871 H         1 UNK         0.0800 
    143 H143       -0.0025  -24.0761  -49.1573 H         1 UNK         0.0600 
    144 H144        1.3740  -22.2538  -47.4102 H         1 UNK         0.3000 
    145 H145        1.9592  -24.5880  -44.7949 H         1 UNK         0.0600 
    146 H146        3.7088  -25.0664  -46.5190 H         1 UNK         0.0600 
    147 H147        4.3046  -23.9607  -45.2920 H         1 UNK         0.0600 
    148 H148        3.8394  -23.3493  -46.8797 H         1 UNK         0.0600 
    149 H149        2.8359  -21.9313  -45.0622 H         1 UNK         0.3000 
    150 H150        0.1835  -20.4934  -43.1621 H         1 UNK         0.0600 
    151 H151        3.1128  -20.2022  -44.0600 H         1 UNK         0.0600 
    152 H152        2.5931  -20.8861  -42.5209 H         1 UNK         0.0600 
    153 H153        2.2686  -19.2037  -42.8923 H         1 UNK         0.0600 
    154 H154        1.2473  -19.8778  -45.8890 H         1 UNK         0.3000 
    155 H155        0.5236  -18.1845  -46.9968 H         1 UNK         0.0600 
    156 H156       -2.4759  -18.7611  -47.0338 H         1 UNK         0.0600 
    157 H157       -1.4603  -18.3725  -48.4204 H         1 UNK         0.0600 
    158 H158       -1.2165  -19.8676  -47.5304 H         1 UNK         0.0600 
    159 H159        0.0915  -16.0761  -46.6190 H         1 UNK         0.3000 
    160 H160       -2.7759  -14.1414  -46.2439 H         1 UNK         0.0600 
    161 H161       -0.4262  -14.2637  -44.3016 H         1 UNK         0.0600 
    162 H162       -2.1138  -14.4224  -43.8397 H         1 UNK         0.0600 
    163 H163       -1.5311  -12.9085  -44.5127 H         1 UNK         0.0600 
    164 H164       -0.0471  -13.3958  -46.5648 H         1 UNK         0.3000 
    165 H165        0.4330  -13.7824  -49.8497 H         1 UNK         0.0600 
    166 H166       -0.1778  -11.5088  -50.6788 H         1 UNK         0.0600 
    167 H167       -1.5661  -12.5816  -50.6726 H         1 UNK         0.0600 
    168 H168       -1.3959  -11.3655  -49.4117 H         1 UNK         0.0600 
    169 H169        0.5980  -11.5532  -47.8677 H         1 UNK         0.3000 
    170 H170        3.7604  -12.4318  -46.8384 H         1 UNK         0.0600 
    171 H171        3.4230  -10.1294  -48.8351 H         1 UNK         0.0600 
    172 H172        4.7126  -10.2882  -47.6411 H         1 UNK         0.0600 
    173 H173        4.6023  -11.4281  -48.9710 H         1 UNK         0.0600 
    174 H174        2.5427   -9.9339  -46.5047 H         1 UNK         0.3000 
    175 H175        1.7231   -9.5393  -44.3855 H         1 UNK         0.0600 
    176 H176       -1.0565  -10.6626  -45.1121 H         1 UNK         0.0600 
    177 H177       -0.7566   -9.1073  -44.3421 H         1 UNK         0.0600 
    178 H178       -0.2196   -9.3879  -45.9875 H         1 UNK         0.0600 
    179 H179        0.9942  -12.0243  -43.2152 H         1 UNK         0.3000 
    180 H180        0.7994  -10.6806  -39.8977 H         1 UNK         0.0600 
    181 H181       -0.9692  -12.6084  -41.4947 H         1 UNK         0.0600 
    182 H182       -1.5199  -11.2504  -40.5241 H         1 UNK         0.0600 
    183 H183       -0.7578  -12.6291  -39.7445 H         1 UNK         0.0600 
    184 H184        1.4182  -13.2562  -41.1122 H         1 UNK         0.3000 
    185 H185        4.9336  -12.8351  -41.0666 H         1 UNK         0.0600 
    186 H186        4.6236  -13.1080  -38.6048 H         1 UNK         0.0600 
    187 H187        3.3553  -14.2961  -38.8799 H         1 UNK         0.0600 
    188 H188        5.0164  -14.6423  -39.3637 H         1 UNK         0.0600 
    189 H189        3.1613  -15.1255  -41.1757 H         1 UNK         0.3000 
    190 H190       -1.0354  -22.3054  -46.2994 H         1 UNK         0.3000 
    191 H191       -3.9004  -22.5563  -46.9171 H         1 UNK         0.0600 
    192 H192       -3.1119  -20.6233  -45.5665 H         1 UNK         0.0600 
    193 H193       -4.2182  -21.6357  -44.6552 H         1 UNK         0.0600 
    194 H194       -2.4955  -21.7130  -44.3289 H         1 UNK         0.0600 
    195 H195       -1.4250  -24.1031  -44.8393 H         1 UNK         0.3000 
    196 H196       -3.0668  -26.1131  -43.7058 H         1 UNK         0.0600 
    197 H197       -0.8962  -27.2035  -43.1530 H         1 UNK         0.0600 
    198 H198       -0.8340  -25.4793  -42.8169 H         1 UNK         0.0600 
    199 H199       -0.0507  -26.1261  -44.2565 H         1 UNK         0.0600 
    200 H200       -1.0997  -26.1353  -46.7040 H         1 UNK         0.3000 
    201 H201       -1.8119  -28.8164  -47.4927 H         1 UNK         0.0600 
    202 H202       -0.6537  -28.1646  -49.5993 H         1 UNK         0.0600 
    203 H203        0.2924  -27.6792  -48.2022 H         1 UNK         0.0600 
    204 H204       -0.6402  -26.4792  -49.0957 H         1 UNK         0.0600 
    205 H205       -3.6297  -25.9586  -47.5226 H         1 UNK         0.3000 
    206 H206       -5.5250  -25.2491  -48.3524 H         1 UNK         0.0600 
    207 H207       -6.3930  -27.5322  -47.7891 H         1 UNK         0.0600 
    208 H208       -7.2481  -26.8066  -49.1389 H         1 UNK         0.0600 
    209 H209       -6.0581  -28.0609  -49.4382 H         1 UNK         0.0600 
    210 H210       -3.0381  -25.2997  -50.0579 H         1 UNK         0.3000 
    211 H211       -3.8873  -25.1802  -52.8336 H         1 UNK         0.0600 
    212 H212       -1.6078  -24.2144  -53.1632 H         1 UNK         0.0600 
    213 H213       -1.5325  -25.6831  -52.2047 H         1 UNK         0.0600 
    214 H214       -1.3789  -24.1124  -51.4228 H         1 UNK         0.0600 
    215 H215       -3.4735  -22.8837  -50.1366 H         1 UNK         0.3000 
    216 H216       -4.1127  -20.5100  -51.6538 H         1 UNK         0.0600 
    217 H217       -4.2731  -19.4429  -49.4260 H         1 UNK         0.0600 
    218 H218       -2.8302  -20.4383  -49.5226 H         1 UNK         0.0600 
    219 H219       -4.2420  -21.0134  -48.6353 H         1 UNK         0.0600 
    220 H220       -6.0321  -22.9036  -49.8640 H         1 UNK         0.3000 
    221 H221       -8.5547  -21.5122  -50.0168 H         1 UNK         0.0600 
    222 H222       -7.9704  -24.4915  -49.6000 H         1 UNK         0.0600 
    223 H223       -8.0959  -23.2846  -48.3206 H         1 UNK         0.0600 
    224 H224       -9.4994  -23.6826  -49.2992 H         1 UNK         0.0600 
    225 H225       -6.8600  -23.8635  -52.0879 H         1 UNK         0.3000 
    226 H226       -8.9173  -24.0445  -54.1096 H         1 UNK         0.0600 
    227 H227       -7.1554  -25.2673  -55.3541 H         1 UNK         0.0600 
    228 H228       -5.9350  -24.7456  -54.2016 H         1 UNK         0.0600 
    229 H229       -7.2228  -25.8366  -53.6941 H         1 UNK         0.0600 
    230 H230       -6.9755  -21.4696  -53.2699 H         1 UNK         0.3000 
    231 H231       -6.4742  -19.5069  -54.0860 H         1 UNK         0.0600 
    232 H232       -8.3178  -20.0820  -56.4596 H         1 UNK         0.0600 
    233 H233       -7.7922  -18.5057  -55.8887 H         1 UNK         0.0600 
    234 H234       -8.8482  -19.4859  -54.8866 H         1 UNK         0.0600 
    235 H235       -4.7139  -21.7300  -54.7027 H         1 UNK         0.3000 
    236 H236       -3.4129  -21.0891  -57.2432 H         1 UNK         0.0600 
    237 H237       -2.3711  -22.6749  -54.8407 H         1 UNK         0.0600 
    238 H238       -3.3004  -23.3720  -56.1680 H         1 UNK         0.0600 
    239 H239       -1.7133  -22.6779  -56.4688 H         1 UNK         0.0600 
    240 H240       -3.4781  -19.7524  -54.0588 H         1 UNK         0.3000 
    241 H241       -1.6919  -17.6334  -54.8018 H         1 UNK         0.0600 
    242 H242       -2.1055  -15.6862  -53.4360 H         1 UNK         0.3800 
    243 H243       -3.5746  -15.6327  -52.5016 H         1 UNK         0.3800 
    244 H244       -0.1722  -19.3958  -53.6616 H         1 UNK         0.0800 
    245 H245       -1.0640  -19.1264  -52.1937 H         1 UNK         0.0800 
    246 H246        0.1246  -15.8811  -50.8638 H         1 UNK         0.0800 
    247 H247       -0.8875  -17.2876  -50.7224 H         1 UNK         0.0800 
@<TRIPOS>BOND
     1    1    2 1    
     2    1  127 1    
     3    1  128 1    
     4    1  129 1    
     5    2    3 2    
     6    2    4 am   BACKBONE|DICT|INTERRES
     7    4    5 1    
     8    4  130 1    
     9    5    6 1    
    10    5   65 1    
    11    5  131 1    
    12    6    7 1    
    13    6  132 1    
    14    6  133 1    
    15    7    8 1    
    16    8    9 1    
    17    8  134 1    
    18    8  135 1    
    19    9   10 ar   
    20    9   14 ar   
    21   10   11 ar   
    22   10  136 1    
    23   11   12 ar   
    24   11  126 1    
    25   12   13 ar   
    26   12  137 1    
    27   13   14 ar   
    28   13   15 1    
    29   14  138 1    
    30   15   16 1    
    31   15  139 1    
    32   15  140 1    
    33   16   17 1    
    34   17   18 1    
    35   17  141 1    
    36   17  142 1    
    37   18   19 1    
    38   18   67 1    
    39   18  143 1    
    40   19   20 am   BACKBONE|DICT|INTERRES
    41   19  144 1    
    42   20   21 2    
    43   20   22 1    
    44   22   23 1    
    45   22   24 1    
    46   22  145 1    
    47   23  146 1    
    48   23  147 1    
    49   23  148 1    
    50   24   25 am   BACKBONE|DICT|INTERRES
    51   24  149 1    
    52   25   26 2    
    53   25   27 1    
    54   27   28 1    
    55   27   29 1    
    56   27  150 1    
    57   28  151 1    
    58   28  152 1    
    59   28  153 1    
    60   29   30 am   BACKBONE|DICT|INTERRES
    61   29  154 1    
    62   30   31 2    
    63   30   32 1    
    64   32   33 1    
    65   32   34 1    
    66   32  155 1    
    67   33  156 1    
    68   33  157 1    
    69   33  158 1    
    70   34   35 am   BACKBONE|DICT|INTERRES
    71   34  159 1    
    72   35   36 2    
    73   35   37 1    
    74   37   38 1    
    75   37   39 1    
    76   37  160 1    
    77   38  161 1    
    78   38  162 1    
    79   38  163 1    
    80   39   40 am   BACKBONE|DICT|INTERRES
    81   39  164 1    
    82   40   41 2    
    83   40   42 1    
    84   42   43 1    
    85   42   44 1    
    86   42  165 1    
    87   43  166 1    
    88   43  167 1    
    89   43  168 1    
    90   44   45 am   BACKBONE|DICT|INTERRES
    91   44  169 1    
    92   45   46 2    
    93   45   47 1    
    94   47   48 1    
    95   47   49 1    
    96   47  170 1    
    97   48  171 1    
    98   48  172 1    
    99   48  173 1    
   100   49   50 am   BACKBONE|DICT|INTERRES
   101   49  174 1    
   102   50   51 2    
   103   50   52 1    
   104   52   53 1    
   105   52   54 1    
   106   52  175 1    
   107   53  176 1    
   108   53  177 1    
   109   53  178 1    
   110   54   55 am   BACKBONE|DICT|INTERRES
   111   54  179 1    
   112   55   56 2    
   113   55   57 1    
   114   57   58 1    
   115   57   59 1    
   116   57  180 1    
   117   58  181 1    
   118   58  182 1    
   119   58  183 1    
   120   59   60 am   BACKBONE|DICT|INTERRES
   121   59  184 1    
   122   60   61 2    
   123   60   62 1    
   124   62   63 1    
   125   62   64 1    
   126   62  185 1    
   127   63  186 1    
   128   63  187 1    
   129   63  188 1    
   130   64   65 am   BACKBONE|DICT|INTERRES
   131   64  189 1    
   132   65   66 2    
   133   67   68 2    
   134   67   69 am   BACKBONE|DICT|INTERRES
   135   69   70 1    
   136   69  190 1    
   137   70   71 1    
   138   70   72 1    
   139   70  191 1    
   140   71  192 1    
   141   71  193 1    
   142   71  194 1    
   143   72   73 2    
   144   72   74 am   BACKBONE|DICT|INTERRES
   145   74   75 1    
   146   74  195 1    
   147   75   76 1    
   148   75   77 1    
   149   75  196 1    
   150   76  197 1    
   151   76  198 1    
   152   76  199 1    
   153   77   78 2    
   154   77   79 am   BACKBONE|DICT|INTERRES
   155   79   80 1    
   156   79  200 1    
   157   80   81 1    
   158   80   82 1    
   159   80  201 1    
   160   81  202 1    
   161   81  203 1    
   162   81  204 1    
   163   82   83 2    
   164   82   84 am   BACKBONE|DICT|INTERRES
   165   84   85 1    
   166   84  205 1    
   167   85   86 1    
   168   85   87 1    
   169   85  206 1    
   170   86  207 1    
   171   86  208 1    
   172   86  209 1    
   173   87   88 2    
   174   87   89 am   BACKBONE|DICT|INTERRES
   175   89   90 1    
   176   89  210 1    
   177   90   91 1    
   178   90   92 1    
   179   90  211 1    
   180   91  212 1    
   181   91  213 1    
   182   91  214 1    
   183   92   93 2    
   184   92   94 am   BACKBONE|DICT|INTERRES
   185   94   95 1    
   186   94  215 1    
   187   95   96 1    
   188   95   97 1    
   189   95  216 1    
   190   96  217 1    
   191   96  218 1    
   192   96  219 1    
   193   97   98 2    
   194   97   99 am   BACKBONE|DICT|INTERRES
   195   99  100 1    
   196   99  220 1    
   197  100  101 1    
   198  100  102 1    
   199  100  221 1    
   200  101  222 1    
   201  101  223 1    
   202  101  224 1    
   203  102  103 2    
   204  102  104 am   BACKBONE|DICT|INTERRES
   205  104  105 1    
   206  104  225 1    
   207  105  106 1    
   208  105  107 1    
   209  105  226 1    
   210  106  227 1    
   211  106  228 1    
   212  106  229 1    
   213  107  108 2    
   214  107  109 am   BACKBONE|DICT|INTERRES
   215  109  110 1    
   216  109  230 1    
   217  110  111 1    
   218  110  112 1    
   219  110  231 1    
   220  111  232 1    
   221  111  233 1    
   222  111  234 1    
   223  112  113 2    
   224  112  114 am   BACKBONE|DICT|INTERRES
   225  114  115 1    
   226  114  235 1    
   227  115  116 1    
   228  115  117 1    
   229  115  236 1    
   230  116  237 1    
   231  116  238 1    
   232  116  239 1    
   233  117  118 2    
   234  117  119 am   BACKBONE|DICT|INTERRES
   235  119  120 1    
   236  119  240 1    
   237  120  121 1    
   238  120  124 1    
   239  120  241 1    
   240  121  122 am   BACKBONE|DICT|INTERRES
   241  121  123 2    
   242  122  242 1    
   243  122  243 1    
   244  124  125 1    
   245  124  244 1    
   246  124  245 1    
   247  125  126 1    
   248  126  246 1    
   249  126  247 1    
@<TRIPOS>SUBSTRUCTURE
     1 UNK         1 GROUP             0       ****    0 ROOT    
