@<TRIPOS>MOLECULE
3R540
247   249    1
SMALL
USER_CHARGES


@<TRIPOS>ATOM
      1 CA         -2.5800  -13.5182  -45.0474 C.3       0 UNK        -0.1800 
      2 C          -2.5274  -12.7849  -46.3796 C.2       0 UNK         0.5000 
      3 O          -2.4896  -11.5548  -46.4027 O.2       0 UNK        -0.5000 
      4 N          -2.5353  -13.5346  -47.4897 N.am      1 UNK        -0.5000 
      5 CA         -2.5174  -13.0121  -48.8628 C.3       1 UNK         0.1400 
      6 C6         -2.9867  -14.0643  -49.9043 C.3       23 UNK        -0.0398 
      7 S7         -2.2405  -15.7263  -49.7346 S.3       23 UNK        -0.2404 
      8 C8         -0.7998  -15.5965  -50.8410 C.3       23 UNK        -0.0205 
      9 C9          0.0418  -16.8641  -50.8368 C.ar      23 UNK        -0.0193 
     10 C10         0.2983  -17.5428  -52.0312 C.ar      23 UNK        -0.1150 
     11 C11         1.0832  -18.7003  -52.0393 C.ar      23 UNK        -0.0193 
     12 C12         1.6188  -19.1741  -50.8357 C.ar      23 UNK        -0.1150 
     13 C13         1.3850  -18.4943  -49.6360 C.ar      23 UNK        -0.0193 
     14 C14         0.5979  -17.3396  -49.6452 C.ar      23 UNK        -0.1150 
     15 C15         2.0129  -18.9709  -48.3334 C.3       23 UNK        -0.0205 
     16 S16         0.8322  -19.8769  -47.2862 S.3       23 UNK        -0.2404 
     17 C17         1.3106  -21.6029  -47.6132 C.3       23 UNK        -0.0398 
     18 CA          0.5516  -22.6694  -46.7849 C.3       11 UNK         0.1400 
     19 N           0.7071  -22.5188  -45.3338 N.am      11 UNK        -0.5000 
     20 C           0.5561  -23.5406  -44.4770 C.2       10 UNK         0.5000 
     21 O           0.3255  -24.6971  -44.8323 O.2       10 UNK        -0.5000 
     22 CA          0.6464  -23.2284  -42.9727 C.3       10 UNK         0.1400 
     23 CB          2.1098  -23.1154  -42.5193 C.3       10 UNK        -0.1800 
     24 N          -0.0861  -22.0239  -42.5864 N.am      10 UNK        -0.5000 
     25 C          -1.4112  -21.8631  -42.7091 C.2       9 UNK         0.5000 
     26 O          -2.1650  -22.7160  -43.1747 O.2       9 UNK        -0.5000 
     27 CA         -1.9893  -20.5072  -42.2699 C.3       9 UNK         0.1400 
     28 CB         -2.2126  -20.4659  -40.7508 C.3       9 UNK        -0.1800 
     29 N          -1.1396  -19.3902  -42.6796 N.am      9 UNK        -0.5000 
     30 C          -0.9587  -19.0204  -43.9551 C.2       8 UNK         0.5000 
     31 O          -1.5209  -19.5604  -44.9056 O.2       8 UNK        -0.5000 
     32 CA          0.0333  -17.8729  -44.2090 C.3       8 UNK         0.1400 
     33 CB         -0.6742  -16.5188  -44.0636 C.3       8 UNK        -0.1800 
     34 N           1.1971  -17.9185  -43.3235 N.am      8 UNK        -0.5000 
     35 C           2.1002  -18.9099  -43.2988 C.2       7 UNK         0.5000 
     36 O           2.0784  -19.8813  -44.0553 O.2       7 UNK        -0.5000 
     37 CA          3.1687  -18.8332  -42.1934 C.3       7 UNK         0.1400 
     38 CB          4.2672  -17.8202  -42.5514 C.3       7 UNK        -0.1800 
     39 N           2.5937  -18.4995  -40.8880 N.am      7 UNK        -0.5000 
     40 C           1.7226  -19.2632  -40.2153 C.2       6 UNK         0.5000 
     41 O           1.3377  -20.3598  -40.6193 O.2       6 UNK        -0.5000 
     42 CA          1.1323  -18.7030  -38.9046 C.3       6 UNK         0.1400 
     43 CB          2.0550  -18.9832  -37.7031 C.3       6 UNK        -0.1800 
     44 N           0.7364  -17.2895  -38.9899 N.am      6 UNK        -0.5000 
     45 C           1.5215  -16.2095  -39.0924 C.2       5 UNK         0.5000 
     46 O           2.7531  -16.2410  -39.0289 O.2       5 UNK        -0.5000 
     47 CA          0.8014  -14.8719  -39.3580 C.3       5 UNK         0.1400 
     48 CB          0.5577  -14.1205  -38.0407 C.3       5 UNK        -0.1800 
     49 N           1.5521  -14.0062  -40.2717 N.am      5 UNK        -0.5000 
     50 C           1.9573  -14.3505  -41.5020 C.2       4 UNK         0.5000 
     51 O           1.6693  -15.4247  -42.0371 O.2       4 UNK        -0.5000 
     52 CA          2.8682  -13.3351  -42.2223 C.3       4 UNK         0.1400 
     53 CB          4.2038  -13.1768  -41.4746 C.3       4 UNK        -0.1800 
     54 N           3.1661  -13.7297  -43.5987 N.am      4 UNK        -0.5000 
     55 C           2.3101  -13.6697  -44.6245 C.2       3 UNK         0.5000 
     56 O           1.1676  -13.2108  -44.5466 O.2       3 UNK        -0.5000 
     57 CA          2.8344  -14.2429  -45.9554 C.3       3 UNK         0.1400 
     58 CB          2.7762  -15.7784  -45.9554 C.3       3 UNK        -0.1800 
     59 N           2.0970  -13.7487  -47.1172 N.am      3 UNK        -0.5000 
     60 C           2.1571  -12.4937  -47.5833 C.2       2 UNK         0.5000 
     61 O           2.8749  -11.6139  -47.1060 O.2       2 UNK        -0.5000 
     62 CA          1.2605  -12.1742  -48.7855 C.3       2 UNK         0.1400 
     63 CB          1.8904  -12.7097  -50.0872 C.3       2 UNK        -0.1800 
     64 N          -0.0812  -12.7212  -48.5780 N.am      2 UNK        -0.5000 
     65 C          -1.1727  -12.3665  -49.2681 C.2       1 UNK         0.5000 
     66 O          -1.1562  -11.5573  -50.1968 O.2       1 UNK        -0.5000 
     67 C          -0.9289  -22.8448  -47.1884 C.2       11 UNK         0.5000 
     68 O          -1.2234  -23.7198  -48.0049 O.2       11 UNK        -0.5000 
     69 N          -1.8481  -22.0916  -46.5617 N.am      12 UNK        -0.5000 
     70 CA         -3.2923  -22.2028  -46.7929 C.3       12 UNK         0.1400 
     71 CB         -4.0374  -21.0821  -46.0559 C.3       12 UNK        -0.1800 
     72 C          -3.8729  -23.5781  -46.4137 C.2       12 UNK         0.5000 
     73 O          -4.7604  -24.0674  -47.1117 O.2       12 UNK        -0.5000 
     74 N          -3.3307  -24.2107  -45.3632 N.am      13 UNK        -0.5000 
     75 CA         -3.6595  -25.5784  -44.9477 C.3       13 UNK         0.1400 
     76 CB         -2.9953  -25.8737  -43.5946 C.3       13 UNK        -0.1800 
     77 C          -3.2701  -26.6515  -45.9865 C.2       13 UNK         0.5000 
     78 O          -3.8917  -27.7139  -46.0182 O.2       13 UNK        -0.5000 
     79 N          -2.2791  -26.3460  -46.8346 N.am      14 UNK        -0.5000 
     80 CA         -1.8602  -27.1590  -47.9779 C.3       14 UNK         0.1400 
     81 CB         -0.3305  -27.0595  -48.1129 C.3       14 UNK        -0.1800 
     82 C          -2.5653  -26.7359  -49.2864 C.2       14 UNK         0.5000 
     83 O          -2.2124  -27.2489  -50.3486 O.2       14 UNK        -0.5000 
     84 N          -3.5260  -25.8014  -49.1944 N.am      15 UNK        -0.5000 
     85 CA         -4.2916  -25.1631  -50.2727 C.3       15 UNK         0.1400 
     86 CB         -5.0847  -26.1984  -51.0967 C.3       15 UNK        -0.1800 
     87 C          -3.4630  -24.2142  -51.1633 C.2       15 UNK         0.5000 
     88 O          -3.9742  -23.7443  -52.1790 O.2       15 UNK        -0.5000 
     89 N          -2.2222  -23.9093  -50.7657 N.am      16 UNK        -0.5000 
     90 CA         -1.3360  -22.9694  -51.4395 C.3       16 UNK         0.1400 
     91 CB          0.1221  -23.4181  -51.2366 C.3       16 UNK        -0.1800 
     92 C          -1.6062  -21.5588  -50.8979 C.2       16 UNK         0.5000 
     93 O          -0.8880  -21.0841  -50.0233 O.2       16 UNK        -0.5000 
     94 N          -2.6674  -20.9313  -51.4039 N.am      17 UNK        -0.5000 
     95 CA         -3.0364  -19.5519  -51.1175 C.3       17 UNK         0.1400 
     96 CB         -4.0417  -19.5147  -49.9545 C.3       17 UNK        -0.1800 
     97 C          -3.6169  -18.9316  -52.3930 C.2       17 UNK         0.5000 
     98 O          -3.9454  -19.6599  -53.3390 O.2       17 UNK        -0.5000 
     99 N          -3.7190  -17.5964  -52.4037 N.am      18 UNK        -0.5000 
    100 CA        -4.2527  -16.7993  -53.5091 C.3       18 UNK         0.1400 
    101 CB        -4.1901  -15.3087  -53.1466 C.3       18 UNK        -0.1800 
    102 C         -5.6887  -17.2114  -53.8774 C.2       18 UNK         0.5000 
    103 O         -6.5686  -17.1813  -53.0155 O.2       18 UNK        -0.5000 
    104 N         -5.8709  -17.6291  -55.1358 N.am      19 UNK        -0.5000 
    105 CA        -7.0925  -18.1520  -55.7600 C.3       19 UNK         0.1400 
    106 CB        -8.2634  -17.1544  -55.6504 C.3       19 UNK        -0.1800 
    107 C         -7.5008  -19.5684  -55.3002 C.2       19 UNK         0.5000 
    108 O         -8.3515  -20.1766  -55.9514 O.2       19 UNK        -0.5000 
    109 N         -6.8820  -20.0972  -54.2347 N.am      20 UNK        -0.5000 
    110 CA        -7.0212  -21.4914  -53.8089 C.3       20 UNK         0.1400 
    111 CB        -6.6373  -21.6251  -52.3272 C.3       20 UNK        -0.1800 
    112 C         -6.1657  -22.4199  -54.6893 C.2       20 UNK         0.5000 
    113 O         -6.6120  -23.5156  -55.0325 O.2       20 UNK        -0.5000 
    114 N         -4.9806  -21.9341  -55.0795 N.am      21 UNK        -0.5000 
    115 CA        -4.0785  -22.5714  -56.0365 C.3       21 UNK         0.1400 
    116 CB        -3.3217  -23.7457  -55.3900 C.3       21 UNK        -0.1800 
    117 C         -3.0899  -21.5542  -56.6228 C.2       21 UNK         0.5000 
    118 O         -2.7573  -21.6516  -57.8048 O.2       21 UNK        -0.5000 
    119 N         -2.6315  -20.6050  -55.7972 N.am      22 UNK        -0.5000 
    120 CA        -1.6825  -19.5543  -56.1866 C.3       22 UNK         0.1400 
    121 C         -2.3789  -18.4045  -56.9653 C.2       22 UNK         0.5000 
    122 N         -1.6685  -17.7389  -57.8648 N.am      22 UNK        -0.7600 
    123 O         -3.5430  -18.0811  -56.7350 O.2       22 UNK        -0.5000 
    124 C124       -0.9119  -19.0004  -54.9614 C.3       23 UNK        -0.0398 
    125 S125       -0.0436  -20.3076  -54.0216 S.3       23 UNK        -0.2404 
    126 C126        1.3939  -19.4126  -53.3502 C.3       23 UNK        -0.0205 
    127 H127       -1.5955  -13.5218  -44.5799 H         1 UNK         0.0600 
    128 H128       -2.9088  -14.5496  -45.1715 H         1 UNK         0.0600 
    129 H129       -3.2775  -13.0236  -44.3714 H         1 UNK         0.0600 
    130 H130       -2.5698  -14.5420  -47.4160 H         1 UNK         0.3000 
    131 H131       -3.2462  -12.1990  -48.8970 H         1 UNK         0.0600 
    132 H132       -4.0640  -14.1972  -49.7973 H         1 UNK         0.0800 
    133 H133       -2.8480  -13.6979  -50.9229 H         1 UNK         0.0800 
    134 H134       -1.1404  -15.3639  -51.8501 H         1 UNK         0.0800 
    135 H135       -0.1696  -14.7661  -50.5300 H         1 UNK         0.0800 
    136 H136       -0.1039  -17.1627  -52.9584 H         1 UNK         0.1150 
    137 H137        2.2288  -20.0661  -50.8324 H         1 UNK         0.1150 
    138 H138        0.4153  -16.8114  -48.7202 H         1 UNK         0.1150 
    139 H139        2.8935  -19.5832  -48.5317 H         1 UNK         0.0800 
    140 H140        2.3715  -18.1079  -47.7741 H         1 UNK         0.0800 
    141 H141        2.3772  -21.6948  -47.4049 H         1 UNK         0.0800 
    142 H142        1.2038  -21.7998  -48.6800 H         1 UNK         0.0800 
    143 H143        1.0306  -23.6150  -47.0504 H         1 UNK         0.0600 
    144 H144        0.9086  -21.5892  -44.9823 H         1 UNK         0.3000 
    145 H145        0.1953  -24.0670  -42.4381 H         1 UNK         0.0600 
    146 H146        2.1782  -22.9783  -41.4400 H         1 UNK         0.0600 
    147 H147        2.6663  -24.0197  -42.7684 H         1 UNK         0.0600 
    148 H148        2.6175  -22.2764  -42.9950 H         1 UNK         0.0600 
    149 H149        0.4565  -21.2856  -42.1497 H         1 UNK         0.3000 
    150 H150       -2.9607  -20.3863  -42.7538 H         1 UNK         0.0600 
    151 H151       -2.9055  -21.2494  -40.4416 H         1 UNK         0.0600 
    152 H152       -2.6402  -19.5130  -40.4388 H         1 UNK         0.0600 
    153 H153       -1.2858  -20.6172  -40.1984 H         1 UNK         0.0600 
    154 H154       -0.6136  -18.9186  -41.9605 H         1 UNK         0.3000 
    155 H155        0.3894  -17.9584  -45.2351 H         1 UNK         0.0600 
    156 H156       -1.0190  -16.3497  -43.0428 H         1 UNK         0.0600 
    157 H157       -0.0133  -15.6957  -44.3313 H         1 UNK         0.0600 
    158 H158       -1.5425  -16.4653  -44.7205 H         1 UNK         0.0600 
    159 H159        1.3279  -17.1199  -42.7053 H         1 UNK         0.3000 
    160 H160        3.6308  -19.8193  -42.1120 H         1 UNK         0.0600 
    161 H161        5.0684  -17.8322  -41.8124 H         1 UNK         0.0600 
    162 H162        3.8804  -16.8028  -42.6064 H         1 UNK         0.0600 
    163 H163        4.7131  -18.0545  -43.5189 H         1 UNK         0.0600 
    164 H164        2.8464  -17.6040  -40.4827 H         1 UNK         0.3000 
    165 H165        0.2052  -19.2495  -38.7257 H         1 UNK         0.0600 
    166 H166        1.6224  -18.6055  -36.7766 H         1 UNK         0.0600 
    167 H167        2.2075  -20.0558  -37.5773 H         1 UNK         0.0600 
    168 H168        3.0396  -18.5313  -37.8239 H         1 UNK         0.0600 
    169 H169       -0.2611  -17.1424  -39.0590 H         1 UNK         0.3000 
    170 H170       -0.1632  -15.0800  -39.8255 H         1 UNK         0.0600 
    171 H171       -0.0229  -14.7279  -37.3451 H         1 UNK         0.0600 
    172 H172        1.4954  -13.8622  -37.5466 H         1 UNK         0.0600 
    173 H173        0.0004  -13.1986  -38.2082 H         1 UNK         0.0600 
    174 H174        1.8542  -13.1208  -39.8934 H         1 UNK         0.3000 
    175 H175        2.3555  -12.3712  -42.2392 H         1 UNK         0.0600 
    176 H176        4.8580  -12.4666  -41.9808 H         1 UNK         0.0600 
    177 H177        4.7351  -14.1267  -41.3977 H         1 UNK         0.0600 
    178 H178        4.0529  -12.8042  -40.4609 H         1 UNK         0.0600 
    179 H179        4.0701  -14.1523  -43.7477 H         1 UNK         0.3000 
    180 H180        3.8783  -13.9394  -46.0616 H         1 UNK         0.0600 
    181 H181        1.7500  -16.1417  -45.9948 H         1 UNK         0.0600 
    182 H182        3.2392  -16.1988  -45.0620 H         1 UNK         0.0600 
    183 H183        3.3101  -16.1835  -46.8144 H         1 UNK         0.0600 
    184 H184        1.5056  -14.4165  -47.5859 H         1 UNK         0.3000 
    185 H185        1.1811  -11.0871  -48.8558 H         1 UNK         0.0600 
    186 H186        1.9862  -13.7958  -50.0733 H         1 UNK         0.0600 
    187 H187        1.3022  -12.4363  -50.9629 H         1 UNK         0.0600 
    188 H188        2.8895  -12.2969  -50.2316 H         1 UNK         0.0600 
    189 H189       -0.2012  -13.3243  -47.7767 H         1 UNK         0.3000 
    190 H190       -1.5458  -21.3668  -45.9186 H         1 UNK         0.3000 
    191 H191       -3.4582  -22.0689  -47.8639 H         1 UNK         0.0600 
    192 H192       -3.7137  -20.1007  -46.4026 H         1 UNK         0.0600 
    193 H193       -5.1124  -21.1471  -46.2280 H         1 UNK         0.0600 
    194 H194       -3.8722  -21.1319  -44.9794 H         1 UNK         0.0600 
    195 H195       -2.6595  -23.7119  -44.7858 H         1 UNK         0.3000 
    196 H196       -4.7417  -25.6339  -44.8139 H         1 UNK         0.0600 
    197 H197       -3.2235  -26.8855  -43.2573 H         1 UNK         0.0600 
    198 H198       -3.3495  -25.1887  -42.8242 H         1 UNK         0.0600 
    199 H199       -1.9103  -25.7823  -43.6513 H         1 UNK         0.0600 
    200 H200       -1.8361  -25.4384  -46.7559 H         1 UNK         0.3000 
    201 H201       -2.1135  -28.2057  -47.7988 H         1 UNK         0.0600 
    202 H202        0.1664  -27.3460  -47.1858 H         1 UNK         0.0600 
    203 H203       -0.0100  -26.0484  -48.3646 H         1 UNK         0.0600 
    204 H204        0.0383  -27.7232  -48.8958 H         1 UNK         0.0600 
    205 H205       -3.7354  -25.4364  -48.2723 H         1 UNK         0.3000 
    206 H206       -5.0224  -24.5253  -49.7744 H         1 UNK         0.0600 
    207 H207       -5.6694  -26.8536  -50.4510 H         1 UNK         0.0600 
    208 H208       -5.7829  -25.7045  -51.7737 H         1 UNK         0.0600 
    209 H209       -4.4307  -26.8210  -51.7072 H         1 UNK         0.0600 
    210 H210       -1.9089  -24.2304  -49.8559 H         1 UNK         0.3000 
    211 H211       -1.5319  -22.9659  -52.5133 H         1 UNK         0.0600 
    212 H212        0.3777  -23.5103  -50.1813 H         1 UNK         0.0600 
    213 H213        0.8139  -22.7024  -51.6830 H         1 UNK         0.0600 
    214 H214        0.3023  -24.3847  -51.7068 H         1 UNK         0.0600 
    215 H215       -3.2154  -21.3816  -52.1263 H         1 UNK         0.3000 
    216 H216       -2.1467  -18.9789  -50.8461 H         1 UNK         0.0600 
    217 H217       -4.3532  -18.4930  -49.7344 H         1 UNK         0.0600 
    218 H218       -3.5965  -19.9165  -49.0445 H         1 UNK         0.0600 
    219 H219       -4.9385  -20.0940  -50.1745 H         1 UNK         0.0600 
    220 H220       -3.4452  -17.0832  -51.5775 H         1 UNK         0.3000 
    221 H221       -3.6034  -16.9585  -54.3704 H         1 UNK         0.0600 
    222 H222       -4.7443  -15.0935  -52.2323 H         1 UNK         0.0600 
    223 H223       -3.1614  -14.9801  -53.0078 H         1 UNK         0.0600 
    224 H224       -4.6176  -14.6959  -53.9412 H         1 UNK         0.0600 
    225 H225       -5.0471  -17.6806  -55.7349 H         1 UNK         0.3000 
    226 H226       -6.8485  -18.2463  -56.8192 H         1 UNK         0.0600 
    227 H227       -7.9724  -16.1631  -55.9977 H         1 UNK         0.0600 
    228 H228       -9.1061  -17.4776  -56.2626 H         1 UNK         0.0600 
    229 H229       -8.6275  -17.0606  -54.6272 H         1 UNK         0.0600 
    230 H230       -6.1838  -19.5422  -53.7580 H         1 UNK         0.3000 
    231 H231       -8.0662  -21.7913  -53.9129 H         1 UNK         0.0600 
    232 H232       -5.5862  -21.3955  -52.1590 H         1 UNK         0.0600 
    233 H233       -6.8037  -22.6440  -51.9755 H         1 UNK         0.0600 
    234 H234       -7.2325  -20.9606  -51.7009 H         1 UNK         0.0600 
    235 H235       -4.7148  -21.0143  -54.7490 H         1 UNK         0.3000 
    236 H236       -4.6766  -22.9561  -56.8654 H         1 UNK         0.0600 
    237 H237       -4.0052  -24.5016  -55.0037 H         1 UNK         0.0600 
    238 H238       -2.6713  -24.2365  -56.1147 H         1 UNK         0.0600 
    239 H239       -2.6957  -23.4085  -54.5643 H         1 UNK         0.0600 
    240 H240       -2.9650  -20.5505  -54.8430 H         1 UNK         0.3000 
    241 H241       -0.9469  -20.0045  -56.8565 H         1 UNK         0.0600 
    242 H242       -0.7119  -17.9805  -58.0734 H         1 UNK         0.3800 
    243 H243       -2.1064  -16.9827  -58.3677 H         1 UNK         0.3800 
    244 H244       -0.1809  -18.2613  -55.2924 H         1 UNK         0.0800 
    245 H245       -1.5861  -18.4760  -54.2872 H         1 UNK         0.0800 
    246 H246        1.7720  -18.6965  -54.0808 H         1 UNK         0.0800 
    247 H247        2.1981  -20.1341  -53.1991 H         1 UNK         0.0800 
@<TRIPOS>BOND
     1    1    2 1    
     2    1  127 1    
     3    1  128 1    
     4    1  129 1    
     5    2    3 2    
     6    2    4 am   BACKBONE|DICT|INTERRES
     7    4    5 1    
     8    4  130 1    
     9    5    6 1    
    10    5   65 1    
    11    5  131 1    
    12    6    7 1    
    13    6  132 1    
    14    6  133 1    
    15    7    8 1    
    16    8    9 1    
    17    8  134 1    
    18    8  135 1    
    19    9   10 ar   
    20    9   14 ar   
    21   10   11 ar   
    22   10  136 1    
    23   11   12 ar   
    24   11  126 1    
    25   12   13 ar   
    26   12  137 1    
    27   13   14 ar   
    28   13   15 1    
    29   14  138 1    
    30   15   16 1    
    31   15  139 1    
    32   15  140 1    
    33   16   17 1    
    34   17   18 1    
    35   17  141 1    
    36   17  142 1    
    37   18   19 1    
    38   18   67 1    
    39   18  143 1    
    40   19   20 am   BACKBONE|DICT|INTERRES
    41   19  144 1    
    42   20   21 2    
    43   20   22 1    
    44   22   23 1    
    45   22   24 1    
    46   22  145 1    
    47   23  146 1    
    48   23  147 1    
    49   23  148 1    
    50   24   25 am   BACKBONE|DICT|INTERRES
    51   24  149 1    
    52   25   26 2    
    53   25   27 1    
    54   27   28 1    
    55   27   29 1    
    56   27  150 1    
    57   28  151 1    
    58   28  152 1    
    59   28  153 1    
    60   29   30 am   BACKBONE|DICT|INTERRES
    61   29  154 1    
    62   30   31 2    
    63   30   32 1    
    64   32   33 1    
    65   32   34 1    
    66   32  155 1    
    67   33  156 1    
    68   33  157 1    
    69   33  158 1    
    70   34   35 am   BACKBONE|DICT|INTERRES
    71   34  159 1    
    72   35   36 2    
    73   35   37 1    
    74   37   38 1    
    75   37   39 1    
    76   37  160 1    
    77   38  161 1    
    78   38  162 1    
    79   38  163 1    
    80   39   40 am   BACKBONE|DICT|INTERRES
    81   39  164 1    
    82   40   41 2    
    83   40   42 1    
    84   42   43 1    
    85   42   44 1    
    86   42  165 1    
    87   43  166 1    
    88   43  167 1    
    89   43  168 1    
    90   44   45 am   BACKBONE|DICT|INTERRES
    91   44  169 1    
    92   45   46 2    
    93   45   47 1    
    94   47   48 1    
    95   47   49 1    
    96   47  170 1    
    97   48  171 1    
    98   48  172 1    
    99   48  173 1    
   100   49   50 am   BACKBONE|DICT|INTERRES
   101   49  174 1    
   102   50   51 2    
   103   50   52 1    
   104   52   53 1    
   105   52   54 1    
   106   52  175 1    
   107   53  176 1    
   108   53  177 1    
   109   53  178 1    
   110   54   55 am   BACKBONE|DICT|INTERRES
   111   54  179 1    
   112   55   56 2    
   113   55   57 1    
   114   57   58 1    
   115   57   59 1    
   116   57  180 1    
   117   58  181 1    
   118   58  182 1    
   119   58  183 1    
   120   59   60 am   BACKBONE|DICT|INTERRES
   121   59  184 1    
   122   60   61 2    
   123   60   62 1    
   124   62   63 1    
   125   62   64 1    
   126   62  185 1    
   127   63  186 1    
   128   63  187 1    
   129   63  188 1    
   130   64   65 am   BACKBONE|DICT|INTERRES
   131   64  189 1    
   132   65   66 2    
   133   67   68 2    
   134   67   69 am   BACKBONE|DICT|INTERRES
   135   69   70 1    
   136   69  190 1    
   137   70   71 1    
   138   70   72 1    
   139   70  191 1    
   140   71  192 1    
   141   71  193 1    
   142   71  194 1    
   143   72   73 2    
   144   72   74 am   BACKBONE|DICT|INTERRES
   145   74   75 1    
   146   74  195 1    
   147   75   76 1    
   148   75   77 1    
   149   75  196 1    
   150   76  197 1    
   151   76  198 1    
   152   76  199 1    
   153   77   78 2    
   154   77   79 am   BACKBONE|DICT|INTERRES
   155   79   80 1    
   156   79  200 1    
   157   80   81 1    
   158   80   82 1    
   159   80  201 1    
   160   81  202 1    
   161   81  203 1    
   162   81  204 1    
   163   82   83 2    
   164   82   84 am   BACKBONE|DICT|INTERRES
   165   84   85 1    
   166   84  205 1    
   167   85   86 1    
   168   85   87 1    
   169   85  206 1    
   170   86  207 1    
   171   86  208 1    
   172   86  209 1    
   173   87   88 2    
   174   87   89 am   BACKBONE|DICT|INTERRES
   175   89   90 1    
   176   89  210 1    
   177   90   91 1    
   178   90   92 1    
   179   90  211 1    
   180   91  212 1    
   181   91  213 1    
   182   91  214 1    
   183   92   93 2    
   184   92   94 am   BACKBONE|DICT|INTERRES
   185   94   95 1    
   186   94  215 1    
   187   95   96 1    
   188   95   97 1    
   189   95  216 1    
   190   96  217 1    
   191   96  218 1    
   192   96  219 1    
   193   97   98 2    
   194   97   99 am   BACKBONE|DICT|INTERRES
   195   99  100 1    
   196   99  220 1    
   197  100  101 1    
   198  100  102 1    
   199  100  221 1    
   200  101  222 1    
   201  101  223 1    
   202  101  224 1    
   203  102  103 2    
   204  102  104 am   BACKBONE|DICT|INTERRES
   205  104  105 1    
   206  104  225 1    
   207  105  106 1    
   208  105  107 1    
   209  105  226 1    
   210  106  227 1    
   211  106  228 1    
   212  106  229 1    
   213  107  108 2    
   214  107  109 am   BACKBONE|DICT|INTERRES
   215  109  110 1    
   216  109  230 1    
   217  110  111 1    
   218  110  112 1    
   219  110  231 1    
   220  111  232 1    
   221  111  233 1    
   222  111  234 1    
   223  112  113 2    
   224  112  114 am   BACKBONE|DICT|INTERRES
   225  114  115 1    
   226  114  235 1    
   227  115  116 1    
   228  115  117 1    
   229  115  236 1    
   230  116  237 1    
   231  116  238 1    
   232  116  239 1    
   233  117  118 2    
   234  117  119 am   BACKBONE|DICT|INTERRES
   235  119  120 1    
   236  119  240 1    
   237  120  121 1    
   238  120  124 1    
   239  120  241 1    
   240  121  122 am   BACKBONE|DICT|INTERRES
   241  121  123 2    
   242  122  242 1    
   243  122  243 1    
   244  124  125 1    
   245  124  244 1    
   246  124  245 1    
   247  125  126 1    
   248  126  246 1    
   249  126  247 1    
@<TRIPOS>SUBSTRUCTURE
     1 UNK         1 GROUP             0       ****    0 ROOT    
