@<TRIPOS>MOLECULE
3R540
247   249    1
SMALL
USER_CHARGES


@<TRIPOS>ATOM
      1 CA          5.2185  -13.4528  -48.9119 C.3       0 UNK        -0.1800 
      2 C           3.9180  -12.8369  -48.4159 C.2       0 UNK         0.5000 
      3 O           3.7920  -11.6128  -48.3944 O.2       0 UNK        -0.5000 
      4 N           2.9610  -13.6841  -48.0105 N.am      1 UNK        -0.5000 
      5 CA          1.6175  -13.3245  -47.5213 C.3       1 UNK         0.1400 
      6 C6          0.7372  -12.6154  -48.5893 C.3       23 UNK        -0.0398 
      7 S7          0.5347  -13.6280  -50.0949 S.3       23 UNK        -0.2404 
      8 C8         -1.1111  -14.3374  -49.7960 C.3       23 UNK        -0.0205 
      9 C9         -1.3854  -15.5086  -50.7242 C.ar      23 UNK        -0.0193 
     10 C10        -2.0137  -15.3099  -51.9548 C.ar      23 UNK        -0.1150 
     11 C11        -2.2854  -16.3939  -52.7939 C.ar      23 UNK        -0.0193 
     12 C12        -1.9345  -17.6846  -52.3847 C.ar      23 UNK        -0.1150 
     13 C13        -1.3085  -17.9046  -51.1530 C.ar      23 UNK        -0.0193 
     14 C14        -1.0229  -16.8002  -50.3374 C.ar      23 UNK        -0.1150 
     15 C15        -0.9784  -19.3481  -50.7576 C.3       23 UNK        -0.0205 
     16 S16        -0.1608  -19.5870  -49.1417 S.3       23 UNK        -0.2404 
     17 C17        -1.4767  -19.0930  -47.9811 C.3       23 UNK        -0.0398 
     18 CA         -2.0156  -20.2580  -47.1189 C.3       11 UNK         0.1400 
     19 N          -2.3783  -19.7834  -45.7727 N.am      11 UNK        -0.5000 
     20 C          -2.8519  -20.5246  -44.7611 C.2       10 UNK         0.5000 
     21 O          -3.1206  -21.7217  -44.8720 O.2       10 UNK        -0.5000 
     22 CA         -3.0811  -19.8113  -43.4153 C.3       10 UNK         0.1400 
     23 CB         -3.0424  -20.7957  -42.2325 C.3       10 UNK        -0.1800 
     24 N          -2.0927  -18.7553  -43.1889 N.am      10 UNK        -0.5000 
     25 C          -2.3108  -17.4409  -43.3304 C.2       9 UNK         0.5000 
     26 O          -3.3758  -16.9622  -43.7200 O.2       9 UNK        -0.5000 
     27 CA         -1.1301  -16.5073  -43.0060 C.3       9 UNK         0.1400 
     28 CB         -0.9374  -16.3824  -41.4870 C.3       9 UNK        -0.1800 
     29 N           0.1163  -16.9685  -43.6110 N.am      9 UNK        -0.5000 
     30 C           0.3880  -16.9476  -44.9221 C.2       8 UNK         0.5000 
     31 O          -0.3719  -16.4773  -45.7685 O.2       8 UNK        -0.5000 
     32 CA          1.7184  -17.5790  -45.3691 C.3       8 UNK         0.1400 
     33 CB          2.8462  -16.5389  -45.3790 C.3       8 UNK        -0.1800 
     34 N           2.1014  -18.6926  -44.5020 N.am      8 UNK        -0.5000 
     35 C           1.7063  -19.9592  -44.6862 C.2       7 UNK         0.5000 
     36 O           1.0275  -20.3285  -45.6422 O.2       7 UNK        -0.5000 
     37 CA          2.1333  -20.9936  -43.6265 C.3       7 UNK         0.1400 
     38 CB          3.4180  -21.7128  -44.0630 C.3       7 UNK        -0.1800 
     39 N           2.3316  -20.4211  -42.2937 N.am      7 UNK        -0.5000 
     40 C           1.3427  -19.9499  -41.5226 C.2       6 UNK         0.5000 
     41 O           0.1597  -19.9431  -41.8592 O.2       6 UNK        -0.5000 
     42 CA          1.7498  -19.3325  -40.1715 C.3       6 UNK         0.1400 
     43 CB          1.8806  -20.4235  -39.0986 C.3       6 UNK        -0.1800 
     44 N           2.9853  -18.5416  -40.2160 N.am      6 UNK        -0.5000 
     45 C           3.1963  -17.4971  -41.0272 C.2       5 UNK         0.5000 
     46 O           2.4066  -17.1429  -41.9022 O.2       5 UNK        -0.5000 
     47 CA          4.4999  -16.7149  -40.8346 C.3       5 UNK         0.1400 
     48 CB          5.2984  -16.6291  -42.1453 C.3       5 UNK        -0.1800 
     49 N           4.1612  -15.3663  -40.3943 N.am      5 UNK        -0.5000 
     50 C           4.2306  -14.9379  -39.1279 C.2       4 UNK         0.5000 
     51 O           4.6357  -15.6315  -38.1939 O.2       4 UNK        -0.5000 
     52 CA          3.7852  -13.4895  -38.8478 C.3       4 UNK         0.1400 
     53 CB          5.0044  -12.5550  -38.8098 C.3       4 UNK        -0.1800 
     54 N           2.8251  -12.9695  -39.8226 N.am      4 UNK        -0.5000 
     55 C           1.5351  -13.3263  -39.8977 C.2       3 UNK         0.5000 
     56 O           1.0098  -14.1476  -39.1460 O.2       3 UNK        -0.5000 
     57 CA          0.6845  -12.6381  -40.9855 C.3       3 UNK         0.1400 
     58 CB         -0.1448  -11.4976  -40.3757 C.3       3 UNK        -0.1800 
     59 N           1.4808  -12.1060  -42.0959 N.am      3 UNK        -0.5000 
     60 C           2.0699  -12.8669  -43.0258 C.2       2 UNK         0.5000 
     61 O           2.0072  -14.0958  -43.0406 O.2       2 UNK        -0.5000 
     62 CA          2.9183  -12.1375  -44.0798 C.3       2 UNK         0.1400 
     63 CB          4.4071  -12.2119  -43.7056 C.3       2 UNK        -0.1800 
     64 N           2.7341  -12.7243  -45.4048 N.am      2 UNK        -0.5000 
     65 C           1.6453  -12.5652  -46.1705 C.2       1 UNK         0.5000 
     66 O           0.6900  -11.8597  -45.8410 O.2       1 UNK        -0.5000 
     67 C          -3.1523  -21.0084  -47.8502 C.2       11 UNK         0.5000 
     68 O          -2.8847  -21.9233  -48.6331 O.2       11 UNK        -0.5000 
     69 N          -4.4044  -20.6446  -47.5366 N.am      12 UNK        -0.5000 
     70 CA         -5.6289  -21.3012  -47.9965 C.3       12 UNK         0.1400 
     71 CB         -6.8410  -20.5109  -47.4828 C.3       12 UNK        -0.1800 
     72 C          -5.7399  -22.7837  -47.5856 C.2       12 UNK         0.5000 
     73 O          -6.3911  -23.5517  -48.2928 O.2       12 UNK        -0.5000 
     74 N          -5.0932  -23.1584  -46.4746 N.am      13 UNK        -0.5000 
     75 CA         -5.0016  -24.5293  -45.9815 C.3       13 UNK         0.1400 
     76 CB         -5.3908  -24.5573  -44.4946 C.3       13 UNK        -0.1800 
     77 C          -3.5820  -25.0830  -46.1790 C.2       13 UNK         0.5000 
     78 O          -3.4330  -26.1977  -46.6784 O.2       13 UNK        -0.5000 
     79 N          -2.5658  -24.2961  -45.7965 N.am      14 UNK        -0.5000 
     80 CA         -1.1580  -24.6986  -45.7502 C.3       14 UNK         0.1400 
     81 CB         -0.3505  -23.6253  -45.0054 C.3       14 UNK        -0.1800 
     82 C          -0.5357  -24.9860  -47.1281 C.2       14 UNK         0.5000 
     83 O           0.2905  -25.8930  -47.2348 O.2       14 UNK        -0.5000 
     84 N          -0.9513  -24.2295  -48.1513 N.am      15 UNK        -0.5000 
     85 CA         -0.5387  -24.4113  -49.5455 C.3       15 UNK         0.1400 
     86 CB          0.1489  -23.1253  -50.0308 C.3       15 UNK        -0.1800 
     87 C          -1.7402  -24.7543  -50.4436 C.2       15 UNK         0.5000 
     88 O          -1.6006  -24.7390  -51.6675 O.2       15 UNK        -0.5000 
     89 N          -2.9090  -25.0079  -49.8341 N.am      16 UNK        -0.5000 
     90 CA         -4.2044  -25.2551  -50.4743 C.3       16 UNK         0.1400 
     91 CB         -4.2062  -26.6372  -51.1599 C.3       16 UNK        -0.1800 
     92 C          -4.6262  -24.1132  -51.4253 C.2       16 UNK         0.5000 
     93 O          -5.1273  -24.3816  -52.5170 O.2       16 UNK        -0.5000 
     94 N          -4.3631  -22.8606  -51.0172 N.am      17 UNK        -0.5000 
     95 CA         -4.5721  -21.6279  -51.7887 C.3       17 UNK         0.1400 
     96 CB         -6.0713  -21.4022  -52.0849 C.3       17 UNK        -0.1800 
     97 C          -3.6935  -21.5861  -53.0561 C.2       17 UNK         0.5000 
     98 O          -4.1709  -21.2153  -54.1298 O.2       17 UNK        -0.5000 
     99 N          -2.4272  -22.0016  -52.8956 N.am      18 UNK        -0.5000 
    100 CA        -1.4163  -22.1987  -53.9404 C.3       18 UNK         0.1400 
    101 CB        -1.0116  -20.8557  -54.5857 C.3       18 UNK        -0.1800 
    102 C         -1.8642  -23.2582  -54.9666 C.2       18 UNK         0.5000 
    103 O         -1.8546  -22.9999  -56.1696 O.2       18 UNK        -0.5000 
    104 N         -2.2977  -24.4212  -54.4574 N.am      19 UNK        -0.5000 
    105 CA        -2.9026  -25.5340  -55.2010 C.3       19 UNK         0.1400 
    106 CB        -1.8425  -26.2518  -56.0613 C.3       19 UNK        -0.1800 
    107 C         -4.1425  -25.0876  -56.0081 C.2       19 UNK         0.5000 
    108 O         -4.2529  -25.3730  -57.2017 O.2       19 UNK        -0.5000 
    109 N         -5.0303  -24.3536  -55.3247 N.am      20 UNK        -0.5000 
    110 CA        -6.2718  -23.7342  -55.7941 C.3       20 UNK         0.1400 
    111 CB        -7.2581  -24.7983  -56.3177 C.3       20 UNK        -0.1800 
    112 C         -6.0969  -22.5673  -56.7898 C.2       20 UNK         0.5000 
    113 O         -7.1075  -22.0291  -57.2468 O.2       20 UNK        -0.5000 
    114 N         -4.8570  -22.1522  -57.0941 N.am      21 UNK        -0.5000 
    115 CA        -4.5584  -21.0601  -58.0278 C.3       21 UNK         0.1400 
    116 CB        -3.0506  -21.0046  -58.3083 C.3       21 UNK        -0.1800 
    117 C         -5.0663  -19.6842  -57.5568 C.2       21 UNK         0.5000 
    118 O         -5.3997  -18.8485  -58.3983 O.2       21 UNK        -0.5000 
    119 N         -5.1443  -19.4822  -56.2347 N.am      22 UNK        -0.5000 
    120 CA        -5.7552  -18.2994  -55.6083 C.3       22 UNK         0.1400 
    121 C         -7.3131  -18.3485  -55.5326 C.2       22 UNK         0.5000 
    122 N         -7.9794  -19.4086  -55.9780 N.am      22 UNK        -0.7600 
    123 O         -7.9381  -17.3987  -55.0697 O.2       22 UNK        -0.5000 
    124 C124       -5.1066  -17.9865  -54.2297 C.3       23 UNK        -0.0398 
    125 S125       -4.7663  -16.2064  -54.0108 S.3       23 UNK        -0.2404 
    126 C126       -2.9512  -16.1590  -54.1416 C.3       23 UNK        -0.0205 
    127 H127        5.4011  -13.1599  -49.9458 H         1 UNK         0.0600 
    128 H128        5.1959  -14.5419  -48.8664 H         1 UNK         0.0600 
    129 H129        6.0542  -13.1045  -48.3049 H         1 UNK         0.0600 
    130 H130        3.1376  -14.6761  -48.0788 H         1 UNK         0.3000 
    131 H131        1.1268  -14.2716  -47.2915 H         1 UNK         0.0600 
    132 H132       -0.2523  -12.3853  -48.1906 H         1 UNK         0.0800 
    133 H133        1.1718  -11.6564  -48.8736 H         1 UNK         0.0800 
    134 H134       -1.1842  -14.6693  -48.7586 H         1 UNK         0.0800 
    135 H135       -1.8696  -13.5639  -49.9268 H         1 UNK         0.0800 
    136 H136       -2.2913  -14.3105  -52.2600 H         1 UNK         0.1150 
    137 H137       -2.1500  -18.5249  -53.0282 H         1 UNK         0.1150 
    138 H138       -0.5253  -16.9252  -49.3880 H         1 UNK         0.1150 
    139 H139       -1.8944  -19.9391  -50.7700 H         1 UNK         0.0800 
    140 H140       -0.3256  -19.7741  -51.5197 H         1 UNK         0.0800 
    141 H141       -2.2829  -18.5701  -48.4990 H         1 UNK         0.0800 
    142 H142       -1.0156  -18.3434  -47.3421 H         1 UNK         0.0800 
    143 H143       -1.2126  -20.9816  -46.9717 H         1 UNK         0.0600 
    144 H144       -2.1892  -18.8103  -45.5803 H         1 UNK         0.3000 
    145 H145       -4.0845  -19.3834  -43.4532 H         1 UNK         0.0600 
    146 H146       -3.1617  -20.2763  -41.2816 H         1 UNK         0.0600 
    147 H147       -3.8475  -21.5281  -42.3046 H         1 UNK         0.0600 
    148 H148       -2.1019  -21.3467  -42.1981 H         1 UNK         0.0600 
    149 H149       -1.1862  -19.0706  -42.8494 H         1 UNK         0.3000 
    150 H150       -1.3539  -15.5157  -43.4051 H         1 UNK         0.0600 
    151 H151       -0.0721  -15.7642  -41.2493 H         1 UNK         0.0600 
    152 H152       -1.8089  -15.9238  -41.0187 H         1 UNK         0.0600 
    153 H153       -0.7845  -17.3542  -41.0174 H         1 UNK         0.0600 
    154 H154        0.8494  -17.2639  -42.9726 H         1 UNK         0.3000 
    155 H155        1.5887  -17.9403  -46.3919 H         1 UNK         0.0600 
    156 H156        3.0090  -16.1178  -44.3884 H         1 UNK         0.0600 
    157 H157        2.6066  -15.7145  -46.0470 H         1 UNK         0.0600 
    158 H158        3.7856  -16.9746  -45.7191 H         1 UNK         0.0600 
    159 H159        2.6003  -18.4521  -43.6557 H         1 UNK         0.3000 
    160 H160        1.3357  -21.7356  -43.5564 H         1 UNK         0.0600 
    161 H161        4.2613  -21.0245  -44.1317 H         1 UNK         0.0600 
    162 H162        3.2913  -22.1765  -45.0424 H         1 UNK         0.0600 
    163 H163        3.6848  -22.5045  -43.3627 H         1 UNK         0.0600 
    164 H164        3.2789  -20.3769  -41.9478 H         1 UNK         0.3000 
    165 H165        0.9467  -18.6579  -39.8690 H         1 UNK         0.0600 
    166 H166        2.0577  -19.9900  -38.1141 H         1 UNK         0.0600 
    167 H167        0.9672  -21.0163  -39.0309 H         1 UNK         0.0600 
    168 H168        2.7010  -21.1081  -39.3174 H         1 UNK         0.0600 
    169 H169        3.6837  -18.7664  -39.5220 H         1 UNK         0.3000 
    170 H170        5.1210  -17.2251  -40.0954 H         1 UNK         0.0600 
    171 H171        5.4910  -17.6214  -42.5551 H         1 UNK         0.0600 
    172 H172        4.7706  -16.0531  -42.9051 H         1 UNK         0.0600 
    173 H173        6.2641  -16.1508  -41.9821 H         1 UNK         0.0600 
    174 H174        3.7284  -14.7709  -41.0870 H         1 UNK         0.3000 
    175 H175        3.3147  -13.4756  -37.8623 H         1 UNK         0.0600 
    176 H176        5.5098  -12.5130  -39.7756 H         1 UNK         0.0600 
    177 H177        4.7158  -11.5400  -38.5363 H         1 UNK         0.0600 
    178 H178        5.7337  -12.8934  -38.0724 H         1 UNK         0.0600 
    179 H179        3.1671  -12.2777  -40.4723 H         1 UNK         0.3000 
    180 H180       -0.0073  -13.3820  -41.3851 H         1 UNK         0.0600 
    181 H181        0.4906  -10.7106  -39.9677 H         1 UNK         0.0600 
    182 H182       -0.7755  -11.8638  -39.5645 H         1 UNK         0.0600 
    183 H183       -0.8034  -11.0476  -41.1188 H         1 UNK         0.0600 
    184 H184        1.5760  -11.1015  -42.1434 H         1 UNK         0.3000 
    185 H185        2.6205  -11.0874  -44.1191 H         1 UNK         0.0600 
    186 H186        4.5903  -11.7543  -42.7327 H         1 UNK         0.0600 
    187 H187        4.7591  -13.2434  -43.6545 H         1 UNK         0.0600 
    188 H188        5.0232  -11.6831  -44.4332 H         1 UNK         0.0600 
    189 H189        3.4653  -13.3363  -45.7335 H         1 UNK         0.3000 
    190 H190       -4.5249  -19.8892  -46.8782 H         1 UNK         0.3000 
    191 H191       -5.6359  -21.2595  -49.0845 H         1 UNK         0.0600 
    192 H192       -6.8210  -19.4808  -47.8393 H         1 UNK         0.0600 
    193 H193       -7.7739  -20.9555  -47.8321 H         1 UNK         0.0600 
    194 H194       -6.8749  -20.4900  -46.3927 H         1 UNK         0.0600 
    195 H195       -4.5530  -22.4660  -45.9660 H         1 UNK         0.3000 
    196 H196       -5.6914  -25.1816  -46.5211 H         1 UNK         0.0600 
    197 H197       -5.3187  -25.5678  -44.0904 H         1 UNK         0.0600 
    198 H198       -6.4187  -24.2232  -44.3532 H         1 UNK         0.0600 
    199 H199       -4.7463  -23.9147  -43.8930 H         1 UNK         0.0600 
    200 H200       -2.7779  -23.3812  -45.4028 H         1 UNK         0.3000 
    201 H201       -1.1018  -25.6222  -45.1702 H         1 UNK         0.0600 
    202 H202       -0.7322  -23.4719  -43.9957 H         1 UNK         0.0600 
    203 H203       -0.3851  -22.6673  -45.5231 H         1 UNK         0.0600 
    204 H204        0.6980  -23.9131  -44.9179 H         1 UNK         0.0600 
    205 H205       -1.6284  -23.4938  -47.9851 H         1 UNK         0.3000 
    206 H206        0.1708  -25.2353  -49.6395 H         1 UNK         0.0600 
    207 H207        0.9554  -22.8276  -49.3605 H         1 UNK         0.0600 
    208 H208        0.5830  -23.2602  -51.0220 H         1 UNK         0.0600 
    209 H209       -0.5586  -22.2997  -50.0932 H         1 UNK         0.0600 
    210 H210       -2.9092  -25.0285  -48.8243 H         1 UNK         0.3000 
    211 H211       -4.9464  -25.2842  -49.6765 H         1 UNK         0.0600 
    212 H212       -3.5049  -26.6782  -51.9935 H         1 UNK         0.0600 
    213 H213       -5.1949  -26.8800  -51.5508 H         1 UNK         0.0600 
    214 H214       -3.9351  -27.4243  -50.4562 H         1 UNK         0.0600 
    215 H215       -3.8970  -22.7391  -50.1228 H         1 UNK         0.3000 
    216 H216       -4.2350  -20.8062  -51.1557 H         1 UNK         0.0600 
    217 H217       -6.2408  -20.4168  -52.5167 H         1 UNK         0.0600 
    218 H218       -6.6730  -21.4654  -51.1790 H         1 UNK         0.0600 
    219 H219       -6.4629  -22.1329  -52.7917 H         1 UNK         0.0600 
    220 H220       -2.1703  -22.3557  -51.9858 H         1 UNK         0.3000 
    221 H221       -0.5324  -22.6064  -53.4478 H         1 UNK         0.0600 
    222 H222       -1.8530  -20.3626  -55.0725 H         1 UNK         0.0600 
    223 H223       -0.6033  -20.1698  -53.8457 H         1 UNK         0.0600 
    224 H224       -0.2400  -21.0036  -55.3420 H         1 UNK         0.0600 
    225 H225       -2.2323  -24.5458  -53.4497 H         1 UNK         0.3000 
    226 H226       -3.2610  -26.2454  -54.4559 H         1 UNK         0.0600 
    227 H227       -0.9973  -26.5756  -55.4541 H         1 UNK         0.0600 
    228 H228       -2.2614  -27.1405  -56.5347 H         1 UNK         0.0600 
    229 H229       -1.4591  -25.6089  -56.8542 H         1 UNK         0.0600 
    230 H230       -4.8564  -24.2204  -54.3300 H         1 UNK         0.3000 
    231 H231       -6.7209  -23.2901  -54.9053 H         1 UNK         0.0600 
    232 H232       -6.9164  -25.2453  -57.2514 H         1 UNK         0.0600 
    233 H233       -8.2397  -24.3628  -56.5074 H         1 UNK         0.0600 
    234 H234       -7.3962  -25.5991  -55.5911 H         1 UNK         0.0600 
    235 H235       -4.0647  -22.6080  -56.6586 H         1 UNK         0.3000 
    236 H236       -5.0645  -21.2894  -58.9678 H         1 UNK         0.0600 
    237 H237       -2.6778  -21.9648  -58.6655 H         1 UNK         0.0600 
    238 H238       -2.8239  -20.2621  -59.0743 H         1 UNK         0.0600 
    239 H239       -2.4869  -20.7336  -57.4157 H         1 UNK         0.0600 
    240 H240       -4.8420  -20.2206  -55.6029 H         1 UNK         0.3000 
    241 H241       -5.5388  -17.4594  -56.2710 H         1 UNK         0.0600 
    242 H242       -8.9856  -19.4119  -55.9236 H         1 UNK         0.3800 
    243 H243       -7.5030  -20.1992  -56.3956 H         1 UNK         0.3800 
    244 H244       -5.7320  -18.3227  -53.4021 H         1 UNK         0.0800 
    245 H245       -4.1706  -18.5313  -54.1168 H         1 UNK         0.0800 
    246 H246       -2.6042  -16.8874  -54.8764 H         1 UNK         0.0800 
    247 H247       -2.6568  -15.1821  -54.5282 H         1 UNK         0.0800 
@<TRIPOS>BOND
     1    1    2 1    
     2    1  127 1    
     3    1  128 1    
     4    1  129 1    
     5    2    3 2    
     6    2    4 am   BACKBONE|DICT|INTERRES
     7    4    5 1    
     8    4  130 1    
     9    5    6 1    
    10    5   65 1    
    11    5  131 1    
    12    6    7 1    
    13    6  132 1    
    14    6  133 1    
    15    7    8 1    
    16    8    9 1    
    17    8  134 1    
    18    8  135 1    
    19    9   10 ar   
    20    9   14 ar   
    21   10   11 ar   
    22   10  136 1    
    23   11   12 ar   
    24   11  126 1    
    25   12   13 ar   
    26   12  137 1    
    27   13   14 ar   
    28   13   15 1    
    29   14  138 1    
    30   15   16 1    
    31   15  139 1    
    32   15  140 1    
    33   16   17 1    
    34   17   18 1    
    35   17  141 1    
    36   17  142 1    
    37   18   19 1    
    38   18   67 1    
    39   18  143 1    
    40   19   20 am   BACKBONE|DICT|INTERRES
    41   19  144 1    
    42   20   21 2    
    43   20   22 1    
    44   22   23 1    
    45   22   24 1    
    46   22  145 1    
    47   23  146 1    
    48   23  147 1    
    49   23  148 1    
    50   24   25 am   BACKBONE|DICT|INTERRES
    51   24  149 1    
    52   25   26 2    
    53   25   27 1    
    54   27   28 1    
    55   27   29 1    
    56   27  150 1    
    57   28  151 1    
    58   28  152 1    
    59   28  153 1    
    60   29   30 am   BACKBONE|DICT|INTERRES
    61   29  154 1    
    62   30   31 2    
    63   30   32 1    
    64   32   33 1    
    65   32   34 1    
    66   32  155 1    
    67   33  156 1    
    68   33  157 1    
    69   33  158 1    
    70   34   35 am   BACKBONE|DICT|INTERRES
    71   34  159 1    
    72   35   36 2    
    73   35   37 1    
    74   37   38 1    
    75   37   39 1    
    76   37  160 1    
    77   38  161 1    
    78   38  162 1    
    79   38  163 1    
    80   39   40 am   BACKBONE|DICT|INTERRES
    81   39  164 1    
    82   40   41 2    
    83   40   42 1    
    84   42   43 1    
    85   42   44 1    
    86   42  165 1    
    87   43  166 1    
    88   43  167 1    
    89   43  168 1    
    90   44   45 am   BACKBONE|DICT|INTERRES
    91   44  169 1    
    92   45   46 2    
    93   45   47 1    
    94   47   48 1    
    95   47   49 1    
    96   47  170 1    
    97   48  171 1    
    98   48  172 1    
    99   48  173 1    
   100   49   50 am   BACKBONE|DICT|INTERRES
   101   49  174 1    
   102   50   51 2    
   103   50   52 1    
   104   52   53 1    
   105   52   54 1    
   106   52  175 1    
   107   53  176 1    
   108   53  177 1    
   109   53  178 1    
   110   54   55 am   BACKBONE|DICT|INTERRES
   111   54  179 1    
   112   55   56 2    
   113   55   57 1    
   114   57   58 1    
   115   57   59 1    
   116   57  180 1    
   117   58  181 1    
   118   58  182 1    
   119   58  183 1    
   120   59   60 am   BACKBONE|DICT|INTERRES
   121   59  184 1    
   122   60   61 2    
   123   60   62 1    
   124   62   63 1    
   125   62   64 1    
   126   62  185 1    
   127   63  186 1    
   128   63  187 1    
   129   63  188 1    
   130   64   65 am   BACKBONE|DICT|INTERRES
   131   64  189 1    
   132   65   66 2    
   133   67   68 2    
   134   67   69 am   BACKBONE|DICT|INTERRES
   135   69   70 1    
   136   69  190 1    
   137   70   71 1    
   138   70   72 1    
   139   70  191 1    
   140   71  192 1    
   141   71  193 1    
   142   71  194 1    
   143   72   73 2    
   144   72   74 am   BACKBONE|DICT|INTERRES
   145   74   75 1    
   146   74  195 1    
   147   75   76 1    
   148   75   77 1    
   149   75  196 1    
   150   76  197 1    
   151   76  198 1    
   152   76  199 1    
   153   77   78 2    
   154   77   79 am   BACKBONE|DICT|INTERRES
   155   79   80 1    
   156   79  200 1    
   157   80   81 1    
   158   80   82 1    
   159   80  201 1    
   160   81  202 1    
   161   81  203 1    
   162   81  204 1    
   163   82   83 2    
   164   82   84 am   BACKBONE|DICT|INTERRES
   165   84   85 1    
   166   84  205 1    
   167   85   86 1    
   168   85   87 1    
   169   85  206 1    
   170   86  207 1    
   171   86  208 1    
   172   86  209 1    
   173   87   88 2    
   174   87   89 am   BACKBONE|DICT|INTERRES
   175   89   90 1    
   176   89  210 1    
   177   90   91 1    
   178   90   92 1    
   179   90  211 1    
   180   91  212 1    
   181   91  213 1    
   182   91  214 1    
   183   92   93 2    
   184   92   94 am   BACKBONE|DICT|INTERRES
   185   94   95 1    
   186   94  215 1    
   187   95   96 1    
   188   95   97 1    
   189   95  216 1    
   190   96  217 1    
   191   96  218 1    
   192   96  219 1    
   193   97   98 2    
   194   97   99 am   BACKBONE|DICT|INTERRES
   195   99  100 1    
   196   99  220 1    
   197  100  101 1    
   198  100  102 1    
   199  100  221 1    
   200  101  222 1    
   201  101  223 1    
   202  101  224 1    
   203  102  103 2    
   204  102  104 am   BACKBONE|DICT|INTERRES
   205  104  105 1    
   206  104  225 1    
   207  105  106 1    
   208  105  107 1    
   209  105  226 1    
   210  106  227 1    
   211  106  228 1    
   212  106  229 1    
   213  107  108 2    
   214  107  109 am   BACKBONE|DICT|INTERRES
   215  109  110 1    
   216  109  230 1    
   217  110  111 1    
   218  110  112 1    
   219  110  231 1    
   220  111  232 1    
   221  111  233 1    
   222  111  234 1    
   223  112  113 2    
   224  112  114 am   BACKBONE|DICT|INTERRES
   225  114  115 1    
   226  114  235 1    
   227  115  116 1    
   228  115  117 1    
   229  115  236 1    
   230  116  237 1    
   231  116  238 1    
   232  116  239 1    
   233  117  118 2    
   234  117  119 am   BACKBONE|DICT|INTERRES
   235  119  120 1    
   236  119  240 1    
   237  120  121 1    
   238  120  124 1    
   239  120  241 1    
   240  121  122 am   BACKBONE|DICT|INTERRES
   241  121  123 2    
   242  122  242 1    
   243  122  243 1    
   244  124  125 1    
   245  124  244 1    
   246  124  245 1    
   247  125  126 1    
   248  126  246 1    
   249  126  247 1    
@<TRIPOS>SUBSTRUCTURE
     1 UNK         1 GROUP             0       ****    0 ROOT    
