@<TRIPOS>MOLECULE
3R540
247   249    1
SMALL
USER_CHARGES


@<TRIPOS>ATOM
      1 CA         -4.6770  -13.9989  -51.6091 C.3       0 UNK        -0.1800 
      2 C          -3.2334  -13.8938  -51.1439 C.2       0 UNK         0.5000 
      3 O          -2.4888  -13.0588  -51.6586 O.2       0 UNK        -0.5000 
      4 N          -2.8362  -14.7209  -50.1686 N.am      1 UNK        -0.5000 
      5 CA         -1.5429  -14.6449  -49.4848 C.3       1 UNK         0.1400 
      6 C6         -1.2222  -15.9256  -48.6763 C.3       23 UNK        -0.0398 
      7 S7         -1.0002  -17.4130  -49.7043 S.3       23 UNK        -0.2404 
      8 C8          0.7679  -17.3043  -50.1273 C.3       23 UNK        -0.0205 
      9 C9          1.3830  -18.6806  -50.3378 C.ar      23 UNK        -0.0193 
     10 C10         1.2251  -19.3525  -51.5551 C.ar      23 UNK        -0.1150 
     11 C11         1.7988  -20.6183  -51.7528 C.ar      23 UNK        -0.0193 
     12 C12         2.5457  -21.1897  -50.7198 C.ar      23 UNK        -0.1150 
     13 C13         2.7168  -20.5283  -49.5030 C.ar      23 UNK        -0.0193 
     14 C14         2.1269  -19.2761  -49.3146 C.ar      23 UNK        -0.1150 
     15 C15         3.5593  -21.1671  -48.4093 C.3       23 UNK        -0.0205 
     16 S16         2.7245  -22.5959  -47.6533 S.3       23 UNK        -0.2404 
     17 C17         1.5344  -21.7405  -46.5738 C.3       23 UNK        -0.0398 
     18 CA          0.5840  -22.7087  -45.8271 C.3       11 UNK         0.1400 
     19 N           0.2412  -22.1669  -44.5113 N.am      11 UNK        -0.5000 
     20 C           0.3347  -22.8146  -43.3430 C.2       10 UNK         0.5000 
     21 O           0.7081  -23.9832  -43.2395 O.2       10 UNK        -0.5000 
     22 CA         -0.0550  -22.0338  -42.0689 C.3       10 UNK         0.1400 
     23 CB          1.2030  -21.6145  -41.2962 C.3       10 UNK        -0.1800 
     24 N          -0.8661  -20.8418  -42.3277 N.am      10 UNK        -0.5000 
     25 C          -2.1148  -20.8608  -42.8077 C.2       9 UNK         0.5000 
     26 O          -2.7315  -21.8984  -43.0441 O.2       9 UNK        -0.5000 
     27 CA         -2.7628  -19.5021  -43.1304 C.3       9 UNK         0.1400 
     28 CB         -3.4669  -18.9316  -41.8905 C.3       9 UNK        -0.1800 
     29 N          -1.8377  -18.4970  -43.6660 N.am      9 UNK        -0.5000 
     30 C          -1.0953  -18.6205  -44.7758 C.2       8 UNK         0.5000 
     31 O          -1.0211  -19.6562  -45.4365 O.2       8 UNK        -0.5000 
     32 CA         -0.3189  -17.3704  -45.2258 C.3       8 UNK         0.1400 
     33 CB         -1.1358  -16.0744  -45.0610 C.3       8 UNK        -0.1800 
     34 N           0.9350  -17.2324  -44.4927 N.am      8 UNK        -0.5000 
     35 C           2.0794  -17.8560  -44.7997 C.2       7 UNK         0.5000 
     36 O           2.2027  -18.6282  -45.7477 O.2       7 UNK        -0.5000 
     37 CA          3.3007  -17.5601  -43.9136 C.3       7 UNK         0.1400 
     38 CB          3.9923  -16.2668  -44.3698 C.3       7 UNK        -0.1800 
     39 N           2.9234  -17.4228  -42.5078 N.am      7 UNK        -0.5000 
     40 C           3.2423  -18.2890  -41.5374 C.2       6 UNK         0.5000 
     41 O           3.9428  -19.2858  -41.7164 O.2       6 UNK        -0.5000 
     42 CA          2.7028  -18.0031  -40.1189 C.3       6 UNK         0.1400 
     43 CB          3.8155  -17.4256  -39.2303 C.3       6 UNK        -0.1800 
     44 N           1.5572  -17.0917  -40.0842 N.am      6 UNK        -0.5000 
     45 C           0.3380  -17.3682  -40.5647 C.2       5 UNK         0.5000 
     46 O           0.0300  -18.4470  -41.0681 O.2       5 UNK        -0.5000 
     47 CA         -0.6986  -16.2273  -40.5327 C.3       5 UNK         0.1400 
     48 CB         -1.5325  -16.2990  -39.2454 C.3       5 UNK        -0.1800 
     49 N          -0.1368  -14.8769  -40.6714 N.am      5 UNK        -0.5000 
     50 C           0.6415  -14.4591  -41.6789 C.2       4 UNK         0.5000 
     51 O           1.0601  -15.2048  -42.5675 O.2       4 UNK        -0.5000 
     52 CA          1.0613  -12.9773  -41.6621 C.3       4 UNK         0.1400 
     53 CB          2.2431  -12.7742  -40.7011 C.3       4 UNK        -0.1800 
     54 N           1.4542  -12.5057  -42.9917 N.am      4 UNK        -0.5000 
     55 C           0.6287  -12.3976  -44.0403 C.2       3 UNK         0.5000 
     56 O          -0.5909  -12.5777  -43.9759 O.2       3 UNK        -0.5000 
     57 CA          1.2861  -12.0370  -45.3818 C.3       3 UNK         0.1400 
     58 CB          2.2300  -13.1545  -45.8655 C.3       3 UNK        -0.1800 
     59 N           0.2499  -11.8176  -46.3831 N.am      3 UNK        -0.5000 
     60 C           0.3446  -11.0245  -47.4527 C.2       2 UNK         0.5000 
     61 O           1.3507  -10.3675  -47.7282 O.2       2 UNK        -0.5000 
     62 CA         -0.8829  -11.0027  -48.3861 C.3       2 UNK         0.1400 
     63 CB         -0.8189   -9.8697  -49.4261 C.3       2 UNK        -0.1800 
     64 N          -1.0259  -12.2768  -49.0909 N.am      2 UNK        -0.5000 
     65 C          -1.5224  -13.4039  -48.5672 C.2       1 UNK         0.5000 
     66 O          -1.9700  -13.4802  -47.4211 O.2       1 UNK        -0.5000 
     67 C          -0.6816  -23.0290  -46.6540 C.2       11 UNK         0.5000 
     68 O          -0.5646  -23.3615  -47.8342 O.2       11 UNK        -0.5000 
     69 N          -1.8731  -22.9454  -46.0387 N.am      12 UNK        -0.5000 
     70 CA         -3.1865  -23.1010  -46.6741 C.3       12 UNK         0.1400 
     71 CB         -4.2837  -22.9102  -45.6185 C.3       12 UNK        -0.1800 
     72 C          -3.4094  -24.4195  -47.4398 C.2       12 UNK         0.5000 
     73 O          -4.2077  -24.4353  -48.3773 O.2       12 UNK        -0.5000 
     74 N          -2.6970  -25.4851  -47.0529 N.am      13 UNK        -0.5000 
     75 CA         -2.7066  -26.7798  -47.7352 C.3       13 UNK         0.1400 
     76 CB         -2.0250  -27.8230  -46.8370 C.3       13 UNK        -0.1800 
     77 C          -2.0347  -26.7428  -49.1233 C.2       13 UNK         0.5000 
     78 O          -2.4412  -27.4976  -50.0072 O.2       13 UNK        -0.5000 
     79 N          -1.0294  -25.8729  -49.2915 N.am      14 UNK        -0.5000 
     80 CA         -0.3035  -25.6718  -50.5461 C.3       14 UNK         0.1400 
     81 CB          1.1844  -25.4422  -50.2376 C.3       14 UNK        -0.1800 
     82 C          -0.8709  -24.4786  -51.3291 C.2       14 UNK         0.5000 
     83 O          -0.9859  -24.5532  -52.5526 O.2       14 UNK        -0.5000 
     84 N          -1.2151  -23.4069  -50.6032 N.am      15 UNK        -0.5000 
     85 CA         -1.7036  -22.1316  -51.1271 C.3       15 UNK         0.1400 
     86 CB         -1.4502  -21.0605  -50.0602 C.3       15 UNK        -0.1800 
     87 C          -3.1914  -22.1309  -51.5251 C.2       15 UNK         0.5000 
     88 O          -3.6597  -21.1216  -52.0552 O.2       15 UNK        -0.5000 
     89 N          -3.9019  -23.2297  -51.2302 N.am      16 UNK        -0.5000 
     90 CA         -5.3290  -23.4685  -51.4585 C.3       16 UNK         0.1400 
     91 CB         -5.6563  -23.4696  -52.9636 C.3       16 UNK        -0.1800 
     92 C          -6.1987  -22.4832  -50.6585 C.2       16 UNK         0.5000 
     93 O          -6.7269  -21.5199  -51.2133 O.2       16 UNK        -0.5000 
     94 N          -6.2806  -22.7234  -49.3429 N.am      17 UNK        -0.5000 
     95 CA         -7.0264  -21.9371  -48.3488 C.3       17 UNK         0.1400 
     96 CB         -8.5406  -21.9521  -48.6489 C.3       17 UNK        -0.1800 
     97 C          -6.4669  -20.5099  -48.1598 C.2       17 UNK         0.5000 
     98 O          -7.2074  -19.6045  -47.7748 O.2       17 UNK        -0.5000 
     99 N          -5.1658  -20.3445  -48.4473 N.am      18 UNK        -0.5000 
    100 CA        -4.4013  -19.0911  -48.4394 C.3       18 UNK         0.1400 
    101 CB        -4.3238  -18.4900  -47.0208 C.3       18 UNK        -0.1800 
    102 C         -4.8671  -18.0781  -49.5092 C.2       18 UNK         0.5000 
    103 O         -4.6057  -16.8813  -49.3753 O.2       18 UNK        -0.5000 
    104 N         -5.5166  -18.5745  -50.5738 N.am      19 UNK        -0.5000 
    105 CA        -5.9569  -17.7854  -51.7265 C.3       19 UNK         0.1400 
    106 CB        -7.0874  -18.5397  -52.4434 C.3       19 UNK        -0.1800 
    107 C         -4.8158  -17.4769  -52.7161 C.2       19 UNK         0.5000 
    108 O         -5.0206  -16.6862  -53.6368 O.2       19 UNK        -0.5000 
    109 N         -3.6582  -18.1291  -52.5312 N.am      20 UNK        -0.5000 
    110 CA        -2.4700  -18.1060  -53.3891 C.3       20 UNK         0.1400 
    111 CB        -1.8433  -16.6979  -53.4542 C.3       20 UNK        -0.1800 
    112 C         -2.7286  -18.7235  -54.7796 C.2       20 UNK         0.5000 
    113 O         -2.0328  -18.3996  -55.7432 O.2       20 UNK        -0.5000 
    114 N         -3.6992  -19.6438  -54.8506 N.am      21 UNK        -0.5000 
    115 CA        -4.0024  -20.4746  -56.0135 C.3       21 UNK         0.1400 
    116 CB        -5.5259  -20.6735  -56.1037 C.3       21 UNK        -0.1800 
    117 C         -3.2182  -21.7900  -55.8689 C.2       21 UNK         0.5000 
    118 O         -3.8084  -22.8589  -55.7129 O.2       21 UNK        -0.5000 
    119 N         -1.8895  -21.6416  -55.8351 N.am      22 UNK        -0.5000 
    120 CA        -0.8953  -22.6391  -55.4266 C.3       22 UNK         0.1400 
    121 C         -0.9858  -23.9968  -56.1721 C.2       22 UNK         0.5000 
    122 N         -0.9847  -25.1011  -55.4380 N.am      22 UNK        -0.7600 
    123 O         -1.0060  -24.0532  -57.3997 O.2       22 UNK        -0.5000 
    124 C124        0.5344  -22.0543  -55.5200 C.3       23 UNK        -0.0398 
    125 S125        0.7521  -20.6248  -54.4049 S.3       23 UNK        -0.2404 
    126 C126        1.6415  -21.4345  -53.0353 C.3       23 UNK        -0.0205 
    127 H127       -5.1931  -13.0541  -51.4394 H         1 UNK         0.0600 
    128 H128       -4.7128  -14.2182  -52.6756 H         1 UNK         0.0600 
    129 H129       -5.2176  -14.7787  -51.0747 H         1 UNK         0.0600 
    130 H130       -3.4857  -15.4146  -49.8040 H         1 UNK         0.3000 
    131 H131       -0.7599  -14.5251  -50.2367 H         1 UNK         0.0600 
    132 H132       -0.3262  -15.7847  -48.0698 H         1 UNK         0.0800 
    133 H133       -2.0293  -16.1333  -47.9733 H         1 UNK         0.0800 
    134 H134        1.3126  -16.7791  -49.3417 H         1 UNK         0.0800 
    135 H135        0.8816  -16.7040  -51.0310 H         1 UNK         0.0800 
    136 H136        0.6440  -18.8815  -52.3332 H         1 UNK         0.1150 
    137 H137        2.9944  -22.1636  -50.8586 H         1 UNK         0.1150 
    138 H138        2.2525  -18.7611  -48.3727 H         1 UNK         0.1150 
    139 H139        4.5054  -21.4998  -48.8383 H         1 UNK         0.0800 
    140 H140        3.8134  -20.4390  -47.6369 H         1 UNK         0.0800 
    141 H141        2.1375  -21.1909  -45.8508 H         1 UNK         0.0800 
    142 H142        0.9836  -20.9844  -47.1377 H         1 UNK         0.0800 
    143 H143        1.1022  -23.6599  -45.6919 H         1 UNK         0.0600 
    144 H144       -0.1163  -21.2164  -44.5217 H         1 UNK         0.3000 
    145 H145       -0.6371  -22.7074  -41.4368 H         1 UNK         0.0600 
    146 H146        0.9469  -21.1045  -40.3673 H         1 UNK         0.0600 
    147 H147        1.8128  -22.4804  -41.0355 H         1 UNK         0.0600 
    148 H148        1.8223  -20.9427  -41.8899 H         1 UNK         0.0600 
    149 H149       -0.4523  -19.9430  -42.0894 H         1 UNK         0.3000 
    150 H150       -3.5204  -19.6815  -43.8955 H         1 UNK         0.0600 
    151 H151       -4.2005  -19.6379  -41.4997 H         1 UNK         0.0600 
    152 H152       -3.9987  -18.0093  -42.1250 H         1 UNK         0.0600 
    153 H153       -2.7595  -18.7188  -41.0887 H         1 UNK         0.0600 
    154 H154       -1.8127  -17.6162  -43.1779 H         1 UNK         0.3000 
    155 H155       -0.1010  -17.4932  -46.2889 H         1 UNK         0.0600 
    156 H156       -1.2927  -15.8121  -44.0145 H         1 UNK         0.0600 
    157 H157       -2.1166  -16.1604  -45.5297 H         1 UNK         0.0600 
    158 H158       -0.6273  -15.2320  -45.5302 H         1 UNK         0.0600 
    159 H159        0.9369  -16.5639  -43.7260 H         1 UNK         0.3000 
    160 H160        4.0058  -18.3832  -44.0468 H         1 UNK         0.0600 
    161 H161        4.9195  -16.1036  -43.8205 H         1 UNK         0.0600 
    162 H162        3.3543  -15.3978  -44.2111 H         1 UNK         0.0600 
    163 H163        4.2430  -16.3060  -45.4307 H         1 UNK         0.0600 
    164 H164        2.3257  -16.6342  -42.2833 H         1 UNK         0.3000 
    165 H165        2.3861  -18.9580  -39.6943 H         1 UNK         0.0600 
    166 H166        3.4732  -17.2946  -38.2036 H         1 UNK         0.0600 
    167 H167        4.6786  -18.0920  -39.2005 H         1 UNK         0.0600 
    168 H168        4.1604  -16.4579  -39.5969 H         1 UNK         0.0600 
    169 H169        1.7211  -16.1731  -39.6999 H         1 UNK         0.3000 
    170 H170       -1.3706  -16.3825  -41.3783 H         1 UNK         0.0600 
    171 H171       -1.9760  -17.2876  -39.1189 H         1 UNK         0.0600 
    172 H172       -0.9257  -16.0967  -38.3619 H         1 UNK         0.0600 
    173 H173       -2.3506  -15.5788  -39.2640 H         1 UNK         0.0600 
    174 H174       -0.4160  -14.2081  -39.9679 H         1 UNK         0.3000 
    175 H175        0.2148  -12.3784  -41.3201 H         1 UNK         0.0600 
    176 H176        3.1127  -13.3597  -41.0032 H         1 UNK         0.0600 
    177 H177        2.5421  -11.7267  -40.6594 H         1 UNK         0.0600 
    178 H178        1.9822  -13.0747  -39.6855 H         1 UNK         0.0600 
    179 H179        2.4426  -12.3633  -43.1363 H         1 UNK         0.3000 
    180 H180        1.8529  -11.1146  -45.2388 H         1 UNK         0.0600 
    181 H181        1.7182  -14.1163  -45.9233 H         1 UNK         0.0600 
    182 H182        3.0783  -13.2691  -45.1911 H         1 UNK         0.0600 
    183 H183        2.6371  -12.9330  -46.8521 H         1 UNK         0.0600 
    184 H184       -0.6160  -12.3227  -46.2174 H         1 UNK         0.3000 
    185 H185       -1.7673  -10.8354  -47.7675 H         1 UNK         0.0600 
    186 H186       -0.7233   -8.8981  -48.9399 H         1 UNK         0.0600 
    187 H187        0.0304   -9.9861  -50.1006 H         1 UNK         0.0600 
    188 H188       -1.7248   -9.8412  -50.0320 H         1 UNK         0.0600 
    189 H189       -0.7252  -12.2878  -50.0558 H         1 UNK         0.3000 
    190 H190       -1.8844  -22.6760  -45.0633 H         1 UNK         0.3000 
    191 H191       -3.2820  -22.2982  -47.4055 H         1 UNK         0.0600 
    192 H192       -4.1265  -23.5601  -44.7570 H         1 UNK         0.0600 
    193 H193       -5.2701  -23.1427  -46.0159 H         1 UNK         0.0600 
    194 H194       -4.3123  -21.8796  -45.2648 H         1 UNK         0.0600 
    195 H195       -2.0702  -25.3848  -46.2683 H         1 UNK         0.3000 
    196 H196       -3.7465  -27.0808  -47.8795 H         1 UNK         0.0600 
    197 H197       -2.0364  -28.8084  -47.3048 H         1 UNK         0.0600 
    198 H198       -2.5372  -27.9138  -45.8789 H         1 UNK         0.0600 
    199 H199       -0.9837  -27.5655  -46.6391 H         1 UNK         0.0600 
    200 H200       -0.7952  -25.2423  -48.5330 H         1 UNK         0.3000 
    201 H201       -0.3842  -26.5598  -51.1767 H         1 UNK         0.0600 
    202 H202        1.6151  -26.2977  -49.7173 H         1 UNK         0.0600 
    203 H203        1.3368  -24.5605  -49.6139 H         1 UNK         0.0600 
    204 H204        1.7559  -25.2968  -51.1552 H         1 UNK         0.0600 
    205 H205       -1.0330  -23.4291  -49.6022 H         1 UNK         0.3000 
    206 H206       -1.1302  -21.8730  -52.0183 H         1 UNK         0.0600 
    207 H207       -1.7201  -20.0746  -50.4350 H         1 UNK         0.0600 
    208 H208       -0.3995  -21.0253  -49.7738 H         1 UNK         0.0600 
    209 H209       -2.0273  -21.2471  -49.1556 H         1 UNK         0.0600 
    210 H210       -3.4167  -23.9690  -50.7413 H         1 UNK         0.3000 
    211 H211       -5.5427  -24.4689  -51.0787 H         1 UNK         0.0600 
    212 H212       -5.4658  -22.4994  -53.4194 H         1 UNK         0.0600 
    213 H213       -6.7061  -23.7097  -53.1346 H         1 UNK         0.0600 
    214 H214       -5.0592  -24.2100  -53.4960 H         1 UNK         0.0600 
    215 H215       -5.7365  -23.5008  -48.9740 H         1 UNK         0.3000 
    216 H216       -6.8906  -22.4439  -47.3949 H         1 UNK         0.0600 
    217 H217       -9.1065  -21.5193  -47.8232 H         1 UNK         0.0600 
    218 H218       -8.9048  -22.9695  -48.7909 H         1 UNK         0.0600 
    219 H219       -8.7849  -21.3794  -49.5440 H         1 UNK         0.0600 
    220 H220       -4.6741  -21.1550  -48.7918 H         1 UNK         0.3000 
    221 H221       -3.3834  -19.3570  -48.7210 H         1 UNK         0.0600 
    222 H222       -5.2906  -18.1187  -46.6809 H         1 UNK         0.0600 
    223 H223       -3.9733  -19.2297  -46.3014 H         1 UNK         0.0600 
    224 H224       -3.6254  -17.6542  -46.9877 H         1 UNK         0.0600 
    225 H225       -5.7105  -19.5681  -50.6174 H         1 UNK         0.3000 
    226 H226       -6.3588  -16.8361  -51.3687 H         1 UNK         0.0600 
    227 H227       -7.8922  -18.7982  -51.7548 H         1 UNK         0.0600 
    228 H228       -7.5210  -17.9306  -53.2375 H         1 UNK         0.0600 
    229 H229       -6.7269  -19.4618  -52.9012 H         1 UNK         0.0600 
    230 H230       -3.6353  -18.8151  -51.7887 H         1 UNK         0.3000 
    231 H231       -1.7456  -18.7622  -52.9048 H         1 UNK         0.0600 
    232 H232       -1.6723  -16.2958  -52.4563 H         1 UNK         0.0600 
    233 H233       -2.4757  -15.9940  -53.9953 H         1 UNK         0.0600 
    234 H234       -0.8775  -16.7248  -53.9597 H         1 UNK         0.0600 
    235 H235       -4.1435  -19.9176  -53.9829 H         1 UNK         0.3000 
    236 H236       -3.6726  -19.9846  -56.9319 H         1 UNK         0.0600 
    237 H237       -5.7869  -21.3131  -56.9477 H         1 UNK         0.0600 
    238 H238       -5.9326  -21.1323  -55.2032 H         1 UNK         0.0600 
    239 H239       -6.0355  -19.7207  -56.2477 H         1 UNK         0.0600 
    240 H240       -1.5245  -20.7084  -55.9705 H         1 UNK         0.3000 
    241 H241       -1.1039  -22.8270  -54.3743 H         1 UNK         0.0600 
    242 H242       -1.0279  -26.0011  -55.8889 H         1 UNK         0.3800 
    243 H243       -0.9792  -25.0432  -54.4223 H         1 UNK         0.3800 
    244 H244        1.2812  -22.8132  -55.2789 H         1 UNK         0.0800 
    245 H245        0.7497  -21.7351  -56.5412 H         1 UNK         0.0800 
    246 H246        2.6323  -21.7173  -53.3942 H         1 UNK         0.0800 
    247 H247        1.1264  -22.3628  -52.7843 H         1 UNK         0.0800 
@<TRIPOS>BOND
     1    1    2 1    
     2    1  127 1    
     3    1  128 1    
     4    1  129 1    
     5    2    3 2    
     6    2    4 am   BACKBONE|DICT|INTERRES
     7    4    5 1    
     8    4  130 1    
     9    5    6 1    
    10    5   65 1    
    11    5  131 1    
    12    6    7 1    
    13    6  132 1    
    14    6  133 1    
    15    7    8 1    
    16    8    9 1    
    17    8  134 1    
    18    8  135 1    
    19    9   10 ar   
    20    9   14 ar   
    21   10   11 ar   
    22   10  136 1    
    23   11   12 ar   
    24   11  126 1    
    25   12   13 ar   
    26   12  137 1    
    27   13   14 ar   
    28   13   15 1    
    29   14  138 1    
    30   15   16 1    
    31   15  139 1    
    32   15  140 1    
    33   16   17 1    
    34   17   18 1    
    35   17  141 1    
    36   17  142 1    
    37   18   19 1    
    38   18   67 1    
    39   18  143 1    
    40   19   20 am   BACKBONE|DICT|INTERRES
    41   19  144 1    
    42   20   21 2    
    43   20   22 1    
    44   22   23 1    
    45   22   24 1    
    46   22  145 1    
    47   23  146 1    
    48   23  147 1    
    49   23  148 1    
    50   24   25 am   BACKBONE|DICT|INTERRES
    51   24  149 1    
    52   25   26 2    
    53   25   27 1    
    54   27   28 1    
    55   27   29 1    
    56   27  150 1    
    57   28  151 1    
    58   28  152 1    
    59   28  153 1    
    60   29   30 am   BACKBONE|DICT|INTERRES
    61   29  154 1    
    62   30   31 2    
    63   30   32 1    
    64   32   33 1    
    65   32   34 1    
    66   32  155 1    
    67   33  156 1    
    68   33  157 1    
    69   33  158 1    
    70   34   35 am   BACKBONE|DICT|INTERRES
    71   34  159 1    
    72   35   36 2    
    73   35   37 1    
    74   37   38 1    
    75   37   39 1    
    76   37  160 1    
    77   38  161 1    
    78   38  162 1    
    79   38  163 1    
    80   39   40 am   BACKBONE|DICT|INTERRES
    81   39  164 1    
    82   40   41 2    
    83   40   42 1    
    84   42   43 1    
    85   42   44 1    
    86   42  165 1    
    87   43  166 1    
    88   43  167 1    
    89   43  168 1    
    90   44   45 am   BACKBONE|DICT|INTERRES
    91   44  169 1    
    92   45   46 2    
    93   45   47 1    
    94   47   48 1    
    95   47   49 1    
    96   47  170 1    
    97   48  171 1    
    98   48  172 1    
    99   48  173 1    
   100   49   50 am   BACKBONE|DICT|INTERRES
   101   49  174 1    
   102   50   51 2    
   103   50   52 1    
   104   52   53 1    
   105   52   54 1    
   106   52  175 1    
   107   53  176 1    
   108   53  177 1    
   109   53  178 1    
   110   54   55 am   BACKBONE|DICT|INTERRES
   111   54  179 1    
   112   55   56 2    
   113   55   57 1    
   114   57   58 1    
   115   57   59 1    
   116   57  180 1    
   117   58  181 1    
   118   58  182 1    
   119   58  183 1    
   120   59   60 am   BACKBONE|DICT|INTERRES
   121   59  184 1    
   122   60   61 2    
   123   60   62 1    
   124   62   63 1    
   125   62   64 1    
   126   62  185 1    
   127   63  186 1    
   128   63  187 1    
   129   63  188 1    
   130   64   65 am   BACKBONE|DICT|INTERRES
   131   64  189 1    
   132   65   66 2    
   133   67   68 2    
   134   67   69 am   BACKBONE|DICT|INTERRES
   135   69   70 1    
   136   69  190 1    
   137   70   71 1    
   138   70   72 1    
   139   70  191 1    
   140   71  192 1    
   141   71  193 1    
   142   71  194 1    
   143   72   73 2    
   144   72   74 am   BACKBONE|DICT|INTERRES
   145   74   75 1    
   146   74  195 1    
   147   75   76 1    
   148   75   77 1    
   149   75  196 1    
   150   76  197 1    
   151   76  198 1    
   152   76  199 1    
   153   77   78 2    
   154   77   79 am   BACKBONE|DICT|INTERRES
   155   79   80 1    
   156   79  200 1    
   157   80   81 1    
   158   80   82 1    
   159   80  201 1    
   160   81  202 1    
   161   81  203 1    
   162   81  204 1    
   163   82   83 2    
   164   82   84 am   BACKBONE|DICT|INTERRES
   165   84   85 1    
   166   84  205 1    
   167   85   86 1    
   168   85   87 1    
   169   85  206 1    
   170   86  207 1    
   171   86  208 1    
   172   86  209 1    
   173   87   88 2    
   174   87   89 am   BACKBONE|DICT|INTERRES
   175   89   90 1    
   176   89  210 1    
   177   90   91 1    
   178   90   92 1    
   179   90  211 1    
   180   91  212 1    
   181   91  213 1    
   182   91  214 1    
   183   92   93 2    
   184   92   94 am   BACKBONE|DICT|INTERRES
   185   94   95 1    
   186   94  215 1    
   187   95   96 1    
   188   95   97 1    
   189   95  216 1    
   190   96  217 1    
   191   96  218 1    
   192   96  219 1    
   193   97   98 2    
   194   97   99 am   BACKBONE|DICT|INTERRES
   195   99  100 1    
   196   99  220 1    
   197  100  101 1    
   198  100  102 1    
   199  100  221 1    
   200  101  222 1    
   201  101  223 1    
   202  101  224 1    
   203  102  103 2    
   204  102  104 am   BACKBONE|DICT|INTERRES
   205  104  105 1    
   206  104  225 1    
   207  105  106 1    
   208  105  107 1    
   209  105  226 1    
   210  106  227 1    
   211  106  228 1    
   212  106  229 1    
   213  107  108 2    
   214  107  109 am   BACKBONE|DICT|INTERRES
   215  109  110 1    
   216  109  230 1    
   217  110  111 1    
   218  110  112 1    
   219  110  231 1    
   220  111  232 1    
   221  111  233 1    
   222  111  234 1    
   223  112  113 2    
   224  112  114 am   BACKBONE|DICT|INTERRES
   225  114  115 1    
   226  114  235 1    
   227  115  116 1    
   228  115  117 1    
   229  115  236 1    
   230  116  237 1    
   231  116  238 1    
   232  116  239 1    
   233  117  118 2    
   234  117  119 am   BACKBONE|DICT|INTERRES
   235  119  120 1    
   236  119  240 1    
   237  120  121 1    
   238  120  124 1    
   239  120  241 1    
   240  121  122 am   BACKBONE|DICT|INTERRES
   241  121  123 2    
   242  122  242 1    
   243  122  243 1    
   244  124  125 1    
   245  124  244 1    
   246  124  245 1    
   247  125  126 1    
   248  126  246 1    
   249  126  247 1    
@<TRIPOS>SUBSTRUCTURE
     1 UNK         1 GROUP             0       ****    0 ROOT    
