@<TRIPOS>MOLECULE
3R540
247   249    1
SMALL
USER_CHARGES


@<TRIPOS>ATOM
      1 CA         -1.2841  -18.1366  -43.5816 C.3       0 UNK        -0.1800 
      2 C          -1.3343  -17.3420  -44.8757 C.2       0 UNK         0.5000 
      3 O          -2.4105  -17.1553  -45.4429 O.2       0 UNK        -0.5000 
      4 N          -0.1771  -16.8543  -45.3348 N.am      1 UNK        -0.5000 
      5 CA         -0.0404  -15.9692  -46.4904 C.3       1 UNK         0.1400 
      6 C6          1.3145  -16.2055  -47.1975 C.3       23 UNK        -0.0398 
      7 S7          1.5308  -15.2542  -48.7407 S.3       23 UNK        -0.2404 
      8 C8          3.1535  -15.8670  -49.2990 C.3       23 UNK        -0.0205 
      9 C9          3.0629  -17.2992  -49.8022 C.ar      23 UNK        -0.0193 
     10 C10         2.6530  -17.5581  -51.1122 C.ar      23 UNK        -0.1150 
     11 C11         2.5187  -18.8730  -51.5664 C.ar      23 UNK        -0.0193 
     12 C12         2.7878  -19.9317  -50.6941 C.ar      23 UNK        -0.1150 
     13 C13         3.1931  -19.6886  -49.3782 C.ar      23 UNK        -0.0193 
     14 C14         3.3611  -18.3663  -48.9511 C.ar      23 UNK        -0.1150 
     15 C15         3.4313  -20.8691  -48.4390 C.3       23 UNK        -0.0205 
     16 S16         2.9298  -20.5819  -46.7047 S.3       23 UNK        -0.2404 
     17 C17         1.1627  -20.1424  -46.8613 C.3       23 UNK        -0.0398 
     18 CA          0.2149  -21.3584  -46.7570 C.3       11 UNK         0.1400 
     19 N           0.4105  -22.1239  -45.5241 N.am      11 UNK        -0.5000 
     20 C           0.0268  -23.3959  -45.3496 C.2       10 UNK         0.5000 
     21 O          -0.5496  -24.0513  -46.2177 O.2       10 UNK        -0.5000 
     22 CA          0.2917  -24.0332  -43.9697 C.3       10 UNK         0.1400 
     23 CB          1.6126  -24.8163  -43.9893 C.3       10 UNK        -0.1800 
     24 N           0.3282  -23.0660  -42.8698 N.am      10 UNK        -0.5000 
     25 C          -0.6939  -22.2807  -42.5030 C.2       9 UNK         0.5000 
     26 O          -1.8067  -22.3276  -43.0257 O.2       9 UNK        -0.5000 
     27 CA         -0.4159  -21.2284  -41.4116 C.3       9 UNK         0.1400 
     28 CB         -0.7805  -21.7844  -40.0274 C.3       9 UNK        -0.1800 
     29 N           0.9582  -20.7137  -41.3716 N.am      9 UNK        -0.5000 
     30 C           1.6442  -20.1873  -42.3955 C.2       8 UNK         0.5000 
     31 O           1.2288  -20.1574  -43.5535 O.2       8 UNK        -0.5000 
     32 CA          3.0037  -19.5603  -42.0433 C.3       8 UNK         0.1400 
     33 CB          3.8819  -19.3123  -43.2824 C.3       8 UNK        -0.1800 
     34 N           2.7992  -18.2977  -41.3345 N.am      8 UNK        -0.5000 
     35 C           2.5429  -18.1920  -40.0219 C.2       7 UNK         0.5000 
     36 O           2.4743  -19.1656  -39.2696 O.2       7 UNK        -0.5000 
     37 CA          2.3298  -16.7804  -39.4392 C.3       7 UNK         0.1400 
     38 CB          3.5877  -16.3181  -38.6876 C.3       7 UNK        -0.1800 
     39 N           1.9924  -15.7775  -40.4491 N.am      7 UNK        -0.5000 
     40 C           0.7925  -15.6446  -41.0304 C.2       6 UNK         0.5000 
     41 O          -0.1876  -16.3305  -40.7419 O.2       6 UNK        -0.5000 
     42 CA          0.6749  -14.5739  -42.1348 C.3       6 UNK         0.1400 
     43 CB          0.1103  -13.2672  -41.5582 C.3       6 UNK        -0.1800 
     44 N           1.9423  -14.2852  -42.8162 N.am      6 UNK        -0.5000 
     45 C           2.6288  -15.1690  -43.5515 C.2       5 UNK         0.5000 
     46 O           2.2606  -16.3319  -43.7276 O.2       5 UNK        -0.5000 
     47 CA          3.9015  -14.6403  -44.2260 C.3       5 UNK         0.1400 
     48 CB          4.7528  -15.7580  -44.8663 C.3       5 UNK        -0.1800 
     49 N           3.5285  -13.6334  -45.2198 N.am      5 UNK        -0.5000 
     50 C           4.3624  -12.7043  -45.7055 C.2       4 UNK         0.5000 
     51 O           5.5254  -12.5815  -45.3176 O.2       4 UNK        -0.5000 
     52 CA          3.8546  -11.7480  -46.8012 C.3       4 UNK         0.1400 
     53 CB          4.3706  -12.1883  -48.1828 C.3       4 UNK        -0.1800 
     54 N           2.3961  -11.5980  -46.8543 N.am      4 UNK        -0.5000 
     55 C           1.7821  -10.4558  -47.2130 C.2       3 UNK         0.5000 
     56 O           2.3848   -9.4086  -47.4531 O.2       3 UNK        -0.5000 
     57 CA          0.2472  -10.4608  -47.3387 C.3       3 UNK         0.1400 
     58 CB         -0.1655  -10.7095  -48.8021 C.3       3 UNK        -0.1800 
     59 N          -0.3422  -11.4649  -46.4637 N.am      3 UNK        -0.5000 
     60 C          -1.6223  -11.6261  -46.1297 C.2       2 UNK         0.5000 
     61 O          -2.5317  -10.8894  -46.5152 O.2       2 UNK        -0.5000 
     62 CA         -1.9135  -12.8347  -45.2086 C.3       2 UNK         0.1400 
     63 CB         -3.3992  -12.9458  -44.8241 C.3       2 UNK        -0.1800 
     64 N          -1.4782  -14.1234  -45.7626 N.am      2 UNK        -0.5000 
     65 C          -0.2197  -14.5258  -45.9876 C.2       1 UNK         0.5000 
     66 O           0.7738  -13.8277  -45.7639 O.2       1 UNK        -0.5000 
     67 C          -1.2516  -20.9184  -46.9564 C.2       11 UNK         0.5000 
     68 O          -1.6007  -20.5215  -48.0670 O.2       11 UNK        -0.5000 
     69 N          -2.0999  -21.0198  -45.9189 N.am      12 UNK        -0.5000 
     70 CA         -3.5362  -20.7422  -46.0166 C.3       12 UNK         0.1400 
     71 CB         -4.1612  -20.6857  -44.6155 C.3       12 UNK        -0.1800 
     72 C          -4.2719  -21.7733  -46.8929 C.2       12 UNK         0.5000 
     73 O          -5.2247  -21.4111  -47.5799 O.2       12 UNK        -0.5000 
     74 N          -3.7886  -23.0254  -46.8968 N.am      13 UNK        -0.5000 
     75 CA         -4.2636  -24.0958  -47.7767 C.3       13 UNK         0.1400 
     76 CB         -3.6386  -25.4272  -47.3343 C.3       13 UNK        -0.1800 
     77 C          -3.9450  -23.8125  -49.2568 C.2       13 UNK         0.5000 
     78 O          -4.7748  -24.0884  -50.1255 O.2       13 UNK        -0.5000 
     79 N          -2.7599  -23.2315  -49.4933 N.am      14 UNK        -0.5000 
     80 CA         -2.2485  -22.8262  -50.8020 C.3       14 UNK         0.1400 
     81 CB         -0.7236  -22.6581  -50.7109 C.3       14 UNK        -0.1800 
     82 C          -2.9081  -21.5438  -51.3488 C.2       14 UNK         0.5000 
     83 O          -2.7632  -21.2413  -52.5331 O.2       14 UNK        -0.5000 
     84 N          -3.6459  -20.8045  -50.5109 N.am      15 UNK        -0.5000 
     85 CA         -4.3802  -19.5941  -50.8842 C.3       15 UNK         0.1400 
     86 CB         -4.5285  -18.6934  -49.6457 C.3       15 UNK        -0.1800 
     87 C          -5.7289  -19.9125  -51.5692 C.2       15 UNK         0.5000 
     88 O          -6.7406  -19.2854  -51.2547 O.2       15 UNK        -0.5000 
     89 N          -5.7211  -20.9021  -52.4763 N.am      16 UNK        -0.5000 
     90 CA         -6.8437  -21.4543  -53.2457 C.3       16 UNK         0.1400 
     91 CB         -7.4997  -20.3693  -54.1261 C.3       16 UNK        -0.1800 
     92 C          -7.8926  -22.2097  -52.4001 C.2       16 UNK         0.5000 
     93 O          -8.9226  -22.6116  -52.9443 O.2       16 UNK        -0.5000 
     94 N          -7.6369  -22.3925  -51.0972 N.am      17 UNK        -0.5000 
     95 CA         -8.5614  -23.0215  -50.1549 C.3       17 UNK         0.1400 
     96 CB         -8.1684  -22.6379  -48.7222 C.3       17 UNK        -0.1800 
     97 C          -8.6164  -24.5492  -50.3149 C.2       17 UNK         0.5000 
     98 O          -9.7009  -25.1265  -50.2230 O.2       17 UNK        -0.5000 
     99 N          -7.4551  -25.1686  -50.5566 N.am      18 UNK        -0.5000 
    100 CA        -7.3113  -26.6086  -50.7683 C.3       18 UNK         0.1400 
    101 CB        -6.7955  -27.2618  -49.4768 C.3       18 UNK        -0.1800 
    102 C         -6.3852  -26.9339  -51.9512 C.2       18 UNK         0.5000 
    103 O         -6.5489  -27.9918  -52.5610 O.2       18 UNK        -0.5000 
    104 N         -5.4388  -26.0423  -52.2669 N.am      19 UNK        -0.5000 
    105 CA        -4.4715  -26.1955  -53.3478 C.3       19 UNK         0.1400 
    106 CB        -3.2564  -26.9859  -52.8256 C.3       19 UNK        -0.1800 
    107 C         -4.0479  -24.8128  -53.8620 C.2       19 UNK         0.5000 
    108 O         -4.3545  -23.8049  -53.2225 O.2       19 UNK        -0.5000 
    109 N         -3.3238  -24.8123  -54.9903 N.am      20 UNK        -0.5000 
    110 CA        -2.6513  -23.6728  -55.6258 C.3       20 UNK         0.1400 
    111 CB        -1.3403  -23.3573  -54.8721 C.3       20 UNK        -0.1800 
    112 C         -3.5647  -22.4475  -55.8678 C.2       20 UNK         0.5000 
    113 O         -4.7512  -22.6246  -56.1558 O.2       20 UNK        -0.5000 
    114 N         -2.9957  -21.2379  -55.8019 N.am      21 UNK        -0.5000 
    115 CA        -3.6776  -19.9685  -56.0456 C.3       21 UNK         0.1400 
    116 CB        -3.9765  -19.7907  -57.5506 C.3       21 UNK        -0.1800 
    117 C         -2.8649  -18.8010  -55.4573 C.2       21 UNK         0.5000 
    118 O         -2.6997  -17.7725  -56.1154 O.2       21 UNK        -0.5000 
    119 N         -2.3528  -18.9761  -54.2325 N.am      22 UNK        -0.5000 
    120 CA        -1.5301  -17.9785  -53.5201 C.3       22 UNK         0.1400 
    121 C         -2.3141  -16.7544  -52.9532 C.2       22 UNK         0.5000 
    122 N         -3.6321  -16.6730  -53.0925 N.am      22 UNK        -0.7600 
    123 O         -1.7118  -15.8505  -52.3816 O.2       22 UNK        -0.5000 
    124 C124       -0.6520  -18.6309  -52.4217 C.3       23 UNK        -0.0398 
    125 S125        0.4393  -19.9424  -53.0753 S.3       23 UNK        -0.2404 
    126 C126        2.0767  -19.1498  -52.9969 C.3       23 UNK        -0.0205 
    127 H127       -0.3552  -17.9561  -43.0406 H         1 UNK         0.0600 
    128 H128       -1.3548  -19.2020  -43.7951 H         1 UNK         0.0600 
    129 H129       -2.1121  -17.8579  -42.9299 H         1 UNK         0.0600 
    130 H130        0.6681  -16.9769  -44.7837 H         1 UNK         0.3000 
    131 H131       -0.8312  -16.1810  -47.2136 H         1 UNK         0.0600 
    132 H132        2.1462  -15.9880  -46.5297 H         1 UNK         0.0800 
    133 H133        1.3933  -17.2623  -47.4441 H         1 UNK         0.0800 
    134 H134        3.8771  -15.7874  -48.4860 H         1 UNK         0.0800 
    135 H135        3.5194  -15.2207  -50.0981 H         1 UNK         0.0800 
    136 H136        2.4247  -16.7330  -51.7723 H         1 UNK         0.1150 
    137 H137        2.6646  -20.9480  -51.0416 H         1 UNK         0.1150 
    138 H138        3.6840  -18.1636  -47.9398 H         1 UNK         0.1150 
    139 H139        2.9014  -21.7516  -48.8012 H         1 UNK         0.0800 
    140 H140        4.4930  -21.1170  -48.4577 H         1 UNK         0.0800 
    141 H141        1.0024  -19.6208  -47.8055 H         1 UNK         0.0800 
    142 H142        0.9345  -19.4185  -46.0783 H         1 UNK         0.0800 
    143 H143        0.4507  -22.0192  -47.5940 H         1 UNK         0.0600 
    144 H144        0.8439  -21.6164  -44.7571 H         1 UNK         0.3000 
    145 H145       -0.5218  -24.7340  -43.7711 H         1 UNK         0.0600 
    146 H146        1.7754  -25.3409  -43.0476 H         1 UNK         0.0600 
    147 H147        1.6103  -25.5664  -44.7814 H         1 UNK         0.0600 
    148 H148        2.4663  -24.1594  -44.1617 H         1 UNK         0.0600 
    149 H149        1.2118  -22.9486  -42.3966 H         1 UNK         0.3000 
    150 H150       -1.0685  -20.3777  -41.6143 H         1 UNK         0.0600 
    151 H151       -1.8079  -22.1509  -40.0103 H         1 UNK         0.0600 
    152 H152       -0.6989  -21.0152  -39.2591 H         1 UNK         0.0600 
    153 H153       -0.1306  -22.6132  -39.7439 H         1 UNK         0.0600 
    154 H154        1.3768  -20.6363  -40.4522 H         1 UNK         0.3000 
    155 H155        3.5400  -20.2582  -41.3969 H         1 UNK         0.0600 
    156 H156        3.3960  -18.6585  -44.0066 H         1 UNK         0.0600 
    157 H157        4.1026  -20.2507  -43.7922 H         1 UNK         0.0600 
    158 H158        4.8347  -18.8601  -43.0079 H         1 UNK         0.0600 
    159 H159        2.7562  -17.4687  -41.9135 H         1 UNK         0.3000 
    160 H160        1.5082  -16.8428  -38.7223 H         1 UNK         0.0600 
    161 H161        4.4460  -16.2297  -39.3548 H         1 UNK         0.0600 
    162 H162        3.8552  -17.0248  -37.9007 H         1 UNK         0.0600 
    163 H163        3.4299  -15.3500  -38.2118 H         1 UNK         0.0600 
    164 H164        2.7356  -15.1607  -40.7419 H         1 UNK         0.3000 
    165 H165       -0.0276  -14.9494  -42.8815 H         1 UNK         0.0600 
    166 H166       -0.0050  -12.5082  -42.3315 H         1 UNK         0.0600 
    167 H167       -0.8719  -13.4299  -41.1125 H         1 UNK         0.0600 
    168 H168        0.7592  -12.8572  -40.7833 H         1 UNK         0.0600 
    169 H169        2.2900  -13.3399  -42.7429 H         1 UNK         0.3000 
    170 H170        4.4973  -14.1660  -43.4434 H         1 UNK         0.0600 
    171 H171        5.0116  -16.5188  -44.1292 H         1 UNK         0.0600 
    172 H172        4.2315  -16.2577  -45.6816 H         1 UNK         0.0600 
    173 H173        5.6896  -15.3674  -45.2631 H         1 UNK         0.0600 
    174 H174        2.5578  -13.6710  -45.5208 H         1 UNK         0.3000 
    175 H175        4.3045  -10.7808  -46.5668 H         1 UNK         0.0600 
    176 H176        3.9233  -13.1327  -48.4918 H         1 UNK         0.0600 
    177 H177        4.1415  -11.4445  -48.9461 H         1 UNK         0.0600 
    178 H178        5.4531  -12.3222  -48.1767 H         1 UNK         0.0600 
    179 H179        1.8510  -12.4341  -46.6880 H         1 UNK         0.3000 
    180 H180       -0.1144   -9.4789  -47.0272 H         1 UNK         0.0600 
    181 H181        0.1267  -11.7065  -49.1349 H         1 UNK         0.0600 
    182 H182        0.3067   -9.9879  -49.4700 H         1 UNK         0.0600 
    183 H183       -1.2427  -10.6137  -48.9371 H         1 UNK         0.0600 
    184 H184        0.2976  -12.1580  -46.0870 H         1 UNK         0.3000 
    185 H185       -1.3517  -12.6659  -44.2889 H         1 UNK         0.0600 
    186 H186       -3.7541  -12.0263  -44.3568 H         1 UNK         0.0600 
    187 H187       -4.0264  -13.1366  -45.6958 H         1 UNK         0.0600 
    188 H188       -3.5622  -13.7534  -44.1101 H         1 UNK         0.0600 
    189 H189       -2.2173  -14.7876  -45.9517 H         1 UNK         0.3000 
    190 H190       -1.7633  -21.3771  -45.0329 H         1 UNK         0.3000 
    191 H191       -3.6583  -19.7608  -46.4808 H         1 UNK         0.0600 
    192 H192       -5.2117  -20.3981  -44.6727 H         1 UNK         0.0600 
    193 H193       -3.6602  -19.9530  -43.9838 H         1 UNK         0.0600 
    194 H194       -4.1165  -21.6525  -44.1137 H         1 UNK         0.0600 
    195 H195       -2.9928  -23.2392  -46.3116 H         1 UNK         0.3000 
    196 H196       -5.3463  -24.1770  -47.6705 H         1 UNK         0.0600 
    197 H197       -2.5504  -25.4030  -47.3960 H         1 UNK         0.0600 
    198 H198       -3.9107  -25.6686  -46.3067 H         1 UNK         0.0600 
    199 H199       -3.9773  -26.2509  -47.9619 H         1 UNK         0.0600 
    200 H200       -2.1712  -23.0178  -48.7021 H         1 UNK         0.3000 
    201 H201       -2.4507  -23.6339  -51.5055 H         1 UNK         0.0600 
    202 H202       -0.2494  -23.5432  -50.2866 H         1 UNK         0.0600 
    203 H203       -0.4435  -21.7988  -50.1014 H         1 UNK         0.0600 
    204 H204       -0.2933  -22.5069  -51.7009 H         1 UNK         0.0600 
    205 H205       -3.7277  -21.1038  -49.5493 H         1 UNK         0.3000 
    206 H206       -3.7855  -19.0416  -51.6108 H         1 UNK         0.0600 
    207 H207       -3.5633  -18.5089  -49.1728 H         1 UNK         0.0600 
    208 H208       -4.9463  -17.7234  -49.9178 H         1 UNK         0.0600 
    209 H209       -5.1886  -19.1364  -48.9005 H         1 UNK         0.0600 
    210 H210       -4.8339  -21.3684  -52.6409 H         1 UNK         0.3000 
    211 H211       -6.4069  -22.1965  -53.9144 H         1 UNK         0.0600 
    212 H212       -8.1925  -20.8151  -54.8406 H         1 UNK         0.0600 
    213 H213       -6.7596  -19.8151  -54.7003 H         1 UNK         0.0600 
    214 H214       -8.0661  -19.6521  -53.5315 H         1 UNK         0.0600 
    215 H215       -6.7628  -22.0503  -50.7266 H         1 UNK         0.3000 
    216 H216       -9.5633  -22.6293  -50.3428 H         1 UNK         0.0600 
    217 H217       -7.1777  -23.0107  -48.4679 H         1 UNK         0.0600 
    218 H218       -8.8712  -23.0531  -47.9989 H         1 UNK         0.0600 
    219 H219       -8.1624  -21.5559  -48.5885 H         1 UNK         0.0600 
    220 H220       -6.6022  -24.6186  -50.5732 H         1 UNK         0.3000 
    221 H221       -8.2811  -27.0488  -51.0098 H         1 UNK         0.0600 
    222 H222       -7.4804  -27.0905  -48.6463 H         1 UNK         0.0600 
    223 H223       -5.8205  -26.8660  -49.1960 H         1 UNK         0.0600 
    224 H224       -6.6915  -28.3409  -49.5973 H         1 UNK         0.0600 
    225 H225       -5.3326  -25.1818  -51.7382 H         1 UNK         0.3000 
    226 H226       -4.9311  -26.7332  -54.1799 H         1 UNK         0.0600 
    227 H227       -2.7696  -26.4664  -51.9989 H         1 UNK         0.0600 
    228 H228       -3.5495  -27.9745  -52.4718 H         1 UNK         0.0600 
    229 H229       -2.5103  -27.1329  -53.6071 H         1 UNK         0.0600 
    230 H230       -3.1772  -25.6984  -55.4522 H         1 UNK         0.3000 
    231 H231       -2.3706  -24.0160  -56.6224 H         1 UNK         0.0600 
    232 H232       -1.5297  -23.0099  -53.8589 H         1 UNK         0.0600 
    233 H233       -0.7458  -22.5990  -55.3824 H         1 UNK         0.0600 
    234 H234       -0.7140  -24.2461  -54.7969 H         1 UNK         0.0600 
    235 H235       -2.0233  -21.1689  -55.5339 H         1 UNK         0.3000 
    236 H236       -4.6244  -19.9822  -55.5056 H         1 UNK         0.0600 
    237 H237       -4.6153  -20.5869  -57.9322 H         1 UNK         0.0600 
    238 H238       -4.4970  -18.8512  -57.7403 H         1 UNK         0.0600 
    239 H239       -3.0596  -19.7860  -58.1409 H         1 UNK         0.0600 
    240 H240       -2.5170  -19.8490  -53.7339 H         1 UNK         0.3000 
    241 H241       -0.8428  -17.5523  -54.2534 H         1 UNK         0.0600 
    242 H242       -4.1383  -17.3700  -53.6115 H         1 UNK         0.3800 
    243 H243       -4.1151  -15.8658  -52.7309 H         1 UNK         0.3800 
    244 H244       -1.2760  -19.0647  -51.6402 H         1 UNK         0.0800 
    245 H245       -0.0439  -17.8759  -51.9229 H         1 UNK         0.0800 
    246 H246        2.8074  -19.8049  -53.4728 H         1 UNK         0.0800 
    247 H247        2.0584  -18.2318  -53.5864 H         1 UNK         0.0800 
@<TRIPOS>BOND
     1    1    2 1    
     2    1  127 1    
     3    1  128 1    
     4    1  129 1    
     5    2    3 2    
     6    2    4 am   BACKBONE|DICT|INTERRES
     7    4    5 1    
     8    4  130 1    
     9    5    6 1    
    10    5   65 1    
    11    5  131 1    
    12    6    7 1    
    13    6  132 1    
    14    6  133 1    
    15    7    8 1    
    16    8    9 1    
    17    8  134 1    
    18    8  135 1    
    19    9   10 ar   
    20    9   14 ar   
    21   10   11 ar   
    22   10  136 1    
    23   11   12 ar   
    24   11  126 1    
    25   12   13 ar   
    26   12  137 1    
    27   13   14 ar   
    28   13   15 1    
    29   14  138 1    
    30   15   16 1    
    31   15  139 1    
    32   15  140 1    
    33   16   17 1    
    34   17   18 1    
    35   17  141 1    
    36   17  142 1    
    37   18   19 1    
    38   18   67 1    
    39   18  143 1    
    40   19   20 am   BACKBONE|DICT|INTERRES
    41   19  144 1    
    42   20   21 2    
    43   20   22 1    
    44   22   23 1    
    45   22   24 1    
    46   22  145 1    
    47   23  146 1    
    48   23  147 1    
    49   23  148 1    
    50   24   25 am   BACKBONE|DICT|INTERRES
    51   24  149 1    
    52   25   26 2    
    53   25   27 1    
    54   27   28 1    
    55   27   29 1    
    56   27  150 1    
    57   28  151 1    
    58   28  152 1    
    59   28  153 1    
    60   29   30 am   BACKBONE|DICT|INTERRES
    61   29  154 1    
    62   30   31 2    
    63   30   32 1    
    64   32   33 1    
    65   32   34 1    
    66   32  155 1    
    67   33  156 1    
    68   33  157 1    
    69   33  158 1    
    70   34   35 am   BACKBONE|DICT|INTERRES
    71   34  159 1    
    72   35   36 2    
    73   35   37 1    
    74   37   38 1    
    75   37   39 1    
    76   37  160 1    
    77   38  161 1    
    78   38  162 1    
    79   38  163 1    
    80   39   40 am   BACKBONE|DICT|INTERRES
    81   39  164 1    
    82   40   41 2    
    83   40   42 1    
    84   42   43 1    
    85   42   44 1    
    86   42  165 1    
    87   43  166 1    
    88   43  167 1    
    89   43  168 1    
    90   44   45 am   BACKBONE|DICT|INTERRES
    91   44  169 1    
    92   45   46 2    
    93   45   47 1    
    94   47   48 1    
    95   47   49 1    
    96   47  170 1    
    97   48  171 1    
    98   48  172 1    
    99   48  173 1    
   100   49   50 am   BACKBONE|DICT|INTERRES
   101   49  174 1    
   102   50   51 2    
   103   50   52 1    
   104   52   53 1    
   105   52   54 1    
   106   52  175 1    
   107   53  176 1    
   108   53  177 1    
   109   53  178 1    
   110   54   55 am   BACKBONE|DICT|INTERRES
   111   54  179 1    
   112   55   56 2    
   113   55   57 1    
   114   57   58 1    
   115   57   59 1    
   116   57  180 1    
   117   58  181 1    
   118   58  182 1    
   119   58  183 1    
   120   59   60 am   BACKBONE|DICT|INTERRES
   121   59  184 1    
   122   60   61 2    
   123   60   62 1    
   124   62   63 1    
   125   62   64 1    
   126   62  185 1    
   127   63  186 1    
   128   63  187 1    
   129   63  188 1    
   130   64   65 am   BACKBONE|DICT|INTERRES
   131   64  189 1    
   132   65   66 2    
   133   67   68 2    
   134   67   69 am   BACKBONE|DICT|INTERRES
   135   69   70 1    
   136   69  190 1    
   137   70   71 1    
   138   70   72 1    
   139   70  191 1    
   140   71  192 1    
   141   71  193 1    
   142   71  194 1    
   143   72   73 2    
   144   72   74 am   BACKBONE|DICT|INTERRES
   145   74   75 1    
   146   74  195 1    
   147   75   76 1    
   148   75   77 1    
   149   75  196 1    
   150   76  197 1    
   151   76  198 1    
   152   76  199 1    
   153   77   78 2    
   154   77   79 am   BACKBONE|DICT|INTERRES
   155   79   80 1    
   156   79  200 1    
   157   80   81 1    
   158   80   82 1    
   159   80  201 1    
   160   81  202 1    
   161   81  203 1    
   162   81  204 1    
   163   82   83 2    
   164   82   84 am   BACKBONE|DICT|INTERRES
   165   84   85 1    
   166   84  205 1    
   167   85   86 1    
   168   85   87 1    
   169   85  206 1    
   170   86  207 1    
   171   86  208 1    
   172   86  209 1    
   173   87   88 2    
   174   87   89 am   BACKBONE|DICT|INTERRES
   175   89   90 1    
   176   89  210 1    
   177   90   91 1    
   178   90   92 1    
   179   90  211 1    
   180   91  212 1    
   181   91  213 1    
   182   91  214 1    
   183   92   93 2    
   184   92   94 am   BACKBONE|DICT|INTERRES
   185   94   95 1    
   186   94  215 1    
   187   95   96 1    
   188   95   97 1    
   189   95  216 1    
   190   96  217 1    
   191   96  218 1    
   192   96  219 1    
   193   97   98 2    
   194   97   99 am   BACKBONE|DICT|INTERRES
   195   99  100 1    
   196   99  220 1    
   197  100  101 1    
   198  100  102 1    
   199  100  221 1    
   200  101  222 1    
   201  101  223 1    
   202  101  224 1    
   203  102  103 2    
   204  102  104 am   BACKBONE|DICT|INTERRES
   205  104  105 1    
   206  104  225 1    
   207  105  106 1    
   208  105  107 1    
   209  105  226 1    
   210  106  227 1    
   211  106  228 1    
   212  106  229 1    
   213  107  108 2    
   214  107  109 am   BACKBONE|DICT|INTERRES
   215  109  110 1    
   216  109  230 1    
   217  110  111 1    
   218  110  112 1    
   219  110  231 1    
   220  111  232 1    
   221  111  233 1    
   222  111  234 1    
   223  112  113 2    
   224  112  114 am   BACKBONE|DICT|INTERRES
   225  114  115 1    
   226  114  235 1    
   227  115  116 1    
   228  115  117 1    
   229  115  236 1    
   230  116  237 1    
   231  116  238 1    
   232  116  239 1    
   233  117  118 2    
   234  117  119 am   BACKBONE|DICT|INTERRES
   235  119  120 1    
   236  119  240 1    
   237  120  121 1    
   238  120  124 1    
   239  120  241 1    
   240  121  122 am   BACKBONE|DICT|INTERRES
   241  121  123 2    
   242  122  242 1    
   243  122  243 1    
   244  124  125 1    
   245  124  244 1    
   246  124  245 1    
   247  125  126 1    
   248  126  246 1    
   249  126  247 1    
@<TRIPOS>SUBSTRUCTURE
     1 UNK         1 GROUP             0       ****    0 ROOT    
