@<TRIPOS>MOLECULE
3R540
247   249    1
SMALL
USER_CHARGES


@<TRIPOS>ATOM
      1 CA          5.3688  -14.6921  -45.0318 C.3       0 UNK        -0.1800 
      2 C           4.4322  -14.2692  -46.1528 C.2       0 UNK         0.5000 
      3 O           3.3476  -13.7575  -45.8807 O.2       0 UNK        -0.5000 
      4 N           4.8423  -14.4814  -47.4111 N.am      1 UNK        -0.5000 
      5 CA          4.0799  -14.1645  -48.6288 C.3       1 UNK         0.1400 
      6 C6          4.8025  -14.7272  -49.8819 C.3       23 UNK        -0.0398 
      7 S7          3.8870  -14.5432  -51.4541 S.3       23 UNK        -0.2404 
      8 C8          3.4208  -16.2613  -51.8589 C.3       23 UNK        -0.0205 
      9 C9          2.3552  -16.8470  -50.9376 C.ar      23 UNK        -0.0193 
     10 C10         1.2139  -16.1133  -50.6013 C.ar      23 UNK        -0.1150 
     11 C11         0.2345  -16.6577  -49.7674 C.ar      23 UNK        -0.0193 
     12 C12         0.3952  -17.9567  -49.2749 C.ar      23 UNK        -0.1150 
     13 C13         1.5160  -18.7171  -49.6277 C.ar      23 UNK        -0.0193 
     14 C14         2.4927  -18.1514  -50.4541 C.ar      23 UNK        -0.1150 
     15 C15         1.7048  -20.1338  -49.0955 C.3       23 UNK        -0.0205 
     16 S16         0.4966  -21.3072  -49.7815 S.3       23 UNK        -0.2404 
     17 C17        -0.7761  -21.3599  -48.4751 C.3       23 UNK        -0.0398 
     18 CA         -0.6934  -22.6709  -47.6441 C.3       11 UNK         0.1400 
     19 N          -0.0898  -22.4670  -46.3196 N.am      11 UNK        -0.5000 
     20 C           0.1969  -23.4334  -45.4320 C.2       10 UNK         0.5000 
     21 O          -0.0655  -24.6247  -45.6060 O.2       10 UNK        -0.5000 
     22 CA          0.8514  -22.9896  -44.1153 C.3       10 UNK         0.1400 
     23 CB          2.3330  -22.6428  -44.3294 C.3       10 UNK        -0.1800 
     24 N           0.1501  -21.8376  -43.5525 N.am      10 UNK        -0.5000 
     25 C          -0.9073  -21.9232  -42.7331 C.2       9 UNK         0.5000 
     26 O          -1.3452  -22.9863  -42.2923 O.2       9 UNK        -0.5000 
     27 CA         -1.6114  -20.6041  -42.3503 C.3       9 UNK         0.1400 
     28 CB         -1.0117  -20.0293  -41.0583 C.3       9 UNK        -0.1800 
     29 N          -1.5571  -19.5776  -43.3920 N.am      9 UNK        -0.5000 
     30 C          -2.0717  -19.6998  -44.6235 C.2       8 UNK         0.5000 
     31 O          -2.6770  -20.6948  -45.0183 O.2       8 UNK        -0.5000 
     32 CA         -1.7960  -18.5417  -45.5994 C.3       8 UNK         0.1400 
     33 CB         -2.8641  -17.4501  -45.4404 C.3       8 UNK        -0.1800 
     34 N          -0.4609  -17.9482  -45.4524 N.am      8 UNK        -0.5000 
     35 C           0.7030  -18.6155  -45.4770 C.2       7 UNK         0.5000 
     36 O           0.7816  -19.8332  -45.6372 O.2       7 UNK        -0.5000 
     37 CA          1.9926  -17.8121  -45.2454 C.3       7 UNK         0.1400 
     38 CB          2.5834  -17.3172  -46.5690 C.3       7 UNK        -0.1800 
     39 N           1.7909  -16.6793  -44.3443 N.am      7 UNK        -0.5000 
     40 C           1.8064  -16.7776  -43.0080 C.2       6 UNK         0.5000 
     41 O           2.0111  -17.8288  -42.4005 O.2       6 UNK        -0.5000 
     42 CA          1.5306  -15.4863  -42.2164 C.3       6 UNK         0.1400 
     43 CB          2.8079  -14.6423  -42.0918 C.3       6 UNK        -0.1800 
     44 N           0.4745  -14.6740  -42.8181 N.am      6 UNK        -0.5000 
     45 C          -0.8177  -15.0254  -42.8709 C.2       5 UNK         0.5000 
     46 O          -1.2676  -16.0611  -42.3795 O.2       5 UNK        -0.5000 
     47 CA         -1.7612  -14.0686  -43.6252 C.3       5 UNK         0.1400 
     48 CB         -2.3568  -13.0320  -42.6614 C.3       5 UNK        -0.1800 
     49 N          -1.1276  -13.3684  -44.7457 N.am      5 UNK        -0.5000 
     50 C          -0.5718  -13.9492  -45.8161 C.2       4 UNK         0.5000 
     51 O          -0.4678  -15.1666  -45.9533 O.2       4 UNK        -0.5000 
     52 CA          0.0063  -13.0211  -46.8937 C.3       4 UNK         0.1400 
     53 CB         -1.0954  -12.2700  -47.6643 C.3       4 UNK        -0.1800 
     54 N           1.0318  -12.1195  -46.3688 N.am      4 UNK        -0.5000 
     55 C           0.9224  -11.0796  -45.5310 C.2       3 UNK         0.5000 
     56 O          -0.1438  -10.6773  -45.0639 O.2       3 UNK        -0.5000 
     57 CA          2.2397  -10.3920  -45.1244 C.3       3 UNK         0.1400 
     58 CB          2.7155  -10.9177  -43.7610 C.3       3 UNK        -0.1800 
     59 N           3.3003  -10.6060  -46.1128 N.am      3 UNK        -0.5000 
     60 C           3.4545   -9.8779  -47.2278 C.2       2 UNK         0.5000 
     61 O           2.7772   -8.8846  -47.4949 O.2       2 UNK        -0.5000 
     62 CA          4.5380  -10.3455  -48.2204 C.3       2 UNK         0.1400 
     63 CB          5.8935   -9.7090  -47.8779 C.3       2 UNK        -0.1800 
     64 N           4.6900  -11.8022  -48.2680 N.am      2 UNK        -0.5000 
     65 C           3.7689  -12.6519  -48.7488 C.2       1 UNK         0.5000 
     66 O           2.6924  -12.2876  -49.2220 O.2       1 UNK        -0.5000 
     67 C          -2.0555  -23.3893  -47.5909 C.2       11 UNK         0.5000 
     68 O          -2.3607  -24.1455  -48.5141 O.2       11 UNK        -0.5000 
     69 N          -2.8240  -23.1874  -46.5099 N.am      12 UNK        -0.5000 
     70 CA         -4.0725  -23.8878  -46.1930 C.3       12 UNK         0.1400 
     71 CB         -4.5681  -23.4366  -44.8111 C.3       12 UNK        -0.1800 
     72 C          -3.9591  -25.4234  -46.2455 C.2       12 UNK         0.5000 
     73 O          -4.8803  -26.0793  -46.7323 O.2       12 UNK        -0.5000 
     74 N          -2.8225  -25.9553  -45.7796 N.am      13 UNK        -0.5000 
     75 CA         -2.4997  -27.3780  -45.8243 C.3       13 UNK         0.1400 
     76 CB         -1.8037  -27.7737  -44.5123 C.3       13 UNK        -0.1800 
     77 C          -1.6043  -27.7121  -47.0282 C.2       13 UNK         0.5000 
     78 O          -1.8393  -28.7188  -47.6970 O.2       13 UNK        -0.5000 
     79 N          -0.5815  -26.8806  -47.2695 N.am      14 UNK        -0.5000 
     80 CA          0.4972  -27.1576  -48.2181 C.3       14 UNK         0.1400 
     81 CB          1.6930  -26.2478  -47.8943 C.3       14 UNK        -0.1800 
     82 C           0.1083  -27.0164  -49.7004 C.2       14 UNK         0.5000 
     83 O           0.7255  -27.6773  -50.5372 O.2       14 UNK        -0.5000 
     84 N          -0.8677  -26.1537  -50.0122 N.am      15 UNK        -0.5000 
     85 CA         -1.2129  -25.7788  -51.3860 C.3       15 UNK         0.1400 
     86 CB         -0.4114  -24.5227  -51.7762 C.3       15 UNK        -0.1800 
     87 C          -2.7252  -25.5807  -51.5843 C.2       15 UNK         0.5000 
     88 O          -3.1206  -24.8905  -52.5249 O.2       15 UNK        -0.5000 
     89 N          -3.5485  -26.1562  -50.6940 N.am      16 UNK        -0.5000 
     90 CA         -5.0156  -26.0593  -50.6733 C.3       16 UNK         0.1400 
     91 CB         -5.6255  -26.8585  -51.8437 C.3       16 UNK        -0.1800 
     92 C          -5.5063  -24.5958  -50.6285 C.2       16 UNK         0.5000 
     93 O          -6.3343  -24.1822  -51.4437 O.2       16 UNK        -0.5000 
     94 N          -4.9194  -23.8249  -49.7029 N.am      17 UNK        -0.5000 
     95 CA         -5.1048  -22.3849  -49.5054 C.3       17 UNK         0.1400 
     96 CB         -6.5605  -22.0654  -49.1008 C.3       17 UNK        -0.1800 
     97 C          -4.5997  -21.5722  -50.7105 C.2       17 UNK         0.5000 
     98 O          -5.2480  -20.6090  -51.1126 O.2       17 UNK        -0.5000 
     99 N          -3.4685  -22.0004  -51.2918 N.am      18 UNK        -0.5000 
    100 CA        -2.8648  -21.4807  -52.5277 C.3       18 UNK         0.1400 
    101 CB        -2.2973  -20.0631  -52.3059 C.3       18 UNK        -0.1800 
    102 C         -3.8393  -21.5554  -53.7243 C.2       18 UNK         0.5000 
    103 O         -3.9694  -20.5917  -54.4799 O.2       18 UNK        -0.5000 
    104 N         -4.5363  -22.6962  -53.8345 N.am      19 UNK        -0.5000 
    105 CA        -5.6654  -22.9637  -54.7301 C.3       19 UNK         0.1400 
    106 CB        -5.2026  -23.0122  -56.2013 C.3       19 UNK        -0.1800 
    107 C         -6.8428  -21.9923  -54.4864 C.2       19 UNK         0.5000 
    108 O         -7.3543  -21.3850  -55.4292 O.2       19 UNK        -0.5000 
    109 N         -7.2397  -21.8738  -53.2103 N.am      20 UNK        -0.5000 
    110 CA        -8.3156  -21.0259  -52.6826 C.3       20 UNK         0.1400 
    111 CB        -9.6902  -21.5490  -53.1491 C.3       20 UNK        -0.1800 
    112 C         -8.1128  -19.5177  -52.9567 C.2       20 UNK         0.5000 
    113 O         -9.0322  -18.8435  -53.4264 O.2       20 UNK        -0.5000 
    114 N         -6.9118  -19.0174  -52.6454 N.am      21 UNK        -0.5000 
    115 CA        -6.5170  -17.6113  -52.7684 C.3       21 UNK         0.1400 
    116 CB        -5.4989  -17.4747  -53.9109 C.3       21 UNK        -0.1800 
    117 C         -5.9311  -17.0430  -51.4606 C.2       21 UNK         0.5000 
    118 O         -6.0411  -15.8377  -51.2325 O.2       21 UNK        -0.5000 
    119 N         -5.3321  -17.9010  -50.6277 N.am      22 UNK        -0.5000 
    120 CA        -4.6908  -17.5743  -49.3495 C.3       22 UNK         0.1400 
    121 C         -5.2478  -18.5205  -48.2574 C.2       22 UNK         0.5000 
    122 N         -6.4668  -18.2882  -47.7906 N.am      22 UNK        -0.7600 
    123 O         -4.5905  -19.4684  -47.8360 O.2       22 UNK        -0.5000 
    124 C124       -3.1434  -17.6451  -49.4437 C.3       23 UNK        -0.0398 
    125 S125       -2.4316  -16.2784  -50.4177 S.3       23 UNK        -0.2404 
    126 C126       -0.9879  -15.8295  -49.4035 C.3       23 UNK        -0.0205 
    127 H127        4.9241  -15.5095  -44.4641 H         1 UNK         0.0600 
    128 H128        5.5415  -13.8574  -44.3525 H         1 UNK         0.0600 
    129 H129        6.3335  -15.0266  -45.4136 H         1 UNK         0.0600 
    130 H130        5.7457  -14.9079  -47.5610 H         1 UNK         0.3000 
    131 H131        3.1199  -14.6785  -48.5417 H         1 UNK         0.0600 
    132 H132        5.7729  -14.2432  -50.0042 H         1 UNK         0.0800 
    133 H133        5.0179  -15.7860  -49.7310 H         1 UNK         0.0800 
    134 H134        3.0359  -16.2827  -52.8791 H         1 UNK         0.0800 
    135 H135        4.3195  -16.8800  -51.8587 H         1 UNK         0.0800 
    136 H136        1.0888  -15.1118  -50.9884 H         1 UNK         0.1150 
    137 H137       -0.3560  -18.3751  -48.6236 H         1 UNK         0.1150 
    138 H138        3.3646  -18.7305  -50.7240 H         1 UNK         0.1150 
    139 H139        2.7017  -20.4983  -49.3470 H         1 UNK         0.0800 
    140 H140        1.6596  -20.1393  -48.0088 H         1 UNK         0.0800 
    141 H141       -1.7382  -21.2443  -48.9782 H         1 UNK         0.0800 
    142 H142       -0.6899  -20.4865  -47.8325 H         1 UNK         0.0800 
    143 H143       -0.0358  -23.3716  -48.1612 H         1 UNK         0.0600 
    144 H144        0.1748  -21.5130  -46.0857 H         1 UNK         0.3000 
    145 H145        0.8038  -23.8272  -43.4160 H         1 UNK         0.0600 
    146 H146        2.8098  -22.3627  -43.3900 H         1 UNK         0.0600 
    147 H147        2.8782  -23.4992  -44.7282 H         1 UNK         0.0600 
    148 H148        2.4649  -21.8172  -45.0292 H         1 UNK         0.0600 
    149 H149        0.4095  -20.9306  -43.9212 H         1 UNK         0.3000 
    150 H150       -2.6631  -20.8349  -42.1690 H         1 UNK         0.0600 
    151 H151       -1.0585  -20.7569  -40.2470 H         1 UNK         0.0600 
    152 H152       -1.5552  -19.1425  -40.7313 H         1 UNK         0.0600 
    153 H153        0.0346  -19.7504  -41.1912 H         1 UNK         0.0600 
    154 H154       -1.0737  -18.7206  -43.1608 H         1 UNK         0.3000 
    155 H155       -1.8705  -18.9414  -46.6105 H         1 UNK         0.0600 
    156 H156       -2.8360  -17.0074  -44.4454 H         1 UNK         0.0600 
    157 H157       -2.7332  -16.6512  -46.1697 H         1 UNK         0.0600 
    158 H158       -3.8643  -17.8602  -45.5836 H         1 UNK         0.0600 
    159 H159       -0.4285  -16.9332  -45.3945 H         1 UNK         0.3000 
    160 H160        2.7204  -18.4947  -44.8011 H         1 UNK         0.0600 
    161 H161        1.9478  -16.5739  -47.0525 H         1 UNK         0.0600 
    162 H162        2.7282  -18.1429  -47.2618 H         1 UNK         0.0600 
    163 H163        3.5667  -16.8820  -46.4113 H         1 UNK         0.0600 
    164 H164        1.5762  -15.7885  -44.7709 H         1 UNK         0.3000 
    165 H165        1.2106  -15.7722  -41.2121 H         1 UNK         0.0600 
    166 H166        2.6421  -13.7643  -41.4674 H         1 UNK         0.0600 
    167 H167        3.6145  -15.2180  -41.6361 H         1 UNK         0.0600 
    168 H168        3.1587  -14.2996  -43.0651 H         1 UNK         0.0600 
    169 H169        0.7536  -13.8094  -43.2567 H         1 UNK         0.3000 
    170 H170       -2.5795  -14.6646  -44.0320 H         1 UNK         0.0600 
    171 H171       -1.5878  -12.3757  -42.2518 H         1 UNK         0.0600 
    172 H172       -3.0977  -12.4083  -43.1621 H         1 UNK         0.0600 
    173 H173       -2.8562  -13.5186  -41.8225 H         1 UNK         0.0600 
    174 H174       -1.1062  -12.3538  -44.7053 H         1 UNK         0.3000 
    175 H175        0.5246  -13.6606  -47.6103 H         1 UNK         0.0600 
    176 H176       -0.6697  -11.6796  -48.4758 H         1 UNK         0.0600 
    177 H177       -1.6649  -11.5971  -47.0233 H         1 UNK         0.0600 
    178 H178       -1.8045  -12.9697  -48.1080 H         1 UNK         0.0600 
    179 H179        1.9773  -12.4143  -46.5830 H         1 UNK         0.3000 
    180 H180        2.0423   -9.3223  -45.0276 H         1 UNK         0.0600 
    181 H181        2.9400  -11.9837  -43.7963 H         1 UNK         0.0600 
    182 H182        1.9534  -10.7674  -42.9951 H         1 UNK         0.0600 
    183 H183        3.6145  -10.3974  -43.4306 H         1 UNK         0.0600 
    184 H184        3.8794  -11.4233  -45.9823 H         1 UNK         0.3000 
    185 H185        4.2433  -10.0044  -49.2152 H         1 UNK         0.0600 
    186 H186        5.8195   -8.6208  -47.8575 H         1 UNK         0.0600 
    187 H187        6.2556  -10.0317  -46.9009 H         1 UNK         0.0600 
    188 H188        6.6497   -9.9677  -48.6194 H         1 UNK         0.0600 
    189 H189        5.5426  -12.1833  -47.8846 H         1 UNK         0.3000 
    190 H190       -2.5379  -22.4753  -45.8435 H         1 UNK         0.3000 
    191 H191       -4.8232  -23.5921  -46.9242 H         1 UNK         0.0600 
    192 H192       -4.8029  -22.3722  -44.8068 H         1 UNK         0.0600 
    193 H193       -5.4771  -23.9677  -44.5254 H         1 UNK         0.0600 
    194 H194       -3.8214  -23.6181  -44.0367 H         1 UNK         0.0600 
    195 H195       -2.0930  -25.3349  -45.4497 H         1 UNK         0.3000 
    196 H196       -3.4125  -27.9716  -45.9094 H         1 UNK         0.0600 
    197 H197       -1.5424  -28.8327  -44.5122 H         1 UNK         0.0600 
    198 H198       -2.4546  -27.5995  -43.6554 H         1 UNK         0.0600 
    199 H199       -0.8848  -27.2075  -44.3538 H         1 UNK         0.0600 
    200 H200       -0.4477  -26.0745  -46.6635 H         1 UNK         0.3000 
    201 H201        0.8173  -28.1908  -48.0665 H         1 UNK         0.0600 
    202 H202        2.0259  -26.3841  -46.8651 H         1 UNK         0.0600 
    203 H203        1.4475  -25.1948  -48.0295 H         1 UNK         0.0600 
    204 H204        2.5416  -26.4714  -48.5421 H         1 UNK         0.0600 
    205 H205       -1.3321  -25.6295  -49.2765 H         1 UNK         0.3000 
    206 H206       -0.9384  -26.5833  -52.0709 H         1 UNK         0.0600 
    207 H207        0.6600  -24.6809  -51.6528 H         1 UNK         0.0600 
    208 H208       -0.5770  -24.2530  -52.8197 H         1 UNK         0.0600 
    209 H209       -0.6952  -23.6680  -51.1627 H         1 UNK         0.0600 
    210 H210       -3.1313  -26.7023  -49.9537 H         1 UNK         0.3000 
    211 H211       -5.3475  -26.5242  -49.7436 H         1 UNK         0.0600 
    212 H212       -5.3610  -26.4297  -52.8108 H         1 UNK         0.0600 
    213 H213       -6.7141  -26.8732  -51.7801 H         1 UNK         0.0600 
    214 H214       -5.2860  -27.8941  -51.8323 H         1 UNK         0.0600 
    215 H215       -4.1686  -24.2391  -49.1583 H         1 UNK         0.3000 
    216 H216       -4.4671  -22.0875  -48.6741 H         1 UNK         0.0600 
    217 H217       -6.6946  -21.0022  -48.9068 H         1 UNK         0.0600 
    218 H218       -6.8371  -22.5949  -48.1895 H         1 UNK         0.0600 
    219 H219       -7.2747  -22.3429  -49.8741 H         1 UNK         0.0600 
    220 H220       -3.0418  -22.8364  -50.9199 H         1 UNK         0.3000 
    221 H221       -2.0290  -22.1380  -52.7687 H         1 UNK         0.0600 
    222 H222       -3.0872  -19.3310  -52.1391 H         1 UNK         0.0600 
    223 H223       -1.6240  -20.0327  -51.4506 H         1 UNK         0.0600 
    224 H224       -1.7279  -19.7317  -53.1747 H         1 UNK         0.0600 
    225 H225       -4.3008  -23.4488  -53.1936 H         1 UNK         0.3000 
    226 H226       -6.0304  -23.9582  -54.4686 H         1 UNK         0.0600 
    227 H227       -4.3877  -23.7238  -56.3337 H         1 UNK         0.0600 
    228 H228       -6.0172  -23.3263  -56.8546 H         1 UNK         0.0600 
    229 H229       -4.8591  -22.0392  -56.5535 H         1 UNK         0.0600 
    230 H230       -6.7606  -22.4447  -52.5214 H         1 UNK         0.3000 
    231 H231       -8.2822  -21.1340  -51.5987 H         1 UNK         0.0600 
    232 H232       -9.8194  -21.4465  -54.2269 H         1 UNK         0.0600 
    233 H233      -10.5010  -21.0002  -52.6687 H         1 UNK         0.0600 
    234 H234       -9.8174  -22.6013  -52.8946 H         1 UNK         0.0600 
    235 H235       -6.2251  -19.6515  -52.2417 H         1 UNK         0.3000 
    236 H236       -7.3861  -16.9977  -53.0138 H         1 UNK         0.0600 
    237 H237       -5.9095  -17.8427  -54.8514 H         1 UNK         0.0600 
    238 H238       -5.2168  -16.4320  -54.0616 H         1 UNK         0.0600 
    239 H239       -4.5868  -18.0347  -53.7030 H         1 UNK         0.0600 
    240 H240       -5.3215  -18.8927  -50.8577 H         1 UNK         0.3000 
    241 H241       -4.9591  -16.5623  -49.0402 H         1 UNK         0.0600 
    242 H242       -7.0263  -17.5264  -48.1411 H         1 UNK         0.3800 
    243 H243       -6.8424  -18.8958  -47.0805 H         1 UNK         0.3800 
    244 H244       -2.7147  -17.6126  -48.4431 H         1 UNK         0.0800 
    245 H245       -2.8234  -18.5950  -49.8715 H         1 UNK         0.0800 
    246 H246       -1.2125  -15.9337  -48.3424 H         1 UNK         0.0800 
    247 H247       -0.7774  -14.7710  -49.5612 H         1 UNK         0.0800 
@<TRIPOS>BOND
     1    1    2 1    
     2    1  127 1    
     3    1  128 1    
     4    1  129 1    
     5    2    3 2    
     6    2    4 am   BACKBONE|DICT|INTERRES
     7    4    5 1    
     8    4  130 1    
     9    5    6 1    
    10    5   65 1    
    11    5  131 1    
    12    6    7 1    
    13    6  132 1    
    14    6  133 1    
    15    7    8 1    
    16    8    9 1    
    17    8  134 1    
    18    8  135 1    
    19    9   10 ar   
    20    9   14 ar   
    21   10   11 ar   
    22   10  136 1    
    23   11   12 ar   
    24   11  126 1    
    25   12   13 ar   
    26   12  137 1    
    27   13   14 ar   
    28   13   15 1    
    29   14  138 1    
    30   15   16 1    
    31   15  139 1    
    32   15  140 1    
    33   16   17 1    
    34   17   18 1    
    35   17  141 1    
    36   17  142 1    
    37   18   19 1    
    38   18   67 1    
    39   18  143 1    
    40   19   20 am   BACKBONE|DICT|INTERRES
    41   19  144 1    
    42   20   21 2    
    43   20   22 1    
    44   22   23 1    
    45   22   24 1    
    46   22  145 1    
    47   23  146 1    
    48   23  147 1    
    49   23  148 1    
    50   24   25 am   BACKBONE|DICT|INTERRES
    51   24  149 1    
    52   25   26 2    
    53   25   27 1    
    54   27   28 1    
    55   27   29 1    
    56   27  150 1    
    57   28  151 1    
    58   28  152 1    
    59   28  153 1    
    60   29   30 am   BACKBONE|DICT|INTERRES
    61   29  154 1    
    62   30   31 2    
    63   30   32 1    
    64   32   33 1    
    65   32   34 1    
    66   32  155 1    
    67   33  156 1    
    68   33  157 1    
    69   33  158 1    
    70   34   35 am   BACKBONE|DICT|INTERRES
    71   34  159 1    
    72   35   36 2    
    73   35   37 1    
    74   37   38 1    
    75   37   39 1    
    76   37  160 1    
    77   38  161 1    
    78   38  162 1    
    79   38  163 1    
    80   39   40 am   BACKBONE|DICT|INTERRES
    81   39  164 1    
    82   40   41 2    
    83   40   42 1    
    84   42   43 1    
    85   42   44 1    
    86   42  165 1    
    87   43  166 1    
    88   43  167 1    
    89   43  168 1    
    90   44   45 am   BACKBONE|DICT|INTERRES
    91   44  169 1    
    92   45   46 2    
    93   45   47 1    
    94   47   48 1    
    95   47   49 1    
    96   47  170 1    
    97   48  171 1    
    98   48  172 1    
    99   48  173 1    
   100   49   50 am   BACKBONE|DICT|INTERRES
   101   49  174 1    
   102   50   51 2    
   103   50   52 1    
   104   52   53 1    
   105   52   54 1    
   106   52  175 1    
   107   53  176 1    
   108   53  177 1    
   109   53  178 1    
   110   54   55 am   BACKBONE|DICT|INTERRES
   111   54  179 1    
   112   55   56 2    
   113   55   57 1    
   114   57   58 1    
   115   57   59 1    
   116   57  180 1    
   117   58  181 1    
   118   58  182 1    
   119   58  183 1    
   120   59   60 am   BACKBONE|DICT|INTERRES
   121   59  184 1    
   122   60   61 2    
   123   60   62 1    
   124   62   63 1    
   125   62   64 1    
   126   62  185 1    
   127   63  186 1    
   128   63  187 1    
   129   63  188 1    
   130   64   65 am   BACKBONE|DICT|INTERRES
   131   64  189 1    
   132   65   66 2    
   133   67   68 2    
   134   67   69 am   BACKBONE|DICT|INTERRES
   135   69   70 1    
   136   69  190 1    
   137   70   71 1    
   138   70   72 1    
   139   70  191 1    
   140   71  192 1    
   141   71  193 1    
   142   71  194 1    
   143   72   73 2    
   144   72   74 am   BACKBONE|DICT|INTERRES
   145   74   75 1    
   146   74  195 1    
   147   75   76 1    
   148   75   77 1    
   149   75  196 1    
   150   76  197 1    
   151   76  198 1    
   152   76  199 1    
   153   77   78 2    
   154   77   79 am   BACKBONE|DICT|INTERRES
   155   79   80 1    
   156   79  200 1    
   157   80   81 1    
   158   80   82 1    
   159   80  201 1    
   160   81  202 1    
   161   81  203 1    
   162   81  204 1    
   163   82   83 2    
   164   82   84 am   BACKBONE|DICT|INTERRES
   165   84   85 1    
   166   84  205 1    
   167   85   86 1    
   168   85   87 1    
   169   85  206 1    
   170   86  207 1    
   171   86  208 1    
   172   86  209 1    
   173   87   88 2    
   174   87   89 am   BACKBONE|DICT|INTERRES
   175   89   90 1    
   176   89  210 1    
   177   90   91 1    
   178   90   92 1    
   179   90  211 1    
   180   91  212 1    
   181   91  213 1    
   182   91  214 1    
   183   92   93 2    
   184   92   94 am   BACKBONE|DICT|INTERRES
   185   94   95 1    
   186   94  215 1    
   187   95   96 1    
   188   95   97 1    
   189   95  216 1    
   190   96  217 1    
   191   96  218 1    
   192   96  219 1    
   193   97   98 2    
   194   97   99 am   BACKBONE|DICT|INTERRES
   195   99  100 1    
   196   99  220 1    
   197  100  101 1    
   198  100  102 1    
   199  100  221 1    
   200  101  222 1    
   201  101  223 1    
   202  101  224 1    
   203  102  103 2    
   204  102  104 am   BACKBONE|DICT|INTERRES
   205  104  105 1    
   206  104  225 1    
   207  105  106 1    
   208  105  107 1    
   209  105  226 1    
   210  106  227 1    
   211  106  228 1    
   212  106  229 1    
   213  107  108 2    
   214  107  109 am   BACKBONE|DICT|INTERRES
   215  109  110 1    
   216  109  230 1    
   217  110  111 1    
   218  110  112 1    
   219  110  231 1    
   220  111  232 1    
   221  111  233 1    
   222  111  234 1    
   223  112  113 2    
   224  112  114 am   BACKBONE|DICT|INTERRES
   225  114  115 1    
   226  114  235 1    
   227  115  116 1    
   228  115  117 1    
   229  115  236 1    
   230  116  237 1    
   231  116  238 1    
   232  116  239 1    
   233  117  118 2    
   234  117  119 am   BACKBONE|DICT|INTERRES
   235  119  120 1    
   236  119  240 1    
   237  120  121 1    
   238  120  124 1    
   239  120  241 1    
   240  121  122 am   BACKBONE|DICT|INTERRES
   241  121  123 2    
   242  122  242 1    
   243  122  243 1    
   244  124  125 1    
   245  124  244 1    
   246  124  245 1    
   247  125  126 1    
   248  126  246 1    
   249  126  247 1    
@<TRIPOS>SUBSTRUCTURE
     1 UNK         1 GROUP             0       ****    0 ROOT    
