@<TRIPOS>MOLECULE
3R540
247   249    1
SMALL
USER_CHARGES


@<TRIPOS>ATOM
      1 CA         -1.8032  -11.4856  -44.4559 C.3       0 UNK        -0.1800 
      2 C          -0.7719  -10.8621  -45.3860 C.2       0 UNK         0.5000 
      3 O          -0.0353   -9.9674  -44.9725 O.2       0 UNK        -0.5000 
      4 N          -0.7189  -11.3297  -46.6395 N.am      1 UNK        -0.5000 
      5 CA          0.2406  -10.8925  -47.6635 C.3       1 UNK         0.1400 
      6 C6         -0.2960  -11.1464  -49.0955 C.3       23 UNK        -0.0398 
      7 S7         -0.7489  -12.8871  -49.4259 S.3       23 UNK        -0.2404 
      8 C8          0.5788  -13.3855  -50.5651 C.3       23 UNK        -0.0205 
      9 C9          0.4713  -14.8632  -50.9014 C.ar      23 UNK        -0.0193 
     10 C10        -0.4148  -15.2964  -51.8923 C.ar      23 UNK        -0.1150 
     11 C11        -0.5481  -16.6583  -52.1777 C.ar      23 UNK        -0.0193 
     12 C12         0.2191  -17.5877  -51.4709 C.ar      23 UNK        -0.1150 
     13 C13         1.1129  -17.1663  -50.4819 C.ar      23 UNK        -0.0193 
     14 C14         1.2403  -15.8012  -50.2067 C.ar      23 UNK        -0.1150 
     15 C15         1.9199  -18.1923  -49.6977 C.3       23 UNK        -0.0205 
     16 S16         1.5724  -18.1459  -47.9087 S.3       23 UNK        -0.2404 
     17 C17        -0.2272  -18.4453  -47.8456 C.3       23 UNK        -0.0398 
     18 CA         -0.5917  -19.9110  -47.5149 C.3       11 UNK         0.1400 
     19 N          -0.1723  -20.3226  -46.1709 N.am      11 UNK        -0.5000 
     20 C          -0.2571  -21.5720  -45.6919 C.2       10 UNK         0.5000 
     21 O          -0.6310  -22.5333  -46.3630 O.2       10 UNK        -0.5000 
     22 CA          0.0686  -21.7784  -44.2002 C.3       10 UNK         0.1400 
     23 CB          1.5802  -21.9252  -43.9712 C.3       10 UNK        -0.1800 
     24 N          -0.4688  -20.7076  -43.3580 N.am      10 UNK        -0.5000 
     25 C          -1.7785  -20.4857  -43.1729 C.2       9 UNK         0.5000 
     26 O          -2.6616  -21.2018  -43.6446 O.2       9 UNK        -0.5000 
     27 CA         -2.1735  -19.2315  -42.3700 C.3       9 UNK         0.1400 
     28 CB         -2.1062  -19.5020  -40.8599 C.3       9 UNK        -0.1800 
     29 N          -1.3504  -18.0678  -42.7004 N.am      9 UNK        -0.5000 
     30 C          -1.3173  -17.4795  -43.9045 C.2       8 UNK         0.5000 
     31 O          -2.0384  -17.8110  -44.8448 O.2       8 UNK        -0.5000 
     32 CA         -0.2598  -16.3800  -44.1150 C.3       8 UNK         0.1400 
     33 CB         -0.7705  -15.0195  -43.6183 C.3       8 UNK        -0.1800 
     34 N           1.0197  -16.6965  -43.4764 N.am      8 UNK        -0.5000 
     35 C           1.7834  -17.7519  -43.7942 C.2       7 UNK         0.5000 
     36 O           1.4908  -18.5612  -44.6694 O.2       7 UNK        -0.5000 
     37 CA          3.0461  -17.9867  -42.9496 C.3       7 UNK         0.1400 
     38 CB          4.2101  -17.0965  -43.4114 C.3       7 UNK        -0.1800 
     39 N           2.7816  -17.7735  -41.5286 N.am      7 UNK        -0.5000 
     40 C           2.0251  -18.5868  -40.7776 C.2       6 UNK         0.5000 
     41 O           1.5324  -19.6372  -41.1901 O.2       6 UNK        -0.5000 
     42 CA          1.7368  -18.1217  -39.3383 C.3       6 UNK         0.1400 
     43 CB          2.8720  -18.5452  -38.3945 C.3       6 UNK        -0.1800 
     44 N           1.5465  -16.6724  -39.2486 N.am      6 UNK        -0.5000 
     45 C           0.5116  -16.0104  -39.7861 C.2       5 UNK         0.5000 
     46 O          -0.4205  -16.5616  -40.3701 O.2       5 UNK        -0.5000 
     47 CA          0.5551  -14.4726  -39.7018 C.3       5 UNK         0.1400 
     48 CB         -0.0580  -13.9861  -38.3805 C.3       5 UNK        -0.1800 
     49 N           1.9103  -13.9295  -39.8407 N.am      5 UNK        -0.5000 
     50 C           2.6597  -14.0413  -40.9447 C.2       4 UNK         0.5000 
     51 O           2.2819  -14.6079  -41.9734 O.2       4 UNK        -0.5000 
     52 CA          4.0848  -13.4821  -40.8651 C.3       4 UNK         0.1400 
     53 CB          5.0028  -14.4440  -40.0883 C.3       4 UNK        -0.1800 
     54 N           4.6005  -13.2997  -42.2173 N.am      4 UNK        -0.5000 
     55 C           5.5569  -12.4358  -42.5740 C.2       3 UNK         0.5000 
     56 O           6.1308  -11.6937  -41.7753 O.2       3 UNK        -0.5000 
     57 CA          5.9621  -12.3881  -44.0633 C.3       3 UNK         0.1400 
     58 CB          7.3244  -13.0712  -44.2645 C.3       3 UNK        -0.1800 
     59 N           4.9993  -12.9905  -44.9917 N.am      3 UNK        -0.5000 
     60 C           3.7799  -12.5078  -45.2618 C.2       2 UNK         0.5000 
     61 O           3.2984  -11.5236  -44.6961 O.2       2 UNK        -0.5000 
     62 CA          2.9755  -13.2763  -46.3315 C.3       2 UNK         0.1400 
     63 CB          2.6194  -14.6876  -45.8422 C.3       2 UNK        -0.1800 
     64 N           1.7366  -12.5904  -46.6905 N.am      2 UNK        -0.5000 
     65 C           1.6483  -11.5018  -47.4664 C.2       1 UNK         0.5000 
     66 O           2.6156  -10.9853  -48.0288 O.2       1 UNK        -0.5000 
     67 C          -2.0996  -20.1449  -47.7380 C.2       11 UNK         0.5000 
     68 O          -2.4741  -20.6887  -48.7753 O.2       11 UNK        -0.5000 
     69 N          -2.9335  -19.7674  -46.7577 N.am      12 UNK        -0.5000 
     70 CA         -4.3827  -19.9817  -46.7734 C.3       12 UNK         0.1400 
     71 CB         -5.0260  -19.2516  -45.5854 C.3       12 UNK        -0.1800 
     72 C          -4.7696  -21.4726  -46.7767 C.2       12 UNK         0.5000 
     73 O          -5.7099  -21.8546  -47.4749 O.2       12 UNK        -0.5000 
     74 N          -4.0169  -22.2944  -46.0321 N.am      13 UNK        -0.5000 
     75 CA         -4.1375  -23.7505  -46.0451 C.3       13 UNK         0.1400 
     76 CB         -3.3033  -24.3607  -44.9088 C.3       13 UNK        -0.1800 
     77 C          -3.7489  -24.3440  -47.4105 C.2       13 UNK         0.5000 
     78 O          -4.5211  -25.1236  -47.9650 O.2       13 UNK        -0.5000 
     79 N          -2.5933  -23.9295  -47.9519 N.am      14 UNK        -0.5000 
     80 CA         -2.0858  -24.3409  -49.2647 C.3       14 UNK         0.1400 
     81 CB         -0.6819  -23.7587  -49.4841 C.3       14 UNK        -0.1800 
     82 C          -3.0171  -23.9586  -50.4298 C.2       14 UNK         0.5000 
     83 O          -3.1861  -24.7572  -51.3546 O.2       14 UNK        -0.5000 
     84 N          -3.6286  -22.7680  -50.3429 N.am      15 UNK        -0.5000 
     85 CA         -4.6384  -22.2535  -51.2679 C.3       15 UNK         0.1400 
     86 CB         -5.0776  -20.8459  -50.8380 C.3       15 UNK        -0.1800 
     87 C          -5.8497  -23.1859  -51.4023 C.2       15 UNK         0.5000 
     88 O          -6.2416  -23.5113  -52.5231 O.2       15 UNK        -0.5000 
     89 N          -6.3878  -23.6231  -50.2580 N.am      16 UNK        -0.5000 
     90 CA         -7.4965  -24.5697  -50.1855 C.3       16 UNK         0.1400 
     91 CB         -8.0966  -24.5307  -48.7715 C.3       16 UNK        -0.1800 
     92 C          -7.0768  -26.0030  -50.5595 C.2       16 UNK         0.5000 
     93 O          -7.8333  -26.6968  -51.2402 O.2       16 UNK        -0.5000 
     94 N          -5.8974  -26.4273  -50.0870 N.am      17 UNK        -0.5000 
     95 CA         -5.4099  -27.7988  -50.2028 C.3       17 UNK         0.1400 
     96 CB         -4.2643  -28.0290  -49.2052 C.3       17 UNK        -0.1800 
     97 C          -4.9648  -28.1995  -51.6175 C.2       17 UNK         0.5000 
     98 O          -5.2535  -29.3275  -52.0224 O.2       17 UNK        -0.5000 
     99 N          -4.2423  -27.3183  -52.3264 N.am      18 UNK        -0.5000 
    100 CA        -3.5649  -27.6970  -53.5696 C.3       18 UNK         0.1400 
    101 CB        -2.2007  -28.3319  -53.2407 C.3       18 UNK        -0.1800 
    102 C         -3.3899  -26.5627  -54.5877 C.2       18 UNK         0.5000 
    103 O         -3.5043  -26.8337  -55.7843 O.2       18 UNK        -0.5000 
    104 N         -3.0691  -25.3394  -54.1391 N.am      19 UNK        -0.5000 
    105 CA        -2.6720  -24.2527  -55.0443 C.3       19 UNK         0.1400 
    106 CB        -1.9387  -23.1483  -54.2705 C.3       19 UNK        -0.1800 
    107 C         -3.8384  -23.6944  -55.8823 C.2       19 UNK         0.5000 
    108 O         -3.6217  -23.3477  -57.0428 O.2       19 UNK        -0.5000 
    109 N         -5.0444  -23.6654  -55.2931 N.am      20 UNK        -0.5000 
    110 CA        -6.3461  -23.3937  -55.9169 C.3       20 UNK         0.1400 
    111 CB        -6.8128  -24.6631  -56.6590 C.3       20 UNK        -0.1800 
    112 C         -6.3935  -22.1318  -56.8179 C.2       20 UNK         0.5000 
    113 O         -6.6462  -22.2550  -58.0165 O.2       20 UNK        -0.5000 
    114 N         -6.1624  -20.9177  -56.2989 N.am      21 UNK        -0.5000 
    115 CA        -5.8499  -20.5583  -54.9129 C.3       21 UNK         0.1400 
    116 CB        -6.8385  -19.4682  -54.4673 C.3       21 UNK        -0.1800 
    117 C         -4.3987  -20.0636  -54.7571 C.2       21 UNK         0.5000 
    118 O         -3.9991  -19.7306  -53.6434 O.2       21 UNK        -0.5000 
    119 N         -3.6329  -20.0063  -55.8522 N.am      22 UNK        -0.5000 
    120 CA        -2.2491  -19.5223  -55.8815 C.3       22 UNK         0.1400 
    121 C         -1.4971  -20.0858  -57.1142 C.2       22 UNK         0.5000 
    122 N         -0.1911  -20.2881  -57.0132 N.am      22 UNK        -0.7600 
    123 O         -2.0818  -20.3126  -58.1714 O.2       22 UNK        -0.5000 
    124 C124       -2.1753  -17.9699  -55.8110 C.3       23 UNK        -0.0398 
    125 S125       -0.7467  -17.3845  -54.8401 S.3       23 UNK        -0.2404 
    126 C126       -1.5427  -17.1315  -53.2243 C.3       23 UNK        -0.0205 
    127 H127       -2.3608  -12.2846  -44.9452 H         1 UNK         0.0600 
    128 H128       -2.5140  -10.7292  -44.1231 H         1 UNK         0.0600 
    129 H129       -1.3120  -11.9028  -43.5768 H         1 UNK         0.0600 
    130 H130       -1.3591  -12.0546  -46.9333 H         1 UNK         0.3000 
    131 H131        0.3643   -9.8121  -47.5609 H         1 UNK         0.0600 
    132 H132       -1.1906  -10.5422  -49.2519 H         1 UNK         0.0800 
    133 H133        0.4189  -10.7970  -49.8427 H         1 UNK         0.0800 
    134 H134        1.5491  -13.1704  -50.1145 H         1 UNK         0.0800 
    135 H135        0.5201  -12.7913  -51.4784 H         1 UNK         0.0800 
    136 H136       -1.0144  -14.5733  -52.4274 H         1 UNK         0.1150 
    137 H137        0.1090  -18.6415  -51.6862 H         1 UNK         0.1150 
    138 H138        1.9202  -15.4733  -49.4326 H         1 UNK         0.1150 
    139 H139        1.7300  -19.2019  -50.0655 H         1 UNK         0.0800 
    140 H140        2.9823  -18.0024  -49.8554 H         1 UNK         0.0800 
    141 H141       -0.6758  -18.1461  -48.7931 H         1 UNK         0.0800 
    142 H142       -0.6496  -17.7712  -47.1007 H         1 UNK         0.0800 
    143 H143       -0.0643  -20.5516  -48.2247 H         1 UNK         0.0600 
    144 H144        0.2314  -19.6004  -45.5785 H         1 UNK         0.3000 
    145 H145       -0.4046  -22.7115  -43.8873 H         1 UNK         0.0600 
    146 H146        2.1304  -21.0403  -44.2882 H         1 UNK         0.0600 
    147 H147        1.8044  -22.0986  -42.9185 H         1 UNK         0.0600 
    148 H148        1.9758  -22.7722  -44.5329 H         1 UNK         0.0600 
    149 H149        0.2019  -20.0863  -42.9223 H         1 UNK         0.3000 
    150 H150       -3.2074  -18.9888  -42.6231 H         1 UNK         0.0600 
    151 H151       -2.7386  -20.3476  -40.5867 H         1 UNK         0.0600 
    152 H152       -2.4514  -18.6394  -40.2897 H         1 UNK         0.0600 
    153 H153       -1.0916  -19.7323  -40.5350 H         1 UNK         0.0600 
    154 H154       -0.7746  -17.6867  -41.9560 H         1 UNK         0.3000 
    155 H155       -0.0770  -16.2987  -45.1883 H         1 UNK         0.0600 
    156 H156       -0.0369  -14.2317  -43.7885 H         1 UNK         0.0600 
    157 H157       -1.6836  -14.7342  -44.1417 H         1 UNK         0.0600 
    158 H158       -0.9981  -15.0395  -42.5531 H         1 UNK         0.0600 
    159 H159        1.3552  -16.0448  -42.7726 H         1 UNK         0.3000 
    160 H160        3.3488  -19.0272  -43.0862 H         1 UNK         0.0600 
    161 H161        4.4531  -17.2919  -44.4565 H         1 UNK         0.0600 
    162 H162        5.1101  -17.2904  -42.8279 H         1 UNK         0.0600 
    163 H163        3.9770  -16.0369  -43.3233 H         1 UNK         0.0600 
    164 H164        3.1079  -16.9075  -41.1288 H         1 UNK         0.3000 
    165 H165        0.8164  -18.6086  -39.0084 H         1 UNK         0.0600 
    166 H166        2.6435  -18.2837  -37.3612 H         1 UNK         0.0600 
    167 H167        3.0252  -19.6247  -38.4292 H         1 UNK         0.0600 
    168 H168        3.8174  -18.0704  -38.6604 H         1 UNK         0.0600 
    169 H169        2.2657  -16.1438  -38.7779 H         1 UNK         0.3000 
    170 H170       -0.0488  -14.0788  -40.5217 H         1 UNK         0.0600 
    171 H171       -1.0758  -14.3606  -38.2619 H         1 UNK         0.0600 
    172 H172        0.5188  -14.3238  -37.5187 H         1 UNK         0.0600 
    173 H173       -0.1081  -12.8976  -38.3462 H         1 UNK         0.0600 
    174 H174        2.2900  -13.4551  -39.0339 H         1 UNK         0.3000 
    175 H175        4.0433  -12.5167  -40.3564 H         1 UNK         0.0600 
    176 H176        5.0718  -15.4163  -40.5777 H         1 UNK         0.0600 
    177 H177        6.0129  -14.0430  -40.0032 H         1 UNK         0.0600 
    178 H178        4.6373  -14.6094  -39.0742 H         1 UNK         0.0600 
    179 H179        4.1153  -13.8305  -42.9281 H         1 UNK         0.3000 
    180 H180        6.0679  -11.3348  -44.3313 H         1 UNK         0.0600 
    181 H181        7.2776  -14.1359  -44.0318 H         1 UNK         0.0600 
    182 H182        8.0849  -12.6281  -43.6200 H         1 UNK         0.0600 
    183 H183        7.6724  -12.9654  -45.2922 H         1 UNK         0.0600 
    184 H184        5.3197  -13.8085  -45.4895 H         1 UNK         0.3000 
    185 H185        3.5933  -13.3638  -47.2278 H         1 UNK         0.0600 
    186 H186        1.9693  -15.2056  -46.5480 H         1 UNK         0.0600 
    187 H187        3.5117  -15.3015  -45.7224 H         1 UNK         0.0600 
    188 H188        2.1122  -14.6505  -44.8791 H         1 UNK         0.0600 
    189 H189        0.8939  -12.9176  -46.2442 H         1 UNK         0.3000 
    190 H190       -2.5557  -19.2715  -45.9544 H         1 UNK         0.3000 
    191 H191       -4.7714  -19.5390  -47.6928 H         1 UNK         0.0600 
    192 H192       -4.6658  -19.6373  -44.6318 H         1 UNK         0.0600 
    193 H193       -6.1105  -19.3667  -45.5978 H         1 UNK         0.0600 
    194 H194       -4.8113  -18.1832  -45.6162 H         1 UNK         0.0600 
    195 H195       -3.3040  -21.8958  -45.4298 H         1 UNK         0.3000 
    196 H196       -5.1847  -24.0001  -45.8611 H         1 UNK         0.0600 
    197 H197       -3.4170  -25.4450  -44.8828 H         1 UNK         0.0600 
    198 H198       -3.6196  -23.9763  -43.9390 H         1 UNK         0.0600 
    199 H199       -2.2412  -24.1460  -45.0213 H         1 UNK         0.0600 
    200 H200       -2.0000  -23.3014  -47.4149 H         1 UNK         0.3000 
    201 H201       -2.0006  -25.4286  -49.2565 H         1 UNK         0.0600 
    202 H202        0.0082  -24.0915  -48.7085 H         1 UNK         0.0600 
    203 H203       -0.6921  -22.6687  -49.4766 H         1 UNK         0.0600 
    204 H204       -0.2722  -24.0771  -50.4435 H         1 UNK         0.0600 
    205 H205       -3.3566  -22.1448  -49.5865 H         1 UNK         0.3000 
    206 H206       -4.1847  -22.1678  -52.2513 H         1 UNK         0.0600 
    207 H207       -4.2359  -20.1533  -50.8425 H         1 UNK         0.0600 
    208 H208       -5.8272  -20.4465  -51.5211 H         1 UNK         0.0600 
    209 H209       -5.5118  -20.8387  -49.8401 H         1 UNK         0.0600 
    210 H210       -5.9897  -23.3132  -49.3802 H         1 UNK         0.3000 
    211 H211       -8.2679  -24.2520  -50.8903 H         1 UNK         0.0600 
    212 H212       -7.3636  -24.8128  -48.0145 H         1 UNK         0.0600 
    213 H213       -8.9403  -25.2167  -48.6855 H         1 UNK         0.0600 
    214 H214       -8.4611  -23.5330  -48.5262 H         1 UNK         0.0600 
    215 H215       -5.3599  -25.8085  -49.4846 H         1 UNK         0.3000 
    216 H216       -6.2279  -28.4646  -49.9192 H         1 UNK         0.0600 
    217 H217       -3.8936  -29.0532  -49.2627 H         1 UNK         0.0600 
    218 H218       -4.5944  -27.8622  -48.1798 H         1 UNK         0.0600 
    219 H219       -3.4229  -27.3643  -49.4006 H         1 UNK         0.0600 
    220 H220       -4.0411  -26.4007  -51.9393 H         1 UNK         0.3000 
    221 H221       -4.1654  -28.4497  -54.0856 H         1 UNK         0.0600 
    222 H222       -1.5678  -27.6463  -52.6758 H         1 UNK         0.0600 
    223 H223       -2.3174  -29.2417  -52.6518 H         1 UNK         0.0600 
    224 H224       -1.6628  -28.6039  -54.1500 H         1 UNK         0.0600 
    225 H225       -3.0050  -25.1605  -53.1399 H         1 UNK         0.3000 
    226 H226       -1.9491  -24.6690  -55.7499 H         1 UNK         0.0600 
    227 H227       -1.1178  -23.5557  -53.6803 H         1 UNK         0.0600 
    228 H228       -1.5114  -22.4187  -54.9583 H         1 UNK         0.0600 
    229 H229       -2.5987  -22.6099  -53.5980 H         1 UNK         0.0600 
    230 H230       -5.1014  -23.9446  -54.3207 H         1 UNK         0.3000 
    231 H231       -7.0590  -23.2245  -55.1093 H         1 UNK         0.0600 
    232 H232       -7.8105  -24.5299  -57.0793 H         1 UNK         0.0600 
    233 H233       -6.8581  -25.5179  -55.9840 H         1 UNK         0.0600 
    234 H234       -6.1405  -24.9216  -57.4781 H         1 UNK         0.0600 
    235 H235       -6.2119  -20.1323  -56.9313 H         1 UNK         0.3000 
    236 H236       -5.9718  -21.4035  -54.2379 H         1 UNK         0.0600 
    237 H237       -7.8676  -19.8231  -54.5265 H         1 UNK         0.0600 
    238 H238       -6.7566  -18.5730  -55.0851 H         1 UNK         0.0600 
    239 H239       -6.6605  -19.1688  -53.4339 H         1 UNK         0.0600 
    240 H240       -3.9843  -20.3517  -56.7360 H         1 UNK         0.3000 
    241 H241       -1.7616  -19.9430  -54.9993 H         1 UNK         0.0600 
    242 H242        0.3131  -20.6421  -57.8114 H         1 UNK         0.3800 
    243 H243        0.3125  -20.0696  -56.1672 H         1 UNK         0.3800 
    244 H244       -2.1319  -17.5254  -56.8070 H         1 UNK         0.0800 
    245 H245       -3.0786  -17.5566  -55.3607 H         1 UNK         0.0800 
    246 H246       -2.3533  -16.4081  -53.3256 H         1 UNK         0.0800 
    247 H247       -2.0029  -18.0650  -52.8966 H         1 UNK         0.0800 
@<TRIPOS>BOND
     1    1    2 1    
     2    1  127 1    
     3    1  128 1    
     4    1  129 1    
     5    2    3 2    
     6    2    4 am   BACKBONE|DICT|INTERRES
     7    4    5 1    
     8    4  130 1    
     9    5    6 1    
    10    5   65 1    
    11    5  131 1    
    12    6    7 1    
    13    6  132 1    
    14    6  133 1    
    15    7    8 1    
    16    8    9 1    
    17    8  134 1    
    18    8  135 1    
    19    9   10 ar   
    20    9   14 ar   
    21   10   11 ar   
    22   10  136 1    
    23   11   12 ar   
    24   11  126 1    
    25   12   13 ar   
    26   12  137 1    
    27   13   14 ar   
    28   13   15 1    
    29   14  138 1    
    30   15   16 1    
    31   15  139 1    
    32   15  140 1    
    33   16   17 1    
    34   17   18 1    
    35   17  141 1    
    36   17  142 1    
    37   18   19 1    
    38   18   67 1    
    39   18  143 1    
    40   19   20 am   BACKBONE|DICT|INTERRES
    41   19  144 1    
    42   20   21 2    
    43   20   22 1    
    44   22   23 1    
    45   22   24 1    
    46   22  145 1    
    47   23  146 1    
    48   23  147 1    
    49   23  148 1    
    50   24   25 am   BACKBONE|DICT|INTERRES
    51   24  149 1    
    52   25   26 2    
    53   25   27 1    
    54   27   28 1    
    55   27   29 1    
    56   27  150 1    
    57   28  151 1    
    58   28  152 1    
    59   28  153 1    
    60   29   30 am   BACKBONE|DICT|INTERRES
    61   29  154 1    
    62   30   31 2    
    63   30   32 1    
    64   32   33 1    
    65   32   34 1    
    66   32  155 1    
    67   33  156 1    
    68   33  157 1    
    69   33  158 1    
    70   34   35 am   BACKBONE|DICT|INTERRES
    71   34  159 1    
    72   35   36 2    
    73   35   37 1    
    74   37   38 1    
    75   37   39 1    
    76   37  160 1    
    77   38  161 1    
    78   38  162 1    
    79   38  163 1    
    80   39   40 am   BACKBONE|DICT|INTERRES
    81   39  164 1    
    82   40   41 2    
    83   40   42 1    
    84   42   43 1    
    85   42   44 1    
    86   42  165 1    
    87   43  166 1    
    88   43  167 1    
    89   43  168 1    
    90   44   45 am   BACKBONE|DICT|INTERRES
    91   44  169 1    
    92   45   46 2    
    93   45   47 1    
    94   47   48 1    
    95   47   49 1    
    96   47  170 1    
    97   48  171 1    
    98   48  172 1    
    99   48  173 1    
   100   49   50 am   BACKBONE|DICT|INTERRES
   101   49  174 1    
   102   50   51 2    
   103   50   52 1    
   104   52   53 1    
   105   52   54 1    
   106   52  175 1    
   107   53  176 1    
   108   53  177 1    
   109   53  178 1    
   110   54   55 am   BACKBONE|DICT|INTERRES
   111   54  179 1    
   112   55   56 2    
   113   55   57 1    
   114   57   58 1    
   115   57   59 1    
   116   57  180 1    
   117   58  181 1    
   118   58  182 1    
   119   58  183 1    
   120   59   60 am   BACKBONE|DICT|INTERRES
   121   59  184 1    
   122   60   61 2    
   123   60   62 1    
   124   62   63 1    
   125   62   64 1    
   126   62  185 1    
   127   63  186 1    
   128   63  187 1    
   129   63  188 1    
   130   64   65 am   BACKBONE|DICT|INTERRES
   131   64  189 1    
   132   65   66 2    
   133   67   68 2    
   134   67   69 am   BACKBONE|DICT|INTERRES
   135   69   70 1    
   136   69  190 1    
   137   70   71 1    
   138   70   72 1    
   139   70  191 1    
   140   71  192 1    
   141   71  193 1    
   142   71  194 1    
   143   72   73 2    
   144   72   74 am   BACKBONE|DICT|INTERRES
   145   74   75 1    
   146   74  195 1    
   147   75   76 1    
   148   75   77 1    
   149   75  196 1    
   150   76  197 1    
   151   76  198 1    
   152   76  199 1    
   153   77   78 2    
   154   77   79 am   BACKBONE|DICT|INTERRES
   155   79   80 1    
   156   79  200 1    
   157   80   81 1    
   158   80   82 1    
   159   80  201 1    
   160   81  202 1    
   161   81  203 1    
   162   81  204 1    
   163   82   83 2    
   164   82   84 am   BACKBONE|DICT|INTERRES
   165   84   85 1    
   166   84  205 1    
   167   85   86 1    
   168   85   87 1    
   169   85  206 1    
   170   86  207 1    
   171   86  208 1    
   172   86  209 1    
   173   87   88 2    
   174   87   89 am   BACKBONE|DICT|INTERRES
   175   89   90 1    
   176   89  210 1    
   177   90   91 1    
   178   90   92 1    
   179   90  211 1    
   180   91  212 1    
   181   91  213 1    
   182   91  214 1    
   183   92   93 2    
   184   92   94 am   BACKBONE|DICT|INTERRES
   185   94   95 1    
   186   94  215 1    
   187   95   96 1    
   188   95   97 1    
   189   95  216 1    
   190   96  217 1    
   191   96  218 1    
   192   96  219 1    
   193   97   98 2    
   194   97   99 am   BACKBONE|DICT|INTERRES
   195   99  100 1    
   196   99  220 1    
   197  100  101 1    
   198  100  102 1    
   199  100  221 1    
   200  101  222 1    
   201  101  223 1    
   202  101  224 1    
   203  102  103 2    
   204  102  104 am   BACKBONE|DICT|INTERRES
   205  104  105 1    
   206  104  225 1    
   207  105  106 1    
   208  105  107 1    
   209  105  226 1    
   210  106  227 1    
   211  106  228 1    
   212  106  229 1    
   213  107  108 2    
   214  107  109 am   BACKBONE|DICT|INTERRES
   215  109  110 1    
   216  109  230 1    
   217  110  111 1    
   218  110  112 1    
   219  110  231 1    
   220  111  232 1    
   221  111  233 1    
   222  111  234 1    
   223  112  113 2    
   224  112  114 am   BACKBONE|DICT|INTERRES
   225  114  115 1    
   226  114  235 1    
   227  115  116 1    
   228  115  117 1    
   229  115  236 1    
   230  116  237 1    
   231  116  238 1    
   232  116  239 1    
   233  117  118 2    
   234  117  119 am   BACKBONE|DICT|INTERRES
   235  119  120 1    
   236  119  240 1    
   237  120  121 1    
   238  120  124 1    
   239  120  241 1    
   240  121  122 am   BACKBONE|DICT|INTERRES
   241  121  123 2    
   242  122  242 1    
   243  122  243 1    
   244  124  125 1    
   245  124  244 1    
   246  124  245 1    
   247  125  126 1    
   248  126  246 1    
   249  126  247 1    
@<TRIPOS>SUBSTRUCTURE
     1 UNK         1 GROUP             0       ****    0 ROOT    
