@<TRIPOS>MOLECULE
3R540
247   249    1
SMALL
USER_CHARGES


@<TRIPOS>ATOM
      1 CA         -1.5069  -16.1551  -49.2200 C.3       0 UNK        -0.1800 
      2 C          -0.7789  -14.8337  -49.0319 C.2       0 UNK         0.5000 
      3 O          -1.2968  -13.9381  -48.3664 O.2       0 UNK        -0.5000 
      4 N           0.4352  -14.7111  -49.5878 N.am      1 UNK        -0.5000 
      5 CA          1.2975  -13.5284  -49.4347 C.3       1 UNK         0.1400 
      6 C6          2.4223  -13.4747  -50.5013 C.3       23 UNK        -0.0398 
      7 S7          3.7626  -14.7042  -50.2920 S.3       23 UNK        -0.2404 
      8 C8          3.5197  -15.8021  -51.7206 C.3       23 UNK        -0.0205 
      9 C9          2.3249  -16.7221  -51.5327 C.ar      23 UNK        -0.0193 
     10 C10         1.1657  -16.5424  -52.2902 C.ar      23 UNK        -0.1150 
     11 C11         0.0792  -17.4091  -52.1421 C.ar      23 UNK        -0.0193 
     12 C12         0.1557  -18.4603  -51.2205 C.ar      23 UNK        -0.1150 
     13 C13         1.3103  -18.6445  -50.4513 C.ar      23 UNK        -0.0193 
     14 C14         2.3896  -17.7727  -50.6147 C.ar      23 UNK        -0.1150 
     15 C15         1.4264  -19.8015  -49.4699 C.3       23 UNK        -0.0205 
     16 S16         1.1443  -19.2773  -47.7466 S.3       23 UNK        -0.2404 
     17 C17        -0.5989  -19.7509  -47.5079 C.3       23 UNK        -0.0398 
     18 CA         -0.7490  -21.2339  -47.0868 C.3       11 UNK         0.1400 
     19 N          -0.0778  -21.5596  -45.8239 N.am      11 UNK        -0.5000 
     20 C           0.1031  -22.8083  -45.3670 C.2       10 UNK         0.5000 
     21 O          -0.2394  -23.8187  -45.9808 O.2       10 UNK        -0.5000 
     22 CA          0.7116  -22.9502  -43.9629 C.3       10 UNK         0.1400 
     23 CB          2.2408  -22.8143  -44.0080 C.3       10 UNK        -0.1800 
     24 N           0.1453  -21.9743  -43.0316 N.am      10 UNK        -0.5000 
     25 C          -1.1132  -22.0314  -42.5689 C.2       9 UNK         0.5000 
     26 O          -1.9005  -22.9331  -42.8526 O.2       9 UNK        -0.5000 
     27 CA         -1.5956  -20.8728  -41.6763 C.3       9 UNK         0.1400 
     28 CB         -1.3100  -21.1785  -40.1993 C.3       9 UNK        -0.1800 
     29 N          -0.9997  -19.5852  -42.0287 N.am      9 UNK        -0.5000 
     30 C          -1.1534  -18.9678  -43.2105 C.2       8 UNK         0.5000 
     31 O          -1.8547  -19.4046  -44.1232 O.2       8 UNK        -0.5000 
     32 CA         -0.3563  -17.6673  -43.4281 C.3       8 UNK         0.1400 
     33 CB         -1.2090  -16.4702  -42.9924 C.3       8 UNK        -0.1800 
     34 N           0.9133  -17.6229  -42.6990 N.am      8 UNK        -0.5000 
     35 C           1.8899  -18.5410  -42.7629 C.2       7 UNK         0.5000 
     36 O           1.8727  -19.4929  -43.5429 O.2       7 UNK        -0.5000 
     37 CA          3.0433  -18.4255  -41.7439 C.3       7 UNK         0.1400 
     38 CB          4.3205  -17.9036  -42.4189 C.3       7 UNK        -0.1800 
     39 N           2.7456  -17.5828  -40.5820 N.am      7 UNK        -0.5000 
     40 C           1.7532  -17.7650  -39.6968 C.2       6 UNK         0.5000 
     41 O           0.9746  -18.7186  -39.7326 O.2       6 UNK        -0.5000 
     42 CA          1.5709  -16.6717  -38.6226 C.3       6 UNK         0.1400 
     43 CB          2.1578  -17.1352  -37.2810 C.3       6 UNK        -0.1800 
     44 N           2.1730  -15.3835  -38.9892 N.am      6 UNK        -0.5000 
     45 C           1.7639  -14.6057  -40.0016 C.2       5 UNK         0.5000 
     46 O           0.7890  -14.8711  -40.7077 O.2       5 UNK        -0.5000 
     47 CA          2.6274  -13.3650  -40.2847 C.3       5 UNK         0.1400 
     48 CB          4.0107  -13.7799  -40.8178 C.3       5 UNK        -0.1800 
     49 N           1.9973  -12.5087  -41.2862 N.am      5 UNK        -0.5000 
     50 C           1.7737  -11.1948  -41.1585 C.2       4 UNK         0.5000 
     51 O           2.0418  -10.5579  -40.1382 O.2       4 UNK        -0.5000 
     52 CA          1.1798  -10.4400  -42.3687 C.3       4 UNK         0.1400 
     53 CB          2.2478   -9.5446  -43.0174 C.3       4 UNK        -0.1800 
     54 N           0.6210  -11.3126  -43.4017 N.am      4 UNK        -0.5000 
     55 C          -0.5356  -11.9784  -43.3000 C.2       3 UNK         0.5000 
     56 O          -1.2970  -11.8737  -42.3377 O.2       3 UNK        -0.5000 
     57 CA         -0.9147  -12.9179  -44.4647 C.3       3 UNK         0.1400 
     58 CB         -1.8927  -12.2042  -45.4106 C.3       3 UNK        -0.1800 
     59 N           0.1984  -13.4593  -45.2609 N.am      3 UNK        -0.5000 
     60 C           1.3188  -14.0552  -44.8185 C.2       2 UNK         0.5000 
     61 O           1.5955  -14.1805  -43.6274 O.2       2 UNK        -0.5000 
     62 CA          2.3123  -14.6059  -45.8641 C.3       2 UNK         0.1400 
     63 CB          2.6323  -16.0856  -45.5972 C.3       2 UNK        -0.1800 
     64 N           1.8568  -14.4878  -47.2464 N.am      2 UNK        -0.5000 
     65 C           1.8448  -13.3767  -47.9948 C.2       1 UNK         0.5000 
     66 O           2.2163  -12.2752  -47.5889 O.2       1 UNK        -0.5000 
     67 C          -2.2317  -21.6464  -47.0559 C.2       11 UNK         0.5000 
     68 O          -2.7171  -22.2010  -48.0407 O.2       11 UNK        -0.5000 
     69 N          -2.9080  -21.4149  -45.9218 N.am      12 UNK        -0.5000 
     70 CA         -4.2867  -21.8375  -45.6787 C.3       12 UNK         0.1400 
     71 CB         -4.7900  -21.2324  -44.3598 C.3       12 UNK        -0.1800 
     72 C          -4.4456  -23.3692  -45.6812 C.2       12 UNK         0.5000 
     73 O          -5.3477  -23.8781  -46.3464 O.2       12 UNK        -0.5000 
     74 N          -3.5482  -24.0770  -44.9786 N.am      13 UNK        -0.5000 
     75 CA         -3.5151  -25.5407  -44.9011 C.3       13 UNK         0.1400 
     76 CB         -2.4806  -25.9787  -43.8536 C.3       13 UNK        -0.1800 
     77 C          -3.2305  -26.2155  -46.2558 C.2       13 UNK         0.5000 
     78 O          -3.8484  -27.2333  -46.5698 O.2       13 UNK        -0.5000 
     79 N          -2.3250  -25.6218  -47.0444 N.am      14 UNK        -0.5000 
     80 CA         -1.9891  -26.0585  -48.4012 C.3       14 UNK         0.1400 
     81 CB         -0.6147  -25.4802  -48.7760 C.3       14 UNK        -0.1800 
     82 C          -3.0349  -25.6483  -49.4572 C.2       14 UNK         0.5000 
     83 O          -2.9242  -26.0836  -50.6045 O.2       14 UNK        -0.5000 
     84 N          -3.9831  -24.7750  -49.0831 N.am      15 UNK        -0.5000 
     85 CA         -4.9655  -24.1061  -49.9432 C.3       15 UNK         0.1400 
     86 CB         -6.0289  -25.1076  -50.4374 C.3       15 UNK        -0.1800 
     87 C          -4.2847  -23.3308  -51.0899 C.2       15 UNK         0.5000 
     88 O          -4.6939  -23.4459  -52.2449 O.2       15 UNK        -0.5000 
     89 N          -3.2077  -22.6090  -50.7440 N.am      16 UNK        -0.5000 
     90 CA         -2.2848  -21.8959  -51.6331 C.3       16 UNK         0.1400 
     91 CB         -2.9472  -20.6134  -52.1674 C.3       16 UNK        -0.1800 
     92 C          -1.6921  -22.8027  -52.7363 C.2       16 UNK         0.5000 
     93 O          -1.6141  -22.4043  -53.8980 O.2       16 UNK        -0.5000 
     94 N          -1.3059  -24.0221  -52.3292 N.am      17 UNK        -0.5000 
     95 CA         -0.8327  -25.1356  -53.1585 C.3       17 UNK         0.1400 
     96 CB          0.4963  -24.7873  -53.8620 C.3       17 UNK        -0.1800 
     97 C          -1.9283  -25.6436  -54.1192 C.2       17 UNK         0.5000 
     98 O          -1.6840  -25.7971  -55.3175 O.2       17 UNK        -0.5000 
     99 N          -3.1194  -25.8920  -53.5528 N.am      18 UNK        -0.5000 
    100 CA        -4.3486  -26.3473  -54.2139 C.3       18 UNK         0.1400 
    101 CB        -4.1973  -27.8088  -54.6843 C.3       18 UNK        -0.1800 
    102 C         -4.8248  -25.3947  -55.3333 C.2       18 UNK         0.5000 
    103 O         -5.1938  -25.8422  -56.4214 O.2       18 UNK        -0.5000 
    104 N         -4.8018  -24.0915  -55.0405 N.am      19 UNK        -0.5000 
    105 CA        -5.1477  -23.0009  -55.9462 C.3       19 UNK         0.1400 
    106 CB        -4.0023  -22.7573  -56.9504 C.3       19 UNK        -0.1800 
    107 C         -5.4666  -21.7701  -55.0872 C.2       19 UNK         0.5000 
    108 O         -4.7205  -20.7915  -55.1161 O.2       19 UNK        -0.5000 
    109 N         -6.5356  -21.8901  -54.2851 N.am      20 UNK        -0.5000 
    110 CA        -6.9408  -20.9982  -53.1929 C.3       20 UNK         0.1400 
    111 CB        -8.3670  -21.3626  -52.7525 C.3       20 UNK        -0.1800 
    112 C         -6.8309  -19.4922  -53.5044 C.2       20 UNK         0.5000 
    113 O         -7.4557  -19.0154  -54.4535 O.2       20 UNK        -0.5000 
    114 N         -6.0245  -18.7965  -52.6893 N.am      21 UNK        -0.5000 
    115 CA        -5.6769  -17.3709  -52.7530 C.3       21 UNK         0.1400 
    116 CB        -6.9323  -16.4848  -52.6092 C.3       21 UNK        -0.1800 
    117 C         -4.8038  -16.9619  -53.9618 C.2       21 UNK         0.5000 
    118 O         -4.5880  -15.7642  -54.1558 O.2       21 UNK        -0.5000 
    119 N         -4.2831  -17.9389  -54.7187 N.am      22 UNK        -0.5000 
    120 CA        -3.4685  -17.7772  -55.9358 C.3       22 UNK         0.1400 
    121 C         -4.2444  -17.1587  -57.1416 C.2       22 UNK         0.5000 
    122 N         -3.6097  -17.0338  -58.3005 N.am      22 UNK        -0.7600 
    123 O         -5.4233  -16.8186  -57.0674 O.2       22 UNK        -0.5000 
    124 C124       -2.1087  -17.0674  -55.6677 C.3       23 UNK        -0.0398 
    125 S125       -0.9940  -18.0393  -54.5969 S.3       23 UNK        -0.2404 
    126 C126       -1.1647  -17.2005  -52.9916 C.3       23 UNK        -0.0205 
    127 H127       -2.3198  -16.2516  -48.5001 H         1 UNK         0.0600 
    128 H128       -0.8274  -16.9924  -49.0679 H         1 UNK         0.0600 
    129 H129       -1.9297  -16.2175  -50.2220 H         1 UNK         0.0600 
    130 H130        0.8227  -15.4744  -50.1276 H         1 UNK         0.3000 
    131 H131        0.6651  -12.6548  -49.6085 H         1 UNK         0.0600 
    132 H132        1.9882  -13.5700  -51.4972 H         1 UNK         0.0800 
    133 H133        2.8858  -12.4869  -50.4863 H         1 UNK         0.0800 
    134 H134        3.4232  -15.2085  -52.6310 H         1 UNK         0.0800 
    135 H135        4.4162  -16.4101  -51.8499 H         1 UNK         0.0800 
    136 H136        1.1119  -15.7363  -53.0088 H         1 UNK         0.1150 
    137 H137       -0.6796  -19.1348  -51.1059 H         1 UNK         0.1150 
    138 H138        3.2872  -17.9155  -50.0289 H         1 UNK         0.1150 
    139 H139        0.7441  -20.6073  -49.7429 H         1 UNK         0.0800 
    140 H140        2.4286  -20.2271  -49.5391 H         1 UNK         0.0800 
    141 H141       -1.1438  -19.5497  -48.4324 H         1 UNK         0.0800 
    142 H142       -1.0299  -19.0918  -46.7525 H         1 UNK         0.0800 
    143 H143       -0.2774  -21.8438  -47.8604 H         1 UNK         0.0600 
    144 H144        0.2323  -20.7822  -45.2578 H         1 UNK         0.3000 
    145 H145        0.4751  -23.9505  -43.5935 H         1 UNK         0.0600 
    146 H146        2.6796  -23.6001  -44.6240 H         1 UNK         0.0600 
    147 H147        2.5535  -21.8594  -44.4306 H         1 UNK         0.0600 
    148 H148        2.6756  -22.9003  -43.0121 H         1 UNK         0.0600 
    149 H149        0.7156  -21.1650  -42.8192 H         1 UNK         0.3000 
    150 H150       -2.6760  -20.7832  -41.8027 H         1 UNK         0.0600 
    151 H151       -1.7006  -20.3941  -39.5508 H         1 UNK         0.0600 
    152 H152       -0.2400  -21.2689  -40.0073 H         1 UNK         0.0600 
    153 H153       -1.7791  -22.1155  -39.8962 H         1 UNK         0.0600 
    154 H154       -0.3881  -19.1679  -41.3358 H         1 UNK         0.3000 
    155 H155       -0.1342  -17.5776  -44.4926 H         1 UNK         0.0600 
    156 H156       -2.0786  -16.3494  -43.6393 H         1 UNK         0.0600 
    157 H157       -0.6319  -15.5498  -43.0301 H         1 UNK         0.0600 
    158 H158       -1.5680  -16.5819  -41.9682 H         1 UNK         0.0600 
    159 H159        1.0171  -16.8606  -42.0413 H         1 UNK         0.3000 
    160 H160        3.2395  -19.4347  -41.3766 H         1 UNK         0.0600 
    161 H161        4.5500  -18.4698  -43.3227 H         1 UNK         0.0600 
    162 H162        5.1798  -17.9945  -41.7543 H         1 UNK         0.0600 
    163 H163        4.2279  -16.8545  -42.7000 H         1 UNK         0.0600 
    164 H164        3.3275  -16.7674  -40.4652 H         1 UNK         0.3000 
    165 H165        0.4974  -16.5188  -38.4934 H         1 UNK         0.0600 
    166 H166        1.9668  -16.4060  -36.4934 H         1 UNK         0.0600 
    167 H167        1.7104  -18.0782  -36.9637 H         1 UNK         0.0600 
    168 H168        3.2359  -17.2884  -37.3444 H         1 UNK         0.0600 
    169 H169        2.9770  -15.0982  -38.4485 H         1 UNK         0.3000 
    170 H170        2.7534  -12.8303  -39.3413 H         1 UNK         0.0600 
    171 H171        4.6287  -12.9059  -41.0244 H         1 UNK         0.0600 
    172 H172        4.5530  -14.3918  -40.0964 H         1 UNK         0.0600 
    173 H173        3.9274  -14.3531  -41.7426 H         1 UNK         0.0600 
    174 H174        1.6954  -12.9922  -42.1295 H         1 UNK         0.3000 
    175 H175        0.3817   -9.7975  -41.9909 H         1 UNK         0.0600 
    176 H176        3.0729  -10.1326  -43.4215 H         1 UNK         0.0600 
    177 H177        1.8265   -8.9526  -43.8301 H         1 UNK         0.0600 
    178 H178        2.6670   -8.8455  -42.2925 H         1 UNK         0.0600 
    179 H179        1.1871  -11.4646  -44.2235 H         1 UNK         0.3000 
    180 H180       -1.4471  -13.7613  -44.0282 H         1 UNK         0.0600 
    181 H181       -2.3248  -12.9005  -46.1287 H         1 UNK         0.0600 
    182 H182       -1.4019  -11.4056  -45.9681 H         1 UNK         0.0600 
    183 H183       -2.7229  -11.7595  -44.8599 H         1 UNK         0.0600 
    184 H184        0.0696  -13.4162  -46.2622 H         1 UNK         0.3000 
    185 H185        3.2357  -14.0336  -45.7557 H         1 UNK         0.0600 
    186 H186        1.7506  -16.7164  -45.7118 H         1 UNK         0.0600 
    187 H187        3.3968  -16.4546  -46.2811 H         1 UNK         0.0600 
    188 H188        3.0097  -16.2297  -44.5859 H         1 UNK         0.0600 
    189 H189        1.5242  -15.3381  -47.6771 H         1 UNK         0.3000 
    190 H190       -2.4511  -20.8951  -45.1773 H         1 UNK         0.3000 
    191 H191       -4.9015  -21.4384  -46.4882 H         1 UNK         0.0600 
    192 H192       -4.2209  -21.5967  -43.5051 H         1 UNK         0.0600 
    193 H193       -5.8365  -21.4873  -44.1889 H         1 UNK         0.0600 
    194 H194       -4.7167  -20.1447  -44.3712 H         1 UNK         0.0600 
    195 H195       -2.8594  -23.5823  -44.4189 H         1 UNK         0.3000 
    196 H196       -4.4986  -25.8769  -44.5664 H         1 UNK         0.0600 
    197 H197       -2.4371  -27.0657  -43.7757 H         1 UNK         0.0600 
    198 H198       -2.7332  -25.5929  -42.8658 H         1 UNK         0.0600 
    199 H199       -1.4799  -25.6258  -44.1051 H         1 UNK         0.0600 
    200 H200       -1.8095  -24.8235  -46.6850 H         1 UNK         0.3000 
    201 H201       -1.9182  -27.1480  -48.4145 H         1 UNK         0.0600 
    202 H202        0.1499  -25.7904  -48.0634 H         1 UNK         0.0600 
    203 H203       -0.6298  -24.3895  -48.7944 H         1 UNK         0.0600 
    204 H204       -0.2956  -25.8241  -49.7606 H         1 UNK         0.0600 
    205 H205       -3.9742  -24.4618  -48.1210 H         1 UNK         0.3000 
    206 H206       -5.4678  -23.3623  -49.3232 H         1 UNK         0.0600 
    207 H207       -6.8054  -24.6020  -51.0127 H         1 UNK         0.0600 
    208 H208       -5.5966  -25.8780  -51.0757 H         1 UNK         0.0600 
    209 H209       -6.5174  -25.6042  -49.5991 H         1 UNK         0.0600 
    210 H210       -2.9819  -22.5618  -49.7503 H         1 UNK         0.3000 
    211 H211       -1.4383  -21.5912  -51.0164 H         1 UNK         0.0600 
    212 H212       -3.8584  -20.8394  -52.7142 H         1 UNK         0.0600 
    213 H213       -2.2840  -20.0775  -52.8454 H         1 UNK         0.0600 
    214 H214       -3.2025  -19.9342  -51.3544 H         1 UNK         0.0600 
    215 H215       -1.4741  -24.2570  -51.3619 H         1 UNK         0.3000 
    216 H216       -0.6283  -25.9590  -52.4725 H         1 UNK         0.0600 
    217 H217        0.9073  -25.6614  -54.3683 H         1 UNK         0.0600 
    218 H218        1.2436  -24.4460  -53.1458 H         1 UNK         0.0600 
    219 H219        0.3698  -24.0073  -54.6131 H         1 UNK         0.0600 
    220 H220       -3.1943  -25.7536  -52.5491 H         1 UNK         0.3000 
    221 H221       -5.1281  -26.3278  -53.4516 H         1 UNK         0.0600 
    222 H222       -3.4559  -27.9043  -55.4781 H         1 UNK         0.0600 
    223 H223       -3.8940  -28.4571  -53.8622 H         1 UNK         0.0600 
    224 H224       -5.1414  -28.1954  -55.0696 H         1 UNK         0.0600 
    225 H225       -4.5505  -23.8101  -54.0935 H         1 UNK         0.3000 
    226 H226       -6.0520  -23.2605  -56.5004 H         1 UNK         0.0600 
    227 H227       -3.8394  -23.6265  -57.5875 H         1 UNK         0.0600 
    228 H228       -4.2275  -21.9136  -57.6037 H         1 UNK         0.0600 
    229 H229       -3.0637  -22.5390  -56.4389 H         1 UNK         0.0600 
    230 H230       -7.0599  -22.7499  -54.3495 H         1 UNK         0.3000 
    231 H231       -6.2780  -21.2208  -52.3555 H         1 UNK         0.0600 
    232 H232       -9.0810  -21.2416  -53.5682 H         1 UNK         0.0600 
    233 H233       -8.4224  -22.3951  -52.4066 H         1 UNK         0.0600 
    234 H234       -8.6974  -20.7275  -51.9295 H         1 UNK         0.0600 
    235 H235       -5.5621  -19.3038  -51.9487 H         1 UNK         0.3000 
    236 H236       -5.0547  -17.1875  -51.8758 H         1 UNK         0.0600 
    237 H237       -7.5699  -16.5381  -53.4918 H         1 UNK         0.0600 
    238 H238       -7.5275  -16.7788  -51.7448 H         1 UNK         0.0600 
    239 H239       -6.6588  -15.4381  -52.4711 H         1 UNK         0.0600 
    240 H240       -4.5442  -18.9004  -54.5250 H         1 UNK         0.3000 
    241 H241       -3.2474  -18.7967  -56.2535 H         1 UNK         0.0600 
    242 H242       -4.1083  -16.6472  -59.0873 H         1 UNK         0.3800 
    243 H243       -2.6552  -17.3338  -58.4231 H         1 UNK         0.3800 
    244 H244       -1.5621  -16.9173  -56.5990 H         1 UNK         0.0800 
    245 H245       -2.2570  -16.0677  -55.2600 H         1 UNK         0.0800 
    246 H246       -2.0496  -17.5775  -52.4776 H         1 UNK         0.0800 
    247 H247       -1.3263  -16.1317  -53.1388 H         1 UNK         0.0800 
@<TRIPOS>BOND
     1    1    2 1    
     2    1  127 1    
     3    1  128 1    
     4    1  129 1    
     5    2    3 2    
     6    2    4 am   BACKBONE|DICT|INTERRES
     7    4    5 1    
     8    4  130 1    
     9    5    6 1    
    10    5   65 1    
    11    5  131 1    
    12    6    7 1    
    13    6  132 1    
    14    6  133 1    
    15    7    8 1    
    16    8    9 1    
    17    8  134 1    
    18    8  135 1    
    19    9   10 ar   
    20    9   14 ar   
    21   10   11 ar   
    22   10  136 1    
    23   11   12 ar   
    24   11  126 1    
    25   12   13 ar   
    26   12  137 1    
    27   13   14 ar   
    28   13   15 1    
    29   14  138 1    
    30   15   16 1    
    31   15  139 1    
    32   15  140 1    
    33   16   17 1    
    34   17   18 1    
    35   17  141 1    
    36   17  142 1    
    37   18   19 1    
    38   18   67 1    
    39   18  143 1    
    40   19   20 am   BACKBONE|DICT|INTERRES
    41   19  144 1    
    42   20   21 2    
    43   20   22 1    
    44   22   23 1    
    45   22   24 1    
    46   22  145 1    
    47   23  146 1    
    48   23  147 1    
    49   23  148 1    
    50   24   25 am   BACKBONE|DICT|INTERRES
    51   24  149 1    
    52   25   26 2    
    53   25   27 1    
    54   27   28 1    
    55   27   29 1    
    56   27  150 1    
    57   28  151 1    
    58   28  152 1    
    59   28  153 1    
    60   29   30 am   BACKBONE|DICT|INTERRES
    61   29  154 1    
    62   30   31 2    
    63   30   32 1    
    64   32   33 1    
    65   32   34 1    
    66   32  155 1    
    67   33  156 1    
    68   33  157 1    
    69   33  158 1    
    70   34   35 am   BACKBONE|DICT|INTERRES
    71   34  159 1    
    72   35   36 2    
    73   35   37 1    
    74   37   38 1    
    75   37   39 1    
    76   37  160 1    
    77   38  161 1    
    78   38  162 1    
    79   38  163 1    
    80   39   40 am   BACKBONE|DICT|INTERRES
    81   39  164 1    
    82   40   41 2    
    83   40   42 1    
    84   42   43 1    
    85   42   44 1    
    86   42  165 1    
    87   43  166 1    
    88   43  167 1    
    89   43  168 1    
    90   44   45 am   BACKBONE|DICT|INTERRES
    91   44  169 1    
    92   45   46 2    
    93   45   47 1    
    94   47   48 1    
    95   47   49 1    
    96   47  170 1    
    97   48  171 1    
    98   48  172 1    
    99   48  173 1    
   100   49   50 am   BACKBONE|DICT|INTERRES
   101   49  174 1    
   102   50   51 2    
   103   50   52 1    
   104   52   53 1    
   105   52   54 1    
   106   52  175 1    
   107   53  176 1    
   108   53  177 1    
   109   53  178 1    
   110   54   55 am   BACKBONE|DICT|INTERRES
   111   54  179 1    
   112   55   56 2    
   113   55   57 1    
   114   57   58 1    
   115   57   59 1    
   116   57  180 1    
   117   58  181 1    
   118   58  182 1    
   119   58  183 1    
   120   59   60 am   BACKBONE|DICT|INTERRES
   121   59  184 1    
   122   60   61 2    
   123   60   62 1    
   124   62   63 1    
   125   62   64 1    
   126   62  185 1    
   127   63  186 1    
   128   63  187 1    
   129   63  188 1    
   130   64   65 am   BACKBONE|DICT|INTERRES
   131   64  189 1    
   132   65   66 2    
   133   67   68 2    
   134   67   69 am   BACKBONE|DICT|INTERRES
   135   69   70 1    
   136   69  190 1    
   137   70   71 1    
   138   70   72 1    
   139   70  191 1    
   140   71  192 1    
   141   71  193 1    
   142   71  194 1    
   143   72   73 2    
   144   72   74 am   BACKBONE|DICT|INTERRES
   145   74   75 1    
   146   74  195 1    
   147   75   76 1    
   148   75   77 1    
   149   75  196 1    
   150   76  197 1    
   151   76  198 1    
   152   76  199 1    
   153   77   78 2    
   154   77   79 am   BACKBONE|DICT|INTERRES
   155   79   80 1    
   156   79  200 1    
   157   80   81 1    
   158   80   82 1    
   159   80  201 1    
   160   81  202 1    
   161   81  203 1    
   162   81  204 1    
   163   82   83 2    
   164   82   84 am   BACKBONE|DICT|INTERRES
   165   84   85 1    
   166   84  205 1    
   167   85   86 1    
   168   85   87 1    
   169   85  206 1    
   170   86  207 1    
   171   86  208 1    
   172   86  209 1    
   173   87   88 2    
   174   87   89 am   BACKBONE|DICT|INTERRES
   175   89   90 1    
   176   89  210 1    
   177   90   91 1    
   178   90   92 1    
   179   90  211 1    
   180   91  212 1    
   181   91  213 1    
   182   91  214 1    
   183   92   93 2    
   184   92   94 am   BACKBONE|DICT|INTERRES
   185   94   95 1    
   186   94  215 1    
   187   95   96 1    
   188   95   97 1    
   189   95  216 1    
   190   96  217 1    
   191   96  218 1    
   192   96  219 1    
   193   97   98 2    
   194   97   99 am   BACKBONE|DICT|INTERRES
   195   99  100 1    
   196   99  220 1    
   197  100  101 1    
   198  100  102 1    
   199  100  221 1    
   200  101  222 1    
   201  101  223 1    
   202  101  224 1    
   203  102  103 2    
   204  102  104 am   BACKBONE|DICT|INTERRES
   205  104  105 1    
   206  104  225 1    
   207  105  106 1    
   208  105  107 1    
   209  105  226 1    
   210  106  227 1    
   211  106  228 1    
   212  106  229 1    
   213  107  108 2    
   214  107  109 am   BACKBONE|DICT|INTERRES
   215  109  110 1    
   216  109  230 1    
   217  110  111 1    
   218  110  112 1    
   219  110  231 1    
   220  111  232 1    
   221  111  233 1    
   222  111  234 1    
   223  112  113 2    
   224  112  114 am   BACKBONE|DICT|INTERRES
   225  114  115 1    
   226  114  235 1    
   227  115  116 1    
   228  115  117 1    
   229  115  236 1    
   230  116  237 1    
   231  116  238 1    
   232  116  239 1    
   233  117  118 2    
   234  117  119 am   BACKBONE|DICT|INTERRES
   235  119  120 1    
   236  119  240 1    
   237  120  121 1    
   238  120  124 1    
   239  120  241 1    
   240  121  122 am   BACKBONE|DICT|INTERRES
   241  121  123 2    
   242  122  242 1    
   243  122  243 1    
   244  124  125 1    
   245  124  244 1    
   246  124  245 1    
   247  125  126 1    
   248  126  246 1    
   249  126  247 1    
@<TRIPOS>SUBSTRUCTURE
     1 UNK         1 GROUP             0       ****    0 ROOT    
