@<TRIPOS>MOLECULE
3R540
247   249    1
SMALL
USER_CHARGES


@<TRIPOS>ATOM
      1 CA         -3.3730  -17.5529  -47.3511 C.3       0 UNK        -0.1800 
      2 C          -2.5094  -16.6377  -48.2048 C.2       0 UNK         0.5000 
      3 O          -2.9357  -16.2282  -49.2840 O.2       0 UNK        -0.5000 
      4 N          -1.2970  -16.3248  -47.7333 N.am      1 UNK        -0.5000 
      5 CA         -0.3733  -15.3854  -48.3867 C.3       1 UNK         0.1400 
      6 C6          1.1067  -15.7284  -48.0947 C.3       23 UNK        -0.0398 
      7 S7          1.5342  -17.3871  -48.7205 S.3       23 UNK        -0.2404 
      8 C8          2.2708  -16.9697  -50.3334 C.3       23 UNK        -0.0205 
      9 C9          2.1915  -18.1496  -51.2885 C.ar      23 UNK        -0.0193 
     10 C10         1.3075  -18.1272  -52.3708 C.ar      23 UNK        -0.1150 
     11 C11         1.1964  -19.2213  -53.2355 C.ar      23 UNK        -0.0193 
     12 C12         1.9811  -20.3556  -52.9859 C.ar      23 UNK        -0.1150 
     13 C13         2.8527  -20.4028  -51.8938 C.ar      23 UNK        -0.0193 
     14 C14         2.9796  -19.2804  -51.0707 C.ar      23 UNK        -0.1150 
     15 C15         3.6205  -21.6874  -51.5941 C.3       23 UNK        -0.0205 
     16 S16         3.5538  -22.1946  -49.8381 S.3       23 UNK        -0.2404 
     17 C17         1.7858  -21.9780  -49.4200 C.3       23 UNK        -0.0398 
     18 CA          1.2721  -22.9991  -48.3767 C.3       11 UNK         0.1400 
     19 N           2.1158  -23.0677  -47.1809 N.am      11 UNK        -0.5000 
     20 C           2.0008  -23.9915  -46.2168 C.2       10 UNK         0.5000 
     21 O           1.1928  -24.9187  -46.2508 O.2       10 UNK        -0.5000 
     22 CA          2.9126  -23.8221  -44.9883 C.3       10 UNK         0.1400 
     23 CB          4.2439  -24.5579  -45.1999 C.3       10 UNK        -0.1800 
     24 N           3.1801  -22.4183  -44.6634 N.am      10 UNK        -0.5000 
     25 C           2.2506  -21.5388  -44.2670 C.2       9 UNK         0.5000 
     26 O           1.0550  -21.8143  -44.1442 O.2       9 UNK        -0.5000 
     27 CA          2.7373  -20.1011  -44.0123 C.3       9 UNK         0.1400 
     28 CB          2.1668  -19.1335  -45.0628 C.3       9 UNK        -0.1800 
     29 N           2.3895  -19.6217  -42.6761 N.am      9 UNK        -0.5000 
     30 C           2.8782  -20.1169  -41.5310 C.2       8 UNK         0.5000 
     31 O           3.6565  -21.0704  -41.4789 O.2       8 UNK        -0.5000 
     32 CA          2.4663  -19.4204  -40.2234 C.3       8 UNK         0.1400 
     33 CB          3.4008  -18.2325  -39.9417 C.3       8 UNK        -0.1800 
     34 N           1.0860  -18.9326  -40.2473 N.am      8 UNK        -0.5000 
     35 C           0.1165  -19.3469  -39.4190 C.2       7 UNK         0.5000 
     36 O           0.2611  -20.2584  -38.6030 O.2       7 UNK        -0.5000 
     37 CA         -1.2383  -18.6095  -39.4699 C.3       7 UNK         0.1400 
     38 CB         -1.3639  -17.6431  -38.2815 C.3       7 UNK        -0.1800 
     39 N          -1.4469  -17.8529  -40.7023 N.am      7 UNK        -0.5000 
     40 C          -1.7899  -18.3914  -41.8789 C.2       6 UNK         0.5000 
     41 O          -2.0268  -19.5884  -42.0392 O.2       6 UNK        -0.5000 
     42 CA         -1.8693  -17.4349  -43.0857 C.3       6 UNK         0.1400 
     43 CB         -3.3268  -17.0169  -43.3336 C.3       6 UNK        -0.1800 
     44 N          -1.0388  -16.2313  -42.9818 N.am      6 UNK        -0.5000 
     45 C           0.2862  -16.2041  -42.7802 C.2       5 UNK         0.5000 
     46 O           0.9692  -17.2114  -42.6024 O.2       5 UNK        -0.5000 
     47 CA          0.9643  -14.8263  -42.7440 C.3       5 UNK         0.1400 
     48 CB          1.4789  -14.4538  -44.1415 C.3       5 UNK        -0.1800 
     49 N           0.0899  -13.7651  -42.2408 N.am      5 UNK        -0.5000 
     50 C          -0.2963  -13.6398  -40.9626 C.2       4 UNK         0.5000 
     51 O           0.0071  -14.4384  -40.0756 O.2       4 UNK        -0.5000 
     52 CA         -1.1642  -12.4150  -40.6201 C.3       4 UNK         0.1400 
     53 CB         -0.2782  -11.1934  -40.3316 C.3       4 UNK        -0.1800 
     54 N          -2.1039  -12.0845  -41.6924 N.am      4 UNK        -0.5000 
     55 C          -3.2701  -12.7147  -41.8873 C.2       3 UNK         0.5000 
     56 O          -3.7007  -13.6040  -41.1524 O.2       3 UNK        -0.5000 
     57 CA         -4.0785  -12.2992  -43.1331 C.3       3 UNK         0.1400 
     58 CB         -4.9458  -11.0679  -42.8289 C.3       3 UNK        -0.1800 
     59 N          -3.2574  -12.0341  -44.3216 N.am      3 UNK        -0.5000 
     60 C          -2.4454  -12.9318  -44.8929 C.2       2 UNK         0.5000 
     61 O          -2.2414  -14.0574  -44.4282 O.2       2 UNK        -0.5000 
     62 CA         -1.7207  -12.5116  -46.1801 C.3       2 UNK         0.1400 
     63 CB         -0.5468  -11.5641  -45.8654 C.3       2 UNK        -0.1800 
     64 N          -1.2528  -13.7451  -46.7999 N.am      2 UNK        -0.5000 
     65 C          -0.6928  -13.9255  -47.9996 C.2       1 UNK         0.5000 
     66 O          -0.4466  -13.0141  -48.7898 O.2       1 UNK        -0.5000 
     67 C          -0.1892  -22.6916  -47.9944 C.2       11 UNK         0.5000 
     68 O          -1.0990  -23.3614  -48.4782 O.2       11 UNK        -0.5000 
     69 N          -0.3853  -21.7283  -47.0816 N.am      12 UNK        -0.5000 
     70 CA         -1.6951  -21.3513  -46.5505 C.3       12 UNK         0.1400 
     71 CB         -1.5653  -20.0744  -45.7140 C.3       12 UNK        -0.1800 
     72 C          -2.3394  -22.4754  -45.7230 C.2       12 UNK         0.5000 
     73 O          -3.5372  -22.7174  -45.8670 O.2       12 UNK        -0.5000 
     74 N          -1.5274  -23.1817  -44.9228 N.am      13 UNK        -0.5000 
     75 CA         -1.9356  -24.3667  -44.1620 C.3       13 UNK         0.1400 
     76 CB         -0.7910  -24.7943  -43.2316 C.3       13 UNK        -0.1800 
     77 C          -2.3825  -25.5396  -45.0609 C.2       13 UNK         0.5000 
     78 O          -3.2842  -26.2872  -44.6819 O.2       13 UNK        -0.5000 
     79 N          -1.7772  -25.6492  -46.2511 N.am      14 UNK        -0.5000 
     80 CA         -2.1408  -26.5937  -47.3095 C.3       14 UNK         0.1400 
     81 CB         -0.8914  -26.8758  -48.1614 C.3       14 UNK        -0.1800 
     82 C          -3.3118  -26.1071  -48.1942 C.2       14 UNK         0.5000 
     83 O          -3.6869  -26.8191  -49.1265 O.2       14 UNK        -0.5000 
     84 N          -3.8571  -24.9139  -47.9071 N.am      15 UNK        -0.5000 
     85 CA         -4.9299  -24.2112  -48.6236 C.3       15 UNK         0.1400 
     86 CB         -6.2377  -25.0299  -48.6265 C.3       15 UNK        -0.1800 
     87 C          -4.5295  -23.7175  -50.0313 C.2       15 UNK         0.5000 
     88 O          -5.4007  -23.3954  -50.8403 O.2       15 UNK        -0.5000 
     89 N          -3.2219  -23.6106  -50.2904 N.am      16 UNK        -0.5000 
     90 CA         -2.6248  -23.0828  -51.5125 C.3       16 UNK         0.1400 
     91 CB         -1.3495  -23.8938  -51.8111 C.3       16 UNK        -0.1800 
     92 C          -2.3665  -21.5735  -51.3343 C.2       16 UNK         0.5000 
     93 O          -1.2200  -21.1263  -51.3526 O.2       16 UNK        -0.5000 
     94 N          -3.4539  -20.8274  -51.1043 N.am      17 UNK        -0.5000 
     95 CA         -3.4756  -19.3810  -50.8899 C.3       17 UNK         0.1400 
     96 CB         -4.8819  -18.9895  -50.4079 C.3       17 UNK        -0.1800 
     97 C          -3.0964  -18.5728  -52.1457 C.2       17 UNK         0.5000 
     98 O          -3.2181  -19.0695  -53.2685 O.2       17 UNK        -0.5000 
     99 N          -2.6949  -17.3126  -51.9296 N.am      18 UNK        -0.5000 
    100 CA        -2.2379  -16.3728  -52.9584 C.3       18 UNK         0.1400 
    101 CB        -1.6163  -15.1421  -52.2819 C.3       18 UNK        -0.1800 
    102 C         -3.3101  -15.9494  -53.9793 C.2       18 UNK         0.5000 
    103 O         -2.9538  -15.4497  -55.0472 O.2       18 UNK        -0.5000 
    104 N         -4.5929  -16.1888  -53.6758 N.am      19 UNK        -0.5000 
    105 CA        -5.7461  -15.9690  -54.5552 C.3       19 UNK         0.1400 
    106 CB        -7.0135  -15.8944  -53.6845 C.3       19 UNK        -0.1800 
    107 C         -5.8555  -17.0327  -55.6757 C.2       19 UNK         0.5000 
    108 O         -6.9290  -17.5965  -55.8918 O.2       19 UNK        -0.5000 
    109 N         -4.7260  -17.3064  -56.3447 N.am      20 UNK        -0.5000 
    110 CA        -4.4952  -18.2701  -57.4287 C.3       20 UNK         0.1400 
    111 CB        -5.3276  -17.8984  -58.6725 C.3       20 UNK        -0.1800 
    112 C         -4.6783  -19.7546  -57.0412 C.2       20 UNK         0.5000 
    113 O         -4.5693  -20.6199  -57.9122 O.2       20 UNK        -0.5000 
    114 N         -4.9211  -20.0479  -55.7564 N.am      21 UNK        -0.5000 
    115 CA        -5.2116  -21.3907  -55.2508 C.3       21 UNK         0.1400 
    116 CB        -5.8401  -21.2895  -53.8539 C.3       21 UNK        -0.1800 
    117 C         -3.9944  -22.3340  -55.2606 C.2       21 UNK         0.5000 
    118 O         -4.1861  -23.5505  -55.2623 O.2       21 UNK        -0.5000 
    119 N         -2.7758  -21.7763  -55.3062 N.am      22 UNK        -0.5000 
    120 CA        -1.5435  -22.5336  -55.5782 C.3       22 UNK         0.1400 
    121 C         -1.3309  -22.9260  -57.0732 C.2       22 UNK         0.5000 
    122 N         -2.1587  -22.4826  -58.0138 N.am      22 UNK        -0.7600 
    123 O         -0.4033  -23.6679  -57.3847 O.2       22 UNK        -0.5000 
    124 C124       -0.2898  -21.8838  -54.9370 C.3       23 UNK        -0.0398 
    125 S125        0.3266  -20.3550  -55.7284 S.3       23 UNK        -0.2404 
    126 C126        0.1774  -19.1345  -54.3775 C.3       23 UNK        -0.0205 
    127 H127       -3.0411  -17.5571  -46.3143 H         1 UNK         0.0600 
    128 H128       -3.3363  -18.5731  -47.7315 H         1 UNK         0.0600 
    129 H129       -4.4101  -17.2177  -47.3693 H         1 UNK         0.0600 
    130 H130       -0.9741  -16.7333  -46.8692 H         1 UNK         0.3000 
    131 H131       -0.5121  -15.4556  -49.4657 H         1 UNK         0.0600 
    132 H132        1.3044  -15.7060  -47.0220 H         1 UNK         0.0800 
    133 H133        1.7765  -14.9921  -48.5430 H         1 UNK         0.0800 
    134 H134        3.3118  -16.6754  -50.1929 H         1 UNK         0.0800 
    135 H135        1.7577  -16.1067  -50.7607 H         1 UNK         0.0800 
    136 H136        0.6926  -17.2548  -52.5343 H         1 UNK         0.1150 
    137 H137        1.9080  -21.2227  -53.6213 H         1 UNK         0.1150 
    138 H138        3.6527  -19.3049  -50.2253 H         1 UNK         0.1150 
    139 H139        4.6629  -21.5520  -51.8843 H         1 UNK         0.0800 
    140 H140        3.2361  -22.5109  -52.1979 H         1 UNK         0.0800 
    141 H141        1.6527  -20.9554  -49.0612 H         1 UNK         0.0800 
    142 H142        1.1933  -22.0581  -50.3333 H         1 UNK         0.0800 
    143 H143        1.2866  -23.9867  -48.8431 H         1 UNK         0.0600 
    144 H144        2.8278  -22.3584  -47.0900 H         1 UNK         0.3000 
    145 H145        2.4046  -24.2731  -44.1336 H         1 UNK         0.0600 
    146 H146        4.0753  -25.6127  -45.4214 H         1 UNK         0.0600 
    147 H147        4.8672  -24.5107  -44.3067 H         1 UNK         0.0600 
    148 H148        4.8116  -24.1349  -46.0297 H         1 UNK         0.0600 
    149 H149        4.1420  -22.1181  -44.7301 H         1 UNK         0.3000 
    150 H150        3.8258  -20.0802  -44.0971 H         1 UNK         0.0600 
    151 H151        1.0875  -19.0228  -44.9639 H         1 UNK         0.0600 
    152 H152        2.3742  -19.4791  -46.0765 H         1 UNK         0.0600 
    153 H153        2.6081  -18.1417  -44.9625 H         1 UNK         0.0600 
    154 H154        1.7765  -18.8110  -42.6399 H         1 UNK         0.3000 
    155 H155        2.6034  -20.1473  -39.4202 H         1 UNK         0.0600 
    156 H156        3.1760  -17.7762  -38.9776 H         1 UNK         0.0600 
    157 H157        3.3111  -17.4596  -40.7065 H         1 UNK         0.0600 
    158 H158        4.4438  -18.5511  -39.9153 H         1 UNK         0.0600 
    159 H159        0.8760  -18.2104  -40.9282 H         1 UNK         0.3000 
    160 H160       -2.0256  -19.3613  -39.3823 H         1 UNK         0.0600 
    161 H161       -2.3430  -17.1641  -38.2640 H         1 UNK         0.0600 
    162 H162       -0.6071  -16.8582  -38.3207 H         1 UNK         0.0600 
    163 H163       -1.2436  -18.1690  -37.3334 H         1 UNK         0.0600 
    164 H164       -1.2643  -16.8597  -40.6632 H         1 UNK         0.3000 
    165 H165       -1.5146  -17.9841  -43.9567 H         1 UNK         0.0600 
    166 H166       -3.4242  -16.4305  -44.2463 H         1 UNK         0.0600 
    167 H167       -3.9736  -17.8888  -43.4401 H         1 UNK         0.0600 
    168 H168       -3.7147  -16.4155  -42.5103 H         1 UNK         0.0600 
    169 H169       -1.5074  -15.3519  -43.1798 H         1 UNK         0.3000 
    170 H170        1.8247  -14.9017  -42.0755 H         1 UNK         0.0600 
    171 H171        2.0036  -13.4984  -44.1296 H         1 UNK         0.0600 
    172 H172        0.6656  -14.3857  -44.8627 H         1 UNK         0.0600 
    173 H173        2.1801  -15.2038  -44.5102 H         1 UNK         0.0600 
    174 H174       -0.2393  -13.0896  -42.9124 H         1 UNK         0.3000 
    175 H175       -1.7252  -12.6459  -39.7117 H         1 UNK         0.0600 
    176 H176        0.4236  -11.4030  -39.5231 H         1 UNK         0.0600 
    177 H177        0.3054  -10.9006  -41.2052 H         1 UNK         0.0600 
    178 H178       -0.8778  -10.3359  -40.0256 H         1 UNK         0.0600 
    179 H179       -1.8342  -11.3557  -42.3364 H         1 UNK         0.3000 
    180 H180       -4.7446  -13.1298  -43.3765 H         1 UNK         0.0600 
    181 H181       -4.3369  -10.1878  -42.6185 H         1 UNK         0.0600 
    182 H182       -5.5817  -11.2427  -41.9599 H         1 UNK         0.0600 
    183 H183       -5.6019  -10.8306  -43.6666 H         1 UNK         0.0600 
    184 H184       -3.3673  -11.1267  -44.7510 H         1 UNK         0.3000 
    185 H185       -2.4323  -12.0241  -46.8489 H         1 UNK         0.0600 
    186 H186       -0.8985  -10.6522  -45.3817 H         1 UNK         0.0600 
    187 H187        0.1816  -12.0263  -45.2000 H         1 UNK         0.0600 
    188 H188       -0.0231  -11.2602  -46.7714 H         1 UNK         0.0600 
    189 H189       -1.4552  -14.5549  -46.2261 H         1 UNK         0.3000 
    190 H190        0.4159  -21.2689  -46.6765 H         1 UNK         0.3000 
    191 H191       -2.3507  -21.1393  -47.3983 H         1 UNK         0.0600 
    192 H192       -1.1151  -19.2660  -46.2898 H         1 UNK         0.0600 
    193 H193       -2.5459  -19.7383  -45.3756 H         1 UNK         0.0600 
    194 H194       -0.9582  -20.2367  -44.8235 H         1 UNK         0.0600 
    195 H195       -0.5647  -22.8773  -44.8178 H         1 UNK         0.3000 
    196 H196       -2.7885  -24.0825  -43.5423 H         1 UNK         0.0600 
    197 H197        0.0853  -25.1172  -43.7929 H         1 UNK         0.0600 
    198 H198       -1.0967  -25.6261  -42.5959 H         1 UNK         0.0600 
    199 H199       -0.4873  -23.9771  -42.5767 H         1 UNK         0.0600 
    200 H200       -1.0098  -25.0215  -46.4597 H         1 UNK         0.3000 
    201 H201       -2.4537  -27.5337  -46.8507 H         1 UNK         0.0600 
    202 H202       -1.0939  -27.6331  -48.9196 H         1 UNK         0.0600 
    203 H203       -0.0705  -27.2454  -47.5465 H         1 UNK         0.0600 
    204 H204       -0.5441  -25.9806  -48.6774 H         1 UNK         0.0600 
    205 H205       -3.4710  -24.3990  -47.1245 H         1 UNK         0.3000 
    206 H206       -5.1214  -23.3068  -48.0451 H         1 UNK         0.0600 
    207 H207       -6.4972  -25.3625  -47.6214 H         1 UNK         0.0600 
    208 H208       -7.0720  -24.4312  -48.9936 H         1 UNK         0.0600 
    209 H209       -6.1661  -25.9103  -49.2652 H         1 UNK         0.0600 
    210 H210       -2.5629  -23.7869  -49.5352 H         1 UNK         0.3000 
    211 H211       -3.3105  -23.2115  -52.3523 H         1 UNK         0.0600 
    212 H212       -0.9012  -23.5975  -52.7559 H         1 UNK         0.0600 
    213 H213       -1.5720  -24.9586  -51.8832 H         1 UNK         0.0600 
    214 H214       -0.5922  -23.7664  -51.0382 H         1 UNK         0.0600 
    215 H215       -4.3502  -21.2947  -51.1060 H         1 UNK         0.3000 
    216 H216       -2.7516  -19.1493  -50.1065 H         1 UNK         0.0600 
    217 H217       -4.9460  -17.9220  -50.1944 H         1 UNK         0.0600 
    218 H218       -5.1452  -19.5163  -49.4905 H         1 UNK         0.0600 
    219 H219       -5.6421  -19.2188  -51.1559 H         1 UNK         0.0600 
    220 H220       -2.7030  -16.9525  -50.9770 H         1 UNK         0.3000 
    221 H221       -1.4548  -16.8683  -53.5320 H         1 UNK         0.0600 
    222 H222       -0.7241  -15.4156  -51.7215 H         1 UNK         0.0600 
    223 H223       -1.3121  -14.3963  -53.0176 H         1 UNK         0.0600 
    224 H224       -2.3153  -14.6619  -51.5961 H         1 UNK         0.0600 
    225 H225       -4.7858  -16.6253  -52.7869 H         1 UNK         0.3000 
    226 H226       -5.6250  -15.0022  -55.0479 H         1 UNK         0.0600 
    227 H227       -6.9290  -15.1110  -52.9311 H         1 UNK         0.0600 
    228 H228       -7.2029  -16.8369  -53.1690 H         1 UNK         0.0600 
    229 H229       -7.8927  -15.6659  -54.2883 H         1 UNK         0.0600 
    230 H230       -3.9105  -16.7662  -56.0689 H         1 UNK         0.3000 
    231 H231       -3.4429  -18.1646  -57.6961 H         1 UNK         0.0600 
    232 H232       -6.3954  -18.0379  -58.5025 H         1 UNK         0.0600 
    233 H233       -5.0518  -18.5155  -59.5285 H         1 UNK         0.0600 
    234 H234       -5.1657  -16.8594  -58.9595 H         1 UNK         0.0600 
    235 H235       -4.9262  -19.2970  -55.0806 H         1 UNK         0.3000 
    236 H236       -5.9574  -21.8378  -55.9116 H         1 UNK         0.0600 
    237 H237       -5.1807  -20.7852  -53.1532 H         1 UNK         0.0600 
    238 H238       -6.7784  -20.7355  -53.8848 H         1 UNK         0.0600 
    239 H239       -6.0587  -22.2779  -53.4472 H         1 UNK         0.0600 
    240 H240       -2.6990  -20.7693  -55.2769 H         1 UNK         0.3000 
    241 H241       -1.6550  -23.4935  -55.0705 H         1 UNK         0.0600 
    242 H242       -2.9429  -21.8800  -57.7940 H         1 UNK         0.3800 
    243 H243       -2.0029  -22.7573  -58.9707 H         1 UNK         0.3800 
    244 H244        0.5284  -22.6057  -54.9382 H         1 UNK         0.0800 
    245 H245       -0.4916  -21.6743  -53.8875 H         1 UNK         0.0800 
    246 H246        0.2389  -18.1432  -54.8286 H         1 UNK         0.0800 
    247 H247       -0.8184  -19.2196  -53.9509 H         1 UNK         0.0800 
@<TRIPOS>BOND
     1    1    2 1    
     2    1  127 1    
     3    1  128 1    
     4    1  129 1    
     5    2    3 2    
     6    2    4 am   BACKBONE|DICT|INTERRES
     7    4    5 1    
     8    4  130 1    
     9    5    6 1    
    10    5   65 1    
    11    5  131 1    
    12    6    7 1    
    13    6  132 1    
    14    6  133 1    
    15    7    8 1    
    16    8    9 1    
    17    8  134 1    
    18    8  135 1    
    19    9   10 ar   
    20    9   14 ar   
    21   10   11 ar   
    22   10  136 1    
    23   11   12 ar   
    24   11  126 1    
    25   12   13 ar   
    26   12  137 1    
    27   13   14 ar   
    28   13   15 1    
    29   14  138 1    
    30   15   16 1    
    31   15  139 1    
    32   15  140 1    
    33   16   17 1    
    34   17   18 1    
    35   17  141 1    
    36   17  142 1    
    37   18   19 1    
    38   18   67 1    
    39   18  143 1    
    40   19   20 am   BACKBONE|DICT|INTERRES
    41   19  144 1    
    42   20   21 2    
    43   20   22 1    
    44   22   23 1    
    45   22   24 1    
    46   22  145 1    
    47   23  146 1    
    48   23  147 1    
    49   23  148 1    
    50   24   25 am   BACKBONE|DICT|INTERRES
    51   24  149 1    
    52   25   26 2    
    53   25   27 1    
    54   27   28 1    
    55   27   29 1    
    56   27  150 1    
    57   28  151 1    
    58   28  152 1    
    59   28  153 1    
    60   29   30 am   BACKBONE|DICT|INTERRES
    61   29  154 1    
    62   30   31 2    
    63   30   32 1    
    64   32   33 1    
    65   32   34 1    
    66   32  155 1    
    67   33  156 1    
    68   33  157 1    
    69   33  158 1    
    70   34   35 am   BACKBONE|DICT|INTERRES
    71   34  159 1    
    72   35   36 2    
    73   35   37 1    
    74   37   38 1    
    75   37   39 1    
    76   37  160 1    
    77   38  161 1    
    78   38  162 1    
    79   38  163 1    
    80   39   40 am   BACKBONE|DICT|INTERRES
    81   39  164 1    
    82   40   41 2    
    83   40   42 1    
    84   42   43 1    
    85   42   44 1    
    86   42  165 1    
    87   43  166 1    
    88   43  167 1    
    89   43  168 1    
    90   44   45 am   BACKBONE|DICT|INTERRES
    91   44  169 1    
    92   45   46 2    
    93   45   47 1    
    94   47   48 1    
    95   47   49 1    
    96   47  170 1    
    97   48  171 1    
    98   48  172 1    
    99   48  173 1    
   100   49   50 am   BACKBONE|DICT|INTERRES
   101   49  174 1    
   102   50   51 2    
   103   50   52 1    
   104   52   53 1    
   105   52   54 1    
   106   52  175 1    
   107   53  176 1    
   108   53  177 1    
   109   53  178 1    
   110   54   55 am   BACKBONE|DICT|INTERRES
   111   54  179 1    
   112   55   56 2    
   113   55   57 1    
   114   57   58 1    
   115   57   59 1    
   116   57  180 1    
   117   58  181 1    
   118   58  182 1    
   119   58  183 1    
   120   59   60 am   BACKBONE|DICT|INTERRES
   121   59  184 1    
   122   60   61 2    
   123   60   62 1    
   124   62   63 1    
   125   62   64 1    
   126   62  185 1    
   127   63  186 1    
   128   63  187 1    
   129   63  188 1    
   130   64   65 am   BACKBONE|DICT|INTERRES
   131   64  189 1    
   132   65   66 2    
   133   67   68 2    
   134   67   69 am   BACKBONE|DICT|INTERRES
   135   69   70 1    
   136   69  190 1    
   137   70   71 1    
   138   70   72 1    
   139   70  191 1    
   140   71  192 1    
   141   71  193 1    
   142   71  194 1    
   143   72   73 2    
   144   72   74 am   BACKBONE|DICT|INTERRES
   145   74   75 1    
   146   74  195 1    
   147   75   76 1    
   148   75   77 1    
   149   75  196 1    
   150   76  197 1    
   151   76  198 1    
   152   76  199 1    
   153   77   78 2    
   154   77   79 am   BACKBONE|DICT|INTERRES
   155   79   80 1    
   156   79  200 1    
   157   80   81 1    
   158   80   82 1    
   159   80  201 1    
   160   81  202 1    
   161   81  203 1    
   162   81  204 1    
   163   82   83 2    
   164   82   84 am   BACKBONE|DICT|INTERRES
   165   84   85 1    
   166   84  205 1    
   167   85   86 1    
   168   85   87 1    
   169   85  206 1    
   170   86  207 1    
   171   86  208 1    
   172   86  209 1    
   173   87   88 2    
   174   87   89 am   BACKBONE|DICT|INTERRES
   175   89   90 1    
   176   89  210 1    
   177   90   91 1    
   178   90   92 1    
   179   90  211 1    
   180   91  212 1    
   181   91  213 1    
   182   91  214 1    
   183   92   93 2    
   184   92   94 am   BACKBONE|DICT|INTERRES
   185   94   95 1    
   186   94  215 1    
   187   95   96 1    
   188   95   97 1    
   189   95  216 1    
   190   96  217 1    
   191   96  218 1    
   192   96  219 1    
   193   97   98 2    
   194   97   99 am   BACKBONE|DICT|INTERRES
   195   99  100 1    
   196   99  220 1    
   197  100  101 1    
   198  100  102 1    
   199  100  221 1    
   200  101  222 1    
   201  101  223 1    
   202  101  224 1    
   203  102  103 2    
   204  102  104 am   BACKBONE|DICT|INTERRES
   205  104  105 1    
   206  104  225 1    
   207  105  106 1    
   208  105  107 1    
   209  105  226 1    
   210  106  227 1    
   211  106  228 1    
   212  106  229 1    
   213  107  108 2    
   214  107  109 am   BACKBONE|DICT|INTERRES
   215  109  110 1    
   216  109  230 1    
   217  110  111 1    
   218  110  112 1    
   219  110  231 1    
   220  111  232 1    
   221  111  233 1    
   222  111  234 1    
   223  112  113 2    
   224  112  114 am   BACKBONE|DICT|INTERRES
   225  114  115 1    
   226  114  235 1    
   227  115  116 1    
   228  115  117 1    
   229  115  236 1    
   230  116  237 1    
   231  116  238 1    
   232  116  239 1    
   233  117  118 2    
   234  117  119 am   BACKBONE|DICT|INTERRES
   235  119  120 1    
   236  119  240 1    
   237  120  121 1    
   238  120  124 1    
   239  120  241 1    
   240  121  122 am   BACKBONE|DICT|INTERRES
   241  121  123 2    
   242  122  242 1    
   243  122  243 1    
   244  124  125 1    
   245  124  244 1    
   246  124  245 1    
   247  125  126 1    
   248  126  246 1    
   249  126  247 1    
@<TRIPOS>SUBSTRUCTURE
     1 UNK         1 GROUP             0       ****    0 ROOT    
