@<TRIPOS>MOLECULE
3R540
247   249    1
SMALL
USER_CHARGES


@<TRIPOS>ATOM
      1 CA          5.3262  -11.4199  -47.8783 C.3       0 UNK        -0.1800 
      2 C           4.1500  -11.9437  -47.0692 C.2       0 UNK         0.5000 
      3 O           3.8073  -11.3637  -46.0386 O.2       0 UNK        -0.5000 
      4 N           3.5112  -13.0238  -47.5387 N.am      1 UNK        -0.5000 
      5 CA          2.3821  -13.7046  -46.8861 C.3       1 UNK         0.1400 
      6 C6          2.0773  -15.0785  -47.5308 C.3       23 UNK        -0.0398 
      7 S7          1.7153  -15.0037  -49.3203 S.3       23 UNK        -0.2404 
      8 C8         -0.0904  -15.2419  -49.3751 C.3       23 UNK        -0.0205 
      9 C9         -0.4573  -16.3086  -50.3942 C.ar      23 UNK        -0.0193 
     10 C10        -0.5337  -15.9834  -51.7513 C.ar      23 UNK        -0.1150 
     11 C11        -0.8364  -16.9640  -52.6996 C.ar      23 UNK        -0.0193 
     12 C12        -1.0677  -18.2781  -52.2819 C.ar      23 UNK        -0.1150 
     13 C13        -0.9952  -18.6164  -50.9270 C.ar      23 UNK        -0.0193 
     14 C14        -0.6995  -17.6242  -49.9871 C.ar      23 UNK        -0.1150 
     15 C15        -1.2178  -20.0564  -50.4877 C.3       23 UNK        -0.0205 
     16 S16         0.3656  -20.9032  -50.1744 S.3       23 UNK        -0.2404 
     17 C17         0.5428  -20.7046  -48.3648 C.3       23 UNK        -0.0398 
     18 CA          0.3834  -22.0317  -47.5821 C.3       11 UNK         0.1400 
     19 N           0.7005  -21.8701  -46.1617 N.am      11 UNK        -0.5000 
     20 C           0.7880  -22.8725  -45.2749 C.2       10 UNK         0.5000 
     21 O           0.6770  -24.0627  -45.5711 O.2       10 UNK        -0.5000 
     22 CA          0.9796  -22.4757  -43.7996 C.3       10 UNK         0.1400 
     23 CB          2.4488  -22.1349  -43.5114 C.3       10 UNK        -0.1800 
     24 N           0.1218  -21.3569  -43.4019 N.am      10 UNK        -0.5000 
     25 C          -1.2191  -21.3973  -43.3977 C.2       9 UNK         0.5000 
     26 O          -1.8725  -22.4002  -43.6822 O.2       9 UNK        -0.5000 
     27 CA         -1.9587  -20.0875  -43.0716 C.3       9 UNK         0.1400 
     28 CB         -1.9913  -19.8362  -41.5570 C.3       9 UNK        -0.1800 
     29 N          -1.3798  -18.9296  -43.7522 N.am      9 UNK        -0.5000 
     30 C          -1.3229  -18.7758  -45.0828 C.2       8 UNK         0.5000 
     31 O          -1.7942  -19.5763  -45.8888 O.2       8 UNK        -0.5000 
     32 CA         -0.5569  -17.5490  -45.6034 C.3       8 UNK         0.1400 
     33 CB         -1.4300  -16.2892  -45.5285 C.3       8 UNK        -0.1800 
     34 N           0.7055  -17.3474  -44.8892 N.am      8 UNK        -0.5000 
     35 C           1.7319  -18.2111  -44.9344 C.2       7 UNK         0.5000 
     36 O           1.7475  -19.2134  -45.6482 O.2       7 UNK        -0.5000 
     37 CA          2.9122  -17.9459  -43.9861 C.3       7 UNK         0.1400 
     38 CB          3.9465  -17.0140  -44.6358 C.3       7 UNK        -0.1800 
     39 N           2.4617  -17.3893  -42.7105 N.am      7 UNK        -0.5000 
     40 C           1.8434  -18.1059  -41.7597 C.2       6 UNK         0.5000 
     41 O           1.6318  -19.3149  -41.8520 O.2       6 UNK        -0.5000 
     42 CA          1.3395  -17.3433  -40.5183 C.3       6 UNK         0.1400 
     43 CB          2.4497  -17.2413  -39.4623 C.3       6 UNK        -0.1800 
     44 N           0.8472  -16.0011  -40.8318 N.am      6 UNK        -0.5000 
     45 C          -0.2196  -15.7424  -41.6010 C.2       5 UNK         0.5000 
     46 O          -0.9492  -16.6194  -42.0620 O.2       5 UNK        -0.5000 
     47 CA         -0.4859  -14.2663  -41.9634 C.3       5 UNK         0.1400 
     48 CB         -1.5070  -13.6515  -40.9956 C.3       5 UNK        -0.1800 
     49 N           0.7135  -13.4212  -41.9975 N.am      5 UNK        -0.5000 
     50 C           1.7946  -13.6416  -42.7562 C.2       4 UNK         0.5000 
     51 O           1.9150  -14.6184  -43.4971 O.2       4 UNK        -0.5000 
     52 CA          2.9226  -12.5999  -42.6593 C.3       4 UNK         0.1400 
     53 CB          4.2816  -13.1683  -43.1064 C.3       4 UNK        -0.1800 
     54 N           2.6093  -11.4248  -43.4669 N.am      4 UNK        -0.5000 
     55 C           1.7918  -10.4288  -43.0993 C.2       3 UNK         0.5000 
     56 O           1.2136  -10.3880  -42.0121 O.2       3 UNK        -0.5000 
     57 CA          1.5757   -9.3000  -44.1202 C.3       3 UNK         0.1400 
     58 CB          2.8107   -8.3878  -44.1932 C.3       3 UNK        -0.1800 
     59 N           1.3062   -9.8547  -45.4452 N.am      3 UNK        -0.5000 
     60 C           0.0913   -9.9508  -46.0037 C.2       2 UNK         0.5000 
     61 O          -0.9336   -9.4890  -45.5005 O.2       2 UNK        -0.5000 
     62 CA         -0.0039  -10.7037  -47.3484 C.3       2 UNK         0.1400 
     63 CB          0.0996   -9.7224  -48.5255 C.3       2 UNK        -0.1800 
     64 N           1.0207  -11.7379  -47.4995 N.am      2 UNK        -0.5000 
     65 C           1.1114  -12.8363  -46.7363 C.2       1 UNK         0.5000 
     66 O           0.2584  -13.1505  -45.9081 O.2       1 UNK        -0.5000 
     67 C          -1.0082  -22.6687  -47.7762 C.2       11 UNK         0.5000 
     68 O          -1.1173  -23.6574  -48.4985 O.2       11 UNK        -0.5000 
     69 N          -2.0313  -22.1311  -47.0967 N.am      12 UNK        -0.5000 
     70 CA         -3.4021  -22.6423  -47.1311 C.3       12 UNK         0.1400 
     71 CB         -4.3310  -21.6983  -46.3550 C.3       12 UNK        -0.1800 
     72 C          -3.5227  -24.0846  -46.6084 C.2       12 UNK         0.5000 
     73 O          -4.2481  -24.8803  -47.2022 O.2       12 UNK        -0.5000 
     74 N          -2.7872  -24.4143  -45.5377 N.am      13 UNK        -0.5000 
     75 CA         -2.6922  -25.7671  -44.9890 C.3       13 UNK         0.1400 
     76 CB         -1.9268  -25.7390  -43.6575 C.3       13 UNK        -0.1800 
     77 C          -2.0496  -26.7570  -45.9779 C.2       13 UNK         0.5000 
     78 O          -2.6037  -27.8342  -46.2005 O.2       13 UNK        -0.5000 
     79 N          -0.9242  -26.3582  -46.5887 N.am      14 UNK        -0.5000 
     80 CA         -0.2129  -27.1312  -47.6110 C.3       14 UNK         0.1400 
     81 CB          1.1306  -26.4534  -47.9198 C.3       14 UNK        -0.1800 
     82 C          -1.0338  -27.3287  -48.9008 C.2       14 UNK         0.5000 
     83 O          -0.9867  -28.4055  -49.4959 O.2       14 UNK        -0.5000 
     84 N          -1.7951  -26.2978  -49.2872 N.am      15 UNK        -0.5000 
     85 CA         -2.6975  -26.2849  -50.4388 C.3       15 UNK         0.1400 
     86 CB         -2.8985  -24.8275  -50.8835 C.3       15 UNK        -0.1800 
     87 C          -4.0539  -26.9757  -50.1773 C.2       15 UNK         0.5000 
     88 O          -4.8861  -27.0073  -51.0836 O.2       15 UNK        -0.5000 
     89 N          -4.2645  -27.5089  -48.9640 N.am      16 UNK        -0.5000 
     90 CA         -5.4591  -28.2246  -48.5033 C.3       16 UNK         0.1400 
     91 CB         -5.6276  -29.5577  -49.2622 C.3       16 UNK        -0.1800 
     92 C          -6.7272  -27.3450  -48.5226 C.2       16 UNK         0.5000 
     93 O          -7.7615  -27.7475  -49.0575 O.2       16 UNK        -0.5000 
     94 N          -6.6017  -26.1501  -47.9308 N.am      17 UNK        -0.5000 
     95 CA         -7.6113  -25.1021  -47.7445 C.3       17 UNK         0.1400 
     96 CB         -8.8841  -25.6385  -47.0563 C.3       17 UNK        -0.1800 
     97 C          -7.9220  -24.2771  -49.0092 C.2       17 UNK         0.5000 
     98 O          -8.7906  -23.4044  -48.9542 O.2       17 UNK        -0.5000 
     99 N          -7.1960  -24.5175  -50.1087 N.am      18 UNK        -0.5000 
    100 CA        -7.1971  -23.6571  -51.2914 C.3       18 UNK         0.1400 
    101 CB        -6.7239  -24.4684  -52.5068 C.3       18 UNK        -0.1800 
    102 C         -6.3035  -22.4212  -51.0680 C.2       18 UNK         0.5000 
    103 O         -5.4399  -22.4269  -50.1880 O.2       18 UNK        -0.5000 
    104 N         -6.5152  -21.3869  -51.8840 N.am      19 UNK        -0.5000 
    105 CA        -5.7651  -20.1353  -51.8791 C.3       19 UNK         0.1400 
    106 CB        -6.3200  -19.1960  -50.7920 C.3       19 UNK        -0.1800 
    107 C         -5.8552  -19.5030  -53.2760 C.2       19 UNK         0.5000 
    108 O         -6.6418  -19.9672  -54.1066 O.2       19 UNK        -0.5000 
    109 N         -5.0437  -18.4599  -53.5058 N.am      20 UNK        -0.5000 
    110 CA        -4.9242  -17.6990  -54.7592 C.3       20 UNK         0.1400 
    111 CB        -6.2369  -16.9554  -55.0855 C.3       20 UNK        -0.1800 
    112 C         -4.3994  -18.5464  -55.9413 C.2       20 UNK         0.5000 
    113 O         -4.7493  -18.2913  -57.0942 O.2       20 UNK        -0.5000 
    114 N         -3.5542  -19.5387  -55.6278 N.am      21 UNK        -0.5000 
    115 CA        -2.9585  -20.4804  -56.5809 C.3       21 UNK         0.1400 
    116 CB        -2.4908  -21.7207  -55.8015 C.3       21 UNK        -0.1800 
    117 C         -1.7943  -19.8874  -57.4037 C.2       21 UNK         0.5000 
    118 O         -1.3607  -20.5131  -58.3722 O.2       21 UNK        -0.5000 
    119 N         -1.2951  -18.7171  -56.9887 N.am      22 UNK        -0.5000 
    120 CA        -0.1942  -17.9626  -57.6060 C.3       22 UNK         0.1400 
    121 C         -0.4766  -17.5617  -59.0816 C.2       22 UNK         0.5000 
    122 N          0.5100  -17.6684  -59.9613 N.am      22 UNK        -0.7600 
    123 O         -1.5669  -17.1094  -59.4240 O.2       22 UNK        -0.5000 
    124 C124        0.1559  -16.7017  -56.7736 C.3       23 UNK        -0.0398 
    125 S125        0.6135  -17.0872  -55.0480 S.3       23 UNK        -0.2404 
    126 C126       -0.9086  -16.6074  -54.1747 C.3       23 UNK        -0.0205 
    127 H127        5.1388  -10.3921  -48.1889 H         1 UNK         0.0600 
    128 H128        5.5034  -12.0197  -48.7713 H         1 UNK         0.0600 
    129 H129        6.2320  -11.4344  -47.2723 H         1 UNK         0.0600 
    130 H130        3.8184  -13.4407  -48.4067 H         1 UNK         0.3000 
    131 H131        2.7085  -13.9083  -45.8668 H         1 UNK         0.0600 
    132 H132        2.9455  -15.7270  -47.4081 H         1 UNK         0.0800 
    133 H133        1.2737  -15.5851  -46.9982 H         1 UNK         0.0800 
    134 H134       -0.5652  -14.2955  -49.6385 H         1 UNK         0.0800 
    135 H135       -0.4841  -15.5130  -48.3957 H         1 UNK         0.0800 
    136 H136       -0.3401  -14.9683  -52.0691 H         1 UNK         0.1150 
    137 H137       -1.2838  -19.0413  -53.0161 H         1 UNK         0.1150 
    138 H138       -0.6363  -17.8804  -48.9410 H         1 UNK         0.1150 
    139 H139       -1.8579  -20.0895  -49.6046 H         1 UNK         0.0800 
    140 H140       -1.7535  -20.6063  -51.2629 H         1 UNK         0.0800 
    141 H141        1.5368  -20.2936  -48.1836 H         1 UNK         0.0800 
    142 H142       -0.1561  -19.9556  -47.9942 H         1 UNK         0.0800 
    143 H143        1.1148  -22.7366  -47.9835 H         1 UNK         0.0600 
    144 H144        0.8560  -20.9189  -45.8405 H         1 UNK         0.3000 
    145 H145        0.7059  -23.3370  -43.1868 H         1 UNK         0.0600 
    146 H146        2.6032  -21.9177  -42.4544 H         1 UNK         0.0600 
    147 H147        3.1006  -22.9701  -43.7706 H         1 UNK         0.0600 
    148 H148        2.7820  -21.2691  -44.0834 H         1 UNK         0.0600 
    149 H149        0.5891  -20.5095  -43.0965 H         1 UNK         0.3000 
    150 H150       -2.9884  -20.1932  -43.4190 H         1 UNK         0.0600 
    151 H151       -2.4523  -20.6741  -41.0327 H         1 UNK         0.0600 
    152 H152       -2.5703  -18.9439  -41.3182 H         1 UNK         0.0600 
    153 H153       -0.9900  -19.7035  -41.1475 H         1 UNK         0.0600 
    154 H154       -1.0206  -18.1862  -43.1596 H         1 UNK         0.3000 
    155 H155       -0.3166  -17.7283  -46.6522 H         1 UNK         0.0600 
    156 H156       -1.7214  -16.0519  -44.5064 H         1 UNK         0.0600 
    157 H157       -2.3464  -16.4190  -46.1056 H         1 UNK         0.0600 
    158 H158       -0.9135  -15.4244  -45.9377 H         1 UNK         0.0600 
    159 H159        0.7745  -16.5432  -44.2791 H         1 UNK         0.3000 
    160 H160        3.4042  -18.9006  -43.7894 H         1 UNK         0.0600 
    161 H161        3.5185  -16.0492  -44.9030 H         1 UNK         0.0600 
    162 H162        4.3451  -17.4562  -45.5497 H         1 UNK         0.0600 
    163 H163        4.7886  -16.8326  -43.9680 H         1 UNK         0.0600 
    164 H164        2.5166  -16.3821  -42.6167 H         1 UNK         0.3000 
    165 H165        0.5125  -17.9142  -40.0912 H         1 UNK         0.0600 
    166 H166        2.0832  -16.7736  -38.5483 H         1 UNK         0.0600 
    167 H167        2.8232  -18.2302  -39.1926 H         1 UNK         0.0600 
    168 H168        3.2973  -16.6572  -39.8230 H         1 UNK         0.0600 
    169 H169        1.3909  -15.2227  -40.4901 H         1 UNK         0.3000 
    170 H170       -0.9157  -14.2531  -42.9669 H         1 UNK         0.0600 
    171 H171       -2.4245  -14.2411  -40.9685 H         1 UNK         0.0600 
    172 H172       -1.1172  -13.6022  -39.9781 H         1 UNK         0.0600 
    173 H173       -1.7806  -12.6411  -41.3005 H         1 UNK         0.0600 
    174 H174        0.6786  -12.5626  -41.4627 H         1 UNK         0.3000 
    175 H175        3.0190  -12.3025  -41.6130 H         1 UNK         0.0600 
    176 H176        4.2795  -13.4572  -44.1572 H         1 UNK         0.0600 
    177 H177        5.0775  -12.4369  -42.9661 H         1 UNK         0.0600 
    178 H178        4.5457  -14.0524  -42.5247 H         1 UNK         0.0600 
    179 H179        3.0457  -11.3877  -44.3853 H         1 UNK         0.3000 
    180 H180        0.7326   -8.6956  -43.7792 H         1 UNK         0.0600 
    181 H181        3.6949   -8.9263  -44.5367 H         1 UNK         0.0600 
    182 H182        3.0420   -7.9652  -43.2146 H         1 UNK         0.0600 
    183 H183        2.6422   -7.5546  -44.8756 H         1 UNK         0.0600 
    184 H184        2.0914  -10.2971  -45.9098 H         1 UNK         0.3000 
    185 H185       -0.9820  -11.1877  -47.3890 H         1 UNK         0.0600 
    186 H186       -0.6682   -8.9505  -48.4586 H         1 UNK         0.0600 
    187 H187        1.0681   -9.2211  -48.5476 H         1 UNK         0.0600 
    188 H188       -0.0371  -10.2334  -49.4787 H         1 UNK         0.0600 
    189 H189        1.7591  -11.5568  -48.1635 H         1 UNK         0.3000 
    190 H190       -1.8725  -21.2968  -46.5356 H         1 UNK         0.3000 
    191 H191       -3.7204  -22.6461  -48.1746 H         1 UNK         0.0600 
    192 H192       -4.0444  -21.6244  -45.3057 H         1 UNK         0.0600 
    193 H193       -5.3631  -22.0491  -46.3929 H         1 UNK         0.0600 
    194 H194       -4.3133  -20.6941  -46.7789 H         1 UNK         0.0600 
    195 H195       -2.2614  -23.6878  -45.0593 H         1 UNK         0.3000 
    196 H196       -3.7073  -26.1144  -44.7856 H         1 UNK         0.0600 
    197 H197       -1.8570  -26.7381  -43.2258 H         1 UNK         0.0600 
    198 H198       -2.4302  -25.1038  -42.9285 H         1 UNK         0.0600 
    199 H199       -0.9113  -25.3628  -43.7818 H         1 UNK         0.0600 
    200 H200       -0.5212  -25.4599  -46.3375 H         1 UNK         0.3000 
    201 H201       -0.0067  -28.1201  -47.1966 H         1 UNK         0.0600 
    202 H202        1.7501  -26.3821  -47.0256 H         1 UNK         0.0600 
    203 H203        0.9921  -25.4447  -48.3104 H         1 UNK         0.0600 
    204 H204        1.6936  -27.0200  -48.6624 H         1 UNK         0.0600 
    205 H205       -1.7116  -25.4200  -48.7789 H         1 UNK         0.3000 
    206 H206       -2.2177  -26.8223  -51.2591 H         1 UNK         0.0600 
    207 H207       -1.9440  -24.3356  -51.0719 H         1 UNK         0.0600 
    208 H208       -3.4730  -24.7706  -51.8071 H         1 UNK         0.0600 
    209 H209       -3.4276  -24.2500  -50.1250 H         1 UNK         0.0600 
    210 H210       -3.5337  -27.3987  -48.2725 H         1 UNK         0.3000 
    211 H211       -5.2772  -28.4692  -47.4557 H         1 UNK         0.0600 
    212 H212       -5.8544  -29.4012  -50.3172 H         1 UNK         0.0600 
    213 H213       -6.4415  -30.1468  -48.8380 H         1 UNK         0.0600 
    214 H214       -4.7231  -30.1627  -49.1998 H         1 UNK         0.0600 
    215 H215       -5.6733  -25.8821  -47.6028 H         1 UNK         0.3000 
    216 H216       -7.1521  -24.3955  -47.0516 H         1 UNK         0.0600 
    217 H217       -9.5337  -24.8190  -46.7469 H         1 UNK         0.0600 
    218 H218       -8.6392  -26.2111  -46.1617 H         1 UNK         0.0600 
    219 H219       -9.4676  -26.2783  -47.7185 H         1 UNK         0.0600 
    220 H220       -6.4832  -25.2322  -50.0686 H         1 UNK         0.3000 
    221 H221       -8.2167  -23.3165  -51.4845 H         1 UNK         0.0600 
    222 H222       -5.6919  -24.7965  -52.3965 H         1 UNK         0.0600 
    223 H223       -7.3411  -25.3549  -52.6539 H         1 UNK         0.0600 
    224 H224       -6.7822  -23.8768  -53.4211 H         1 UNK         0.0600 
    225 H225       -7.1880  -21.4566  -52.6380 H         1 UNK         0.3000 
    226 H226       -4.7127  -20.3466  -51.6763 H         1 UNK         0.0600 
    227 H227       -6.2417  -19.6467  -49.8024 H         1 UNK         0.0600 
    228 H228       -5.7686  -18.2558  -50.7600 H         1 UNK         0.0600 
    229 H229       -7.3695  -18.9570  -50.9680 H         1 UNK         0.0600 
    230 H230       -4.4454  -18.1471  -52.7537 H         1 UNK         0.3000 
    231 H231       -4.1655  -16.9374  -54.5771 H         1 UNK         0.0600 
    232 H232       -6.5791  -16.3673  -54.2340 H         1 UNK         0.0600 
    233 H233       -7.0368  -17.6425  -55.3623 H         1 UNK         0.0600 
    234 H234       -6.0984  -16.2658  -55.9190 H         1 UNK         0.0600 
    235 H235       -3.3372  -19.6897  -54.6545 H         1 UNK         0.3000 
    236 H236       -3.7300  -20.7925  -57.2880 H         1 UNK         0.0600 
    237 H237       -2.0767  -22.4733  -56.4739 H         1 UNK         0.0600 
    238 H238       -1.7179  -21.4707  -55.0735 H         1 UNK         0.0600 
    239 H239       -3.3188  -22.1869  -55.2670 H         1 UNK         0.0600 
    240 H240       -1.7256  -18.2876  -56.1872 H         1 UNK         0.3000 
    241 H241        0.6755  -18.6225  -57.5991 H         1 UNK         0.0600 
    242 H242        0.3446  -17.3962  -60.9182 H         1 UNK         0.3800 
    243 H243        1.4156  -18.0288  -59.7013 H         1 UNK         0.3800 
    244 H244       -0.6718  -15.9901  -56.7840 H         1 UNK         0.0800 
    245 H245        1.0032  -16.1805  -57.2230 H         1 UNK         0.0800 
    246 H246       -1.7642  -17.1083  -54.6246 H         1 UNK         0.0800 
    247 H247       -1.0755  -15.5362  -54.3006 H         1 UNK         0.0800 
@<TRIPOS>BOND
     1    1    2 1    
     2    1  127 1    
     3    1  128 1    
     4    1  129 1    
     5    2    3 2    
     6    2    4 am   BACKBONE|DICT|INTERRES
     7    4    5 1    
     8    4  130 1    
     9    5    6 1    
    10    5   65 1    
    11    5  131 1    
    12    6    7 1    
    13    6  132 1    
    14    6  133 1    
    15    7    8 1    
    16    8    9 1    
    17    8  134 1    
    18    8  135 1    
    19    9   10 ar   
    20    9   14 ar   
    21   10   11 ar   
    22   10  136 1    
    23   11   12 ar   
    24   11  126 1    
    25   12   13 ar   
    26   12  137 1    
    27   13   14 ar   
    28   13   15 1    
    29   14  138 1    
    30   15   16 1    
    31   15  139 1    
    32   15  140 1    
    33   16   17 1    
    34   17   18 1    
    35   17  141 1    
    36   17  142 1    
    37   18   19 1    
    38   18   67 1    
    39   18  143 1    
    40   19   20 am   BACKBONE|DICT|INTERRES
    41   19  144 1    
    42   20   21 2    
    43   20   22 1    
    44   22   23 1    
    45   22   24 1    
    46   22  145 1    
    47   23  146 1    
    48   23  147 1    
    49   23  148 1    
    50   24   25 am   BACKBONE|DICT|INTERRES
    51   24  149 1    
    52   25   26 2    
    53   25   27 1    
    54   27   28 1    
    55   27   29 1    
    56   27  150 1    
    57   28  151 1    
    58   28  152 1    
    59   28  153 1    
    60   29   30 am   BACKBONE|DICT|INTERRES
    61   29  154 1    
    62   30   31 2    
    63   30   32 1    
    64   32   33 1    
    65   32   34 1    
    66   32  155 1    
    67   33  156 1    
    68   33  157 1    
    69   33  158 1    
    70   34   35 am   BACKBONE|DICT|INTERRES
    71   34  159 1    
    72   35   36 2    
    73   35   37 1    
    74   37   38 1    
    75   37   39 1    
    76   37  160 1    
    77   38  161 1    
    78   38  162 1    
    79   38  163 1    
    80   39   40 am   BACKBONE|DICT|INTERRES
    81   39  164 1    
    82   40   41 2    
    83   40   42 1    
    84   42   43 1    
    85   42   44 1    
    86   42  165 1    
    87   43  166 1    
    88   43  167 1    
    89   43  168 1    
    90   44   45 am   BACKBONE|DICT|INTERRES
    91   44  169 1    
    92   45   46 2    
    93   45   47 1    
    94   47   48 1    
    95   47   49 1    
    96   47  170 1    
    97   48  171 1    
    98   48  172 1    
    99   48  173 1    
   100   49   50 am   BACKBONE|DICT|INTERRES
   101   49  174 1    
   102   50   51 2    
   103   50   52 1    
   104   52   53 1    
   105   52   54 1    
   106   52  175 1    
   107   53  176 1    
   108   53  177 1    
   109   53  178 1    
   110   54   55 am   BACKBONE|DICT|INTERRES
   111   54  179 1    
   112   55   56 2    
   113   55   57 1    
   114   57   58 1    
   115   57   59 1    
   116   57  180 1    
   117   58  181 1    
   118   58  182 1    
   119   58  183 1    
   120   59   60 am   BACKBONE|DICT|INTERRES
   121   59  184 1    
   122   60   61 2    
   123   60   62 1    
   124   62   63 1    
   125   62   64 1    
   126   62  185 1    
   127   63  186 1    
   128   63  187 1    
   129   63  188 1    
   130   64   65 am   BACKBONE|DICT|INTERRES
   131   64  189 1    
   132   65   66 2    
   133   67   68 2    
   134   67   69 am   BACKBONE|DICT|INTERRES
   135   69   70 1    
   136   69  190 1    
   137   70   71 1    
   138   70   72 1    
   139   70  191 1    
   140   71  192 1    
   141   71  193 1    
   142   71  194 1    
   143   72   73 2    
   144   72   74 am   BACKBONE|DICT|INTERRES
   145   74   75 1    
   146   74  195 1    
   147   75   76 1    
   148   75   77 1    
   149   75  196 1    
   150   76  197 1    
   151   76  198 1    
   152   76  199 1    
   153   77   78 2    
   154   77   79 am   BACKBONE|DICT|INTERRES
   155   79   80 1    
   156   79  200 1    
   157   80   81 1    
   158   80   82 1    
   159   80  201 1    
   160   81  202 1    
   161   81  203 1    
   162   81  204 1    
   163   82   83 2    
   164   82   84 am   BACKBONE|DICT|INTERRES
   165   84   85 1    
   166   84  205 1    
   167   85   86 1    
   168   85   87 1    
   169   85  206 1    
   170   86  207 1    
   171   86  208 1    
   172   86  209 1    
   173   87   88 2    
   174   87   89 am   BACKBONE|DICT|INTERRES
   175   89   90 1    
   176   89  210 1    
   177   90   91 1    
   178   90   92 1    
   179   90  211 1    
   180   91  212 1    
   181   91  213 1    
   182   91  214 1    
   183   92   93 2    
   184   92   94 am   BACKBONE|DICT|INTERRES
   185   94   95 1    
   186   94  215 1    
   187   95   96 1    
   188   95   97 1    
   189   95  216 1    
   190   96  217 1    
   191   96  218 1    
   192   96  219 1    
   193   97   98 2    
   194   97   99 am   BACKBONE|DICT|INTERRES
   195   99  100 1    
   196   99  220 1    
   197  100  101 1    
   198  100  102 1    
   199  100  221 1    
   200  101  222 1    
   201  101  223 1    
   202  101  224 1    
   203  102  103 2    
   204  102  104 am   BACKBONE|DICT|INTERRES
   205  104  105 1    
   206  104  225 1    
   207  105  106 1    
   208  105  107 1    
   209  105  226 1    
   210  106  227 1    
   211  106  228 1    
   212  106  229 1    
   213  107  108 2    
   214  107  109 am   BACKBONE|DICT|INTERRES
   215  109  110 1    
   216  109  230 1    
   217  110  111 1    
   218  110  112 1    
   219  110  231 1    
   220  111  232 1    
   221  111  233 1    
   222  111  234 1    
   223  112  113 2    
   224  112  114 am   BACKBONE|DICT|INTERRES
   225  114  115 1    
   226  114  235 1    
   227  115  116 1    
   228  115  117 1    
   229  115  236 1    
   230  116  237 1    
   231  116  238 1    
   232  116  239 1    
   233  117  118 2    
   234  117  119 am   BACKBONE|DICT|INTERRES
   235  119  120 1    
   236  119  240 1    
   237  120  121 1    
   238  120  124 1    
   239  120  241 1    
   240  121  122 am   BACKBONE|DICT|INTERRES
   241  121  123 2    
   242  122  242 1    
   243  122  243 1    
   244  124  125 1    
   245  124  244 1    
   246  124  245 1    
   247  125  126 1    
   248  126  246 1    
   249  126  247 1    
@<TRIPOS>SUBSTRUCTURE
     1 UNK         1 GROUP             0       ****    0 ROOT    
