@<TRIPOS>MOLECULE
3R540
247   249    1
SMALL
USER_CHARGES


@<TRIPOS>ATOM
      1 CA         -1.5450  -15.3589  -47.0785 C.3       0 UNK        -0.1800 
      2 C          -0.8759  -14.0944  -47.6012 C.2       0 UNK         0.5000 
      3 O          -1.2682  -12.9912  -47.2220 O.2       0 UNK        -0.5000 
      4 N           0.1479  -14.2511  -48.4517 N.am      1 UNK        -0.5000 
      5 CA          0.8790  -13.1710  -49.1348 C.3       1 UNK         0.1400 
      6 C6          1.8704  -13.7354  -50.1819 C.3       23 UNK        -0.0398 
      7 S7          1.0103  -14.5661  -51.5606 S.3       23 UNK        -0.2404 
      8 C8          2.2437  -15.7930  -52.0989 C.3       23 UNK        -0.0205 
      9 C9          1.8643  -17.1987  -51.6594 C.ar      23 UNK        -0.0193 
     10 C10         0.9231  -17.9239  -52.3961 C.ar      23 UNK        -0.1150 
     11 C11         0.5656  -19.2204  -52.0160 C.ar      23 UNK        -0.0193 
     12 C12         1.1673  -19.7954  -50.8941 C.ar      23 UNK        -0.1150 
     13 C13         2.1207  -19.0874  -50.1563 C.ar      23 UNK        -0.0193 
     14 C14         2.4637  -17.7866  -50.5413 C.ar      23 UNK        -0.1150 
     15 C15         2.7914  -19.7438  -48.9577 C.3       23 UNK        -0.0205 
     16 S16         2.4191  -18.9093  -47.3836 S.3       23 UNK        -0.2404 
     17 C17         0.5937  -18.9429  -47.3366 C.3       23 UNK        -0.0398 
     18 CA         -0.0070  -20.3149  -46.9644 C.3       11 UNK         0.1400 
     19 N           0.5208  -20.8676  -45.7095 N.am      11 UNK        -0.5000 
     20 C           0.3076  -22.1296  -45.3079 C.2       10 UNK         0.5000 
     21 O          -0.3104  -22.9470  -45.9931 O.2       10 UNK        -0.5000 
     22 CA          0.7670  -22.5234  -43.8900 C.3       10 UNK         0.1400 
     23 CB          1.1341  -24.0174  -43.7689 C.3       10 UNK        -0.1800 
     24 N           1.8097  -21.6581  -43.3331 N.am      10 UNK        -0.5000 
     25 C           3.1009  -21.5823  -43.6903 C.2       9 UNK         0.5000 
     26 O           3.6018  -22.2613  -44.5874 O.2       9 UNK        -0.5000 
     27 CA          3.9935  -20.5854  -42.9170 C.3       9 UNK         0.1400 
     28 CB          4.7263  -19.6372  -43.8811 C.3       9 UNK        -0.1800 
     29 N           3.2494  -19.7880  -41.9374 N.am      9 UNK        -0.5000 
     30 C           2.9607  -20.1658  -40.6844 C.2       8 UNK         0.5000 
     31 O           3.3564  -21.2183  -40.1829 O.2       8 UNK        -0.5000 
     32 CA          2.0465  -19.2324  -39.8619 C.3       8 UNK         0.1400 
     33 CB          2.8868  -18.2817  -38.9964 C.3       8 UNK        -0.1800 
     34 N           1.1199  -18.4447  -40.6805 N.am      8 UNK        -0.5000 
     35 C           0.1298  -18.9539  -41.4286 C.2       7 UNK         0.5000 
     36 O          -0.1449  -20.1528  -41.4768 O.2       7 UNK        -0.5000 
     37 CA         -0.6152  -17.9698  -42.3515 C.3       7 UNK         0.1400 
     38 CB         -1.6888  -17.1875  -41.5832 C.3       7 UNK        -0.1800 
     39 N           0.2976  -17.0427  -43.0248 N.am      7 UNK        -0.5000 
     40 C           1.2751  -17.4277  -43.8564 C.2       6 UNK         0.5000 
     41 O           1.4443  -18.5984  -44.1921 O.2       6 UNK        -0.5000 
     42 CA          2.2597  -16.3528  -44.3442 C.3       6 UNK         0.1400 
     43 CB          1.7433  -15.6233  -45.5876 C.3       6 UNK        -0.1800 
     44 N           2.5555  -15.3764  -43.2998 N.am      6 UNK        -0.5000 
     45 C           3.3979  -15.5951  -42.2824 C.2       5 UNK         0.5000 
     46 O           4.0631  -16.6220  -42.1534 O.2       5 UNK        -0.5000 
     47 CA          3.4798  -14.4939  -41.2102 C.3       5 UNK         0.1400 
     48 CB          4.5455  -13.4524  -41.5810 C.3       5 UNK        -0.1800 
     49 N           2.1934  -13.8264  -40.9974 N.am      5 UNK        -0.5000 
     50 C           1.1353  -14.4152  -40.4211 C.2       4 UNK         0.5000 
     51 O           1.1479  -15.5715  -39.9987 O.2       4 UNK        -0.5000 
     52 CA         -0.1679  -13.5975  -40.3387 C.3       4 UNK         0.1400 
     53 CB         -0.2041  -12.7756  -39.0420 C.3       4 UNK        -0.1800 
     54 N          -0.3879  -12.7064  -41.4802 N.am      4 UNK        -0.5000 
     55 C          -0.4923  -13.0937  -42.7588 C.2       3 UNK         0.5000 
     56 O          -0.3791  -14.2650  -43.1234 O.2       3 UNK        -0.5000 
     57 CA         -0.7381  -12.0014  -43.8207 C.3       3 UNK         0.1400 
     58 CB         -0.9390  -10.5830  -43.2411 C.3       3 UNK        -0.1800 
     59 N           0.3135  -11.9889  -44.8416 N.am      3 UNK        -0.5000 
     60 C           1.6323  -11.8335  -44.6421 C.2       2 UNK         0.5000 
     61 O           2.1388  -11.6995  -43.5268 O.2       2 UNK        -0.5000 
     62 CA          2.5346  -11.8499  -45.8926 C.3       2 UNK         0.1400 
     63 CB          3.9421  -12.3972  -45.5889 C.3       2 UNK        -0.1800 
     64 N           1.9287  -12.6396  -46.9676 N.am      2 UNK        -0.5000 
     65 C           1.6014  -12.1869  -48.1838 C.2       1 UNK         0.5000 
     66 O           1.8309  -11.0397  -48.5690 O.2       1 UNK        -0.5000 
     67 C          -1.5466  -20.2105  -46.9356 C.2       11 UNK         0.5000 
     68 O          -2.1784  -20.2998  -47.9849 O.2       11 UNK        -0.5000 
     69 N          -2.1282  -20.0645  -45.7354 N.am      12 UNK        -0.5000 
     70 CA         -3.5730  -20.0937  -45.5050 C.3       12 UNK         0.1400 
     71 CB         -3.8647  -19.6756  -44.0560 C.3       12 UNK        -0.1800 
     72 C          -4.1918  -21.4708  -45.8153 C.2       12 UNK         0.5000 
     73 O          -5.2895  -21.5317  -46.3683 O.2       12 UNK        -0.5000 
     74 N          -3.4600  -22.5495  -45.4983 N.am      13 UNK        -0.5000 
     75 CA         -3.8391  -23.9227  -45.8328 C.3       13 UNK         0.1400 
     76 CB         -2.9993  -24.9148  -45.0143 C.3       13 UNK        -0.1800 
     77 C          -3.7089  -24.1957  -47.3410 C.2       13 UNK         0.5000 
     78 O          -4.5812  -24.8489  -47.9128 O.2       13 UNK        -0.5000 
     79 N          -2.6575  -23.6461  -47.9688 N.am      14 UNK        -0.5000 
     80 CA         -2.4678  -23.6655  -49.4214 C.3       14 UNK         0.1400 
     81 CB         -1.0860  -23.1006  -49.7853 C.3       14 UNK        -0.1800 
     82 C          -3.5866  -22.9106  -50.1627 C.2       14 UNK         0.5000 
     83 O          -4.1009  -23.4223  -51.1538 O.2       14 UNK        -0.5000 
     84 N          -3.9799  -21.7416  -49.6383 N.am      15 UNK        -0.5000 
     85 CA         -5.0777  -20.9256  -50.1538 C.3       15 UNK         0.1400 
     86 CB         -5.0766  -19.5552  -49.4614 C.3       15 UNK        -0.1800 
     87 C          -6.4473  -21.6123  -50.0203 C.2       15 UNK         0.5000 
     88 O          -7.2438  -21.5552  -50.9571 O.2       15 UNK        -0.5000 
     89 N          -6.6836  -22.2936  -48.8892 N.am      16 UNK        -0.5000 
     90 CA         -7.8753  -23.1134  -48.6478 C.3       16 UNK         0.1400 
     91 CB         -7.9004  -23.5646  -47.1800 C.3       16 UNK        -0.1800 
     92 C          -7.9709  -24.3266  -49.5954 C.2       16 UNK         0.5000 
     93 O          -9.0712  -24.6920  -50.0094 O.2       16 UNK        -0.5000 
     94 N          -6.8139  -24.8963  -49.9565 N.am      17 UNK        -0.5000 
     95 CA         -6.6599  -25.9585  -50.9527 C.3       17 UNK         0.1400 
     96 CB         -5.3955  -26.7642  -50.6099 C.3       17 UNK        -0.1800 
     97 C          -6.5977  -25.4309  -52.4044 C.2       17 UNK         0.5000 
     98 O          -6.3890  -26.2258  -53.3225 O.2       17 UNK        -0.5000 
     99 N          -6.7400  -24.1107  -52.5928 N.am      18 UNK        -0.5000 
    100 CA        -6.6418  -23.3188  -53.8242 C.3       18 UNK         0.1400 
    101 CB        -7.6605  -23.7752  -54.8851 C.3       18 UNK        -0.1800 
    102 C         -5.2223  -23.2294  -54.4166 C.2       18 UNK         0.5000 
    103 O         -4.8159  -22.1444  -54.8415 O.2       18 UNK        -0.5000 
    104 N         -4.5125  -24.3656  -54.4766 N.am      19 UNK        -0.5000 
    105 CA        -3.1371  -24.5543  -54.9635 C.3       19 UNK         0.1400 
    106 CB        -2.1406  -23.8472  -54.0199 C.3       19 UNK        -0.1800 
    107 C         -2.9141  -24.1499  -56.4396 C.2       19 UNK         0.5000 
    108 O         -1.7660  -24.0168  -56.8656 O.2       19 UNK        -0.5000 
    109 N         -4.0134  -23.9365  -57.1810 N.am      20 UNK        -0.5000 
    110 CA        -4.0934  -23.3253  -58.5122 C.3       20 UNK         0.1400 
    111 CB        -3.4898  -24.2621  -59.5796 C.3       20 UNK        -0.1800 
    112 C         -3.5001  -21.8967  -58.5565 C.2       20 UNK         0.5000 
    113 O         -2.9854  -21.4813  -59.5969 O.2       20 UNK        -0.5000 
    114 N         -3.5633  -21.1749  -57.4278 N.am      21 UNK        -0.5000 
    115 CA        -2.9188  -19.8805  -57.2407 C.3       21 UNK         0.1400 
    116 CB        -1.4289  -20.0870  -56.8882 C.3       21 UNK        -0.1800 
    117 C         -3.6848  -19.0512  -56.1989 C.2       21 UNK         0.5000 
    118 O         -4.6060  -18.3206  -56.5654 O.2       21 UNK        -0.5000 
    119 N         -3.2659  -19.1478  -54.9323 N.am      22 UNK        -0.5000 
    120 CA        -3.7381  -18.3279  -53.8051 C.3       22 UNK         0.1400 
    121 C         -5.1721  -18.6353  -53.2860 C.2       22 UNK         0.5000 
    122 N         -5.7947  -19.7459  -53.6523 N.am      22 UNK        -0.7600 
    123 O         -5.7395  -17.8347  -52.5482 O.2       22 UNK        -0.5000 
    124 C124       -2.6938  -18.2873  -52.6565 C.3       23 UNK        -0.0398 
    125 S125       -2.1160  -19.9366  -52.1142 S.3       23 UNK        -0.2404 
    126 C126       -0.4442  -20.0156  -52.8300 C.3       23 UNK        -0.0205 
    127 H127       -1.4440  -15.4188  -45.9945 H         1 UNK         0.0600 
    128 H128       -2.6074  -15.3471  -47.3212 H         1 UNK         0.0600 
    129 H129       -1.1091  -16.2581  -47.5136 H         1 UNK         0.0600 
    130 H130        0.4064  -15.1840  -48.7396 H         1 UNK         0.3000 
    131 H131        0.1333  -12.5759  -49.6665 H         1 UNK         0.0600 
    132 H132        2.4768  -12.9380  -50.6163 H         1 UNK         0.0800 
    133 H133        2.5669  -14.4290  -49.7073 H         1 UNK         0.0800 
    134 H134        3.2370  -15.5271  -51.7342 H         1 UNK         0.0800 
    135 H135        2.3097  -15.7634  -53.1876 H         1 UNK         0.0800 
    136 H136        0.4723  -17.4747  -53.2696 H         1 UNK         0.1150 
    137 H137        0.8976  -20.8008  -50.6035 H         1 UNK         0.1150 
    138 H138        3.2000  -17.2372  -49.9716 H         1 UNK         0.1150 
    139 H139        2.5040  -20.7930  -48.8759 H         1 UNK         0.0800 
    140 H140        3.8714  -19.7369  -49.1097 H         1 UNK         0.0800 
    141 H141        0.2080  -18.6023  -48.2989 H         1 UNK         0.0800 
    142 H142        0.2649  -18.2002  -46.6114 H         1 UNK         0.0800 
    143 H143        0.2511  -21.0139  -47.7620 H         1 UNK         0.0600 
    144 H144        1.0274  -20.2207  -45.1092 H         1 UNK         0.3000 
    145 H145       -0.1041  -22.3620  -43.2538 H         1 UNK         0.0600 
    146 H146        1.4567  -24.2643  -42.7575 H         1 UNK         0.0600 
    147 H147        0.2758  -24.6502  -43.9966 H         1 UNK         0.0600 
    148 H148        1.9325  -24.2978  -44.4560 H         1 UNK         0.0600 
    149 H149        1.4908  -21.0303  -42.6051 H         1 UNK         0.3000 
    150 H150        4.7490  -21.1727  -42.3914 H         1 UNK         0.0600 
    151 H151        5.3980  -20.1910  -44.5379 H         1 UNK         0.0600 
    152 H152        5.3304  -18.9089  -43.3399 H         1 UNK         0.0600 
    153 H153        4.0307  -19.0919  -44.5177 H         1 UNK         0.0600 
    154 H154        2.8852  -18.9059  -42.2707 H         1 UNK         0.3000 
    155 H155        1.4505  -19.8610  -39.1971 H         1 UNK         0.0600 
    156 H156        3.4863  -17.6064  -39.6075 H         1 UNK         0.0600 
    157 H157        3.5699  -18.8376  -38.3530 H         1 UNK         0.0600 
    158 H158        2.2536  -17.6737  -38.3498 H         1 UNK         0.0600 
    159 H159        1.2447  -17.4367  -40.6595 H         1 UNK         0.3000 
    160 H160       -1.1145  -18.5549  -43.1255 H         1 UNK         0.0600 
    161 H161       -2.2111  -16.4871  -42.2353 H         1 UNK         0.0600 
    162 H162       -1.2611  -16.6226  -40.7558 H         1 UNK         0.0600 
    163 H163       -2.4355  -17.8635  -41.1651 H         1 UNK         0.0600 
    164 H164        0.1636  -16.0502  -42.8506 H         1 UNK         0.3000 
    165 H165        3.1836  -16.8626  -44.6244 H         1 UNK         0.0600 
    166 H166        2.5520  -15.0659  -46.0548 H         1 UNK         0.0600 
    167 H167        1.3756  -16.3150  -46.3406 H         1 UNK         0.0600 
    168 H168        0.9339  -14.9368  -45.3440 H         1 UNK         0.0600 
    169 H169        1.9994  -14.5329  -43.2882 H         1 UNK         0.3000 
    170 H170        3.7792  -14.9660  -40.2719 H         1 UNK         0.0600 
    171 H171        5.5224  -13.9219  -41.7037 H         1 UNK         0.0600 
    172 H172        4.3074  -12.9448  -42.5157 H         1 UNK         0.0600 
    173 H173        4.6444  -12.6947  -40.8036 H         1 UNK         0.0600 
    174 H174        2.0955  -12.8890  -41.3653 H         1 UNK         0.3000 
    175 H175       -0.9984  -14.3048  -40.3131 H         1 UNK         0.0600 
    176 H176       -1.1615  -12.2682  -38.9224 H         1 UNK         0.0600 
    177 H177       -0.0665  -13.4161  -38.1697 H         1 UNK         0.0600 
    178 H178        0.5823  -12.0200  -39.0221 H         1 UNK         0.0600 
    179 H179       -0.4669  -11.7216  -41.2728 H         1 UNK         0.3000 
    180 H180       -1.6593  -12.2829  -44.3329 H         1 UNK         0.0600 
    181 H181       -0.0545  -10.2214  -42.7153 H         1 UNK         0.0600 
    182 H182       -1.7791  -10.5544  -42.5460 H         1 UNK         0.0600 
    183 H183       -1.1611   -9.8697  -44.0349 H         1 UNK         0.0600 
    184 H184       -0.0164  -12.1367  -45.7895 H         1 UNK         0.3000 
    185 H185        2.6410  -10.8084  -46.2016 H         1 UNK         0.0600 
    186 H186        3.9078  -13.3959  -45.1543 H         1 UNK         0.0600 
    187 H187        4.5503  -12.4441  -46.4922 H         1 UNK         0.0600 
    188 H188        4.4663  -11.7533  -44.8818 H         1 UNK         0.0600 
    189 H189        1.6840  -13.5917  -46.7383 H         1 UNK         0.3000 
    190 H190       -1.5348  -19.9956  -44.9230 H         1 UNK         0.3000 
    191 H191       -4.0376  -19.3636  -46.1709 H         1 UNK         0.0600 
    192 H192       -3.3749  -20.3340  -43.3373 H         1 UNK         0.0600 
    193 H193       -4.9356  -19.7034  -43.8503 H         1 UNK         0.0600 
    194 H194       -3.5270  -18.6569  -43.8650 H         1 UNK         0.0600 
    195 H195       -2.5468  -22.4196  -45.0901 H         1 UNK         0.3000 
    196 H196       -4.8863  -24.0637  -45.5565 H         1 UNK         0.0600 
    197 H197       -3.3269  -25.9391  -45.1961 H         1 UNK         0.0600 
    198 H198       -3.0965  -24.7278  -43.9448 H         1 UNK         0.0600 
    199 H199       -1.9415  -24.8633  -45.2703 H         1 UNK         0.0600 
    200 H200       -1.9612  -23.1605  -47.4168 H         1 UNK         0.3000 
    201 H201       -2.4997  -24.7085  -49.7432 H         1 UNK         0.0600 
    202 H202       -0.2899  -23.6188  -49.2506 H         1 UNK         0.0600 
    203 H203       -1.0099  -22.0383  -49.5581 H         1 UNK         0.0600 
    204 H204       -0.8925  -23.2140  -50.8527 H         1 UNK         0.0600 
    205 H205       -3.4411  -21.3451  -48.8729 H         1 UNK         0.3000 
    206 H206       -4.8936  -20.7702  -51.2172 H         1 UNK         0.0600 
    207 H207       -4.1326  -19.0347  -49.6240 H         1 UNK         0.0600 
    208 H208       -5.8698  -18.9193  -49.8562 H         1 UNK         0.0600 
    209 H209       -5.2299  -19.6454  -48.3863 H         1 UNK         0.0600 
    210 H210       -6.0047  -22.2421  -48.1366 H         1 UNK         0.3000 
    211 H211       -8.7515  -22.4864  -48.8248 H         1 UNK         0.0600 
    212 H212       -7.0404  -24.1877  -46.9349 H         1 UNK         0.0600 
    213 H213       -8.7982  -24.1456  -46.9656 H         1 UNK         0.0600 
    214 H214       -7.8974  -22.7092  -46.5042 H         1 UNK         0.0600 
    215 H215       -5.9580  -24.5611  -49.5282 H         1 UNK         0.3000 
    216 H216       -7.5172  -26.6315  -50.8902 H         1 UNK         0.0600 
    217 H217       -5.2737  -27.6144  -51.2820 H         1 UNK         0.0600 
    218 H218       -5.4425  -27.1586  -49.5947 H         1 UNK         0.0600 
    219 H219       -4.4968  -26.1515  -50.6881 H         1 UNK         0.0600 
    220 H220       -6.8531  -23.5475  -51.7592 H         1 UNK         0.3000 
    221 H221       -6.9187  -22.3062  -53.5329 H         1 UNK         0.0600 
    222 H222       -7.4440  -24.7750  -55.2618 H         1 UNK         0.0600 
    223 H223       -8.6728  -23.7808  -54.4808 H         1 UNK         0.0600 
    224 H224       -7.6568  -23.0988  -55.7408 H         1 UNK         0.0600 
    225 H225       -4.9751  -25.2000  -54.1262 H         1 UNK         0.3000 
    226 H226       -2.9405  -25.6259  -54.9124 H         1 UNK         0.0600 
    227 H227       -2.2725  -22.7647  -54.0272 H         1 UNK         0.0600 
    228 H228       -1.1082  -24.0532  -54.3042 H         1 UNK         0.0600 
    229 H229       -2.2629  -24.1909  -52.9933 H         1 UNK         0.0600 
    230 H230       -4.8997  -24.0859  -56.7212 H         1 UNK         0.3000 
    231 H231       -5.1558  -23.2156  -58.7335 H         1 UNK         0.0600 
    232 H232       -3.9281  -25.2585  -59.5228 H         1 UNK         0.0600 
    233 H233       -2.4101  -24.3634  -59.4663 H         1 UNK         0.0600 
    234 H234       -3.6785  -23.8836  -60.5848 H         1 UNK         0.0600 
    235 H235       -4.0274  -21.5633  -56.6115 H         1 UNK         0.3000 
    236 H236       -2.9684  -19.3140  -58.1731 H         1 UNK         0.0600 
    237 H237       -0.8836  -20.5049  -57.7346 H         1 UNK         0.0600 
    238 H238       -0.9472  -19.1425  -56.6317 H         1 UNK         0.0600 
    239 H239       -1.2991  -20.7716  -56.0490 H         1 UNK         0.0600 
    240 H240       -2.5500  -19.8210  -54.7056 H         1 UNK         0.3000 
    241 H241       -3.8069  -17.3065  -54.1848 H         1 UNK         0.0600 
    242 H242       -6.7246  -19.9180  -53.3072 H         1 UNK         0.3800 
    243 H243       -5.3252  -20.4433  -54.2223 H         1 UNK         0.3800 
    244 H244       -1.8379  -17.6971  -52.9800 H         1 UNK         0.0800 
    245 H245       -3.0875  -17.7582  -51.7869 H         1 UNK         0.0800 
    246 H246       -0.4624  -19.6665  -53.8630 H         1 UNK         0.0800 
    247 H247       -0.1339  -21.0609  -52.8702 H         1 UNK         0.0800 
@<TRIPOS>BOND
     1    1    2 1    
     2    1  127 1    
     3    1  128 1    
     4    1  129 1    
     5    2    3 2    
     6    2    4 am   BACKBONE|DICT|INTERRES
     7    4    5 1    
     8    4  130 1    
     9    5    6 1    
    10    5   65 1    
    11    5  131 1    
    12    6    7 1    
    13    6  132 1    
    14    6  133 1    
    15    7    8 1    
    16    8    9 1    
    17    8  134 1    
    18    8  135 1    
    19    9   10 ar   
    20    9   14 ar   
    21   10   11 ar   
    22   10  136 1    
    23   11   12 ar   
    24   11  126 1    
    25   12   13 ar   
    26   12  137 1    
    27   13   14 ar   
    28   13   15 1    
    29   14  138 1    
    30   15   16 1    
    31   15  139 1    
    32   15  140 1    
    33   16   17 1    
    34   17   18 1    
    35   17  141 1    
    36   17  142 1    
    37   18   19 1    
    38   18   67 1    
    39   18  143 1    
    40   19   20 am   BACKBONE|DICT|INTERRES
    41   19  144 1    
    42   20   21 2    
    43   20   22 1    
    44   22   23 1    
    45   22   24 1    
    46   22  145 1    
    47   23  146 1    
    48   23  147 1    
    49   23  148 1    
    50   24   25 am   BACKBONE|DICT|INTERRES
    51   24  149 1    
    52   25   26 2    
    53   25   27 1    
    54   27   28 1    
    55   27   29 1    
    56   27  150 1    
    57   28  151 1    
    58   28  152 1    
    59   28  153 1    
    60   29   30 am   BACKBONE|DICT|INTERRES
    61   29  154 1    
    62   30   31 2    
    63   30   32 1    
    64   32   33 1    
    65   32   34 1    
    66   32  155 1    
    67   33  156 1    
    68   33  157 1    
    69   33  158 1    
    70   34   35 am   BACKBONE|DICT|INTERRES
    71   34  159 1    
    72   35   36 2    
    73   35   37 1    
    74   37   38 1    
    75   37   39 1    
    76   37  160 1    
    77   38  161 1    
    78   38  162 1    
    79   38  163 1    
    80   39   40 am   BACKBONE|DICT|INTERRES
    81   39  164 1    
    82   40   41 2    
    83   40   42 1    
    84   42   43 1    
    85   42   44 1    
    86   42  165 1    
    87   43  166 1    
    88   43  167 1    
    89   43  168 1    
    90   44   45 am   BACKBONE|DICT|INTERRES
    91   44  169 1    
    92   45   46 2    
    93   45   47 1    
    94   47   48 1    
    95   47   49 1    
    96   47  170 1    
    97   48  171 1    
    98   48  172 1    
    99   48  173 1    
   100   49   50 am   BACKBONE|DICT|INTERRES
   101   49  174 1    
   102   50   51 2    
   103   50   52 1    
   104   52   53 1    
   105   52   54 1    
   106   52  175 1    
   107   53  176 1    
   108   53  177 1    
   109   53  178 1    
   110   54   55 am   BACKBONE|DICT|INTERRES
   111   54  179 1    
   112   55   56 2    
   113   55   57 1    
   114   57   58 1    
   115   57   59 1    
   116   57  180 1    
   117   58  181 1    
   118   58  182 1    
   119   58  183 1    
   120   59   60 am   BACKBONE|DICT|INTERRES
   121   59  184 1    
   122   60   61 2    
   123   60   62 1    
   124   62   63 1    
   125   62   64 1    
   126   62  185 1    
   127   63  186 1    
   128   63  187 1    
   129   63  188 1    
   130   64   65 am   BACKBONE|DICT|INTERRES
   131   64  189 1    
   132   65   66 2    
   133   67   68 2    
   134   67   69 am   BACKBONE|DICT|INTERRES
   135   69   70 1    
   136   69  190 1    
   137   70   71 1    
   138   70   72 1    
   139   70  191 1    
   140   71  192 1    
   141   71  193 1    
   142   71  194 1    
   143   72   73 2    
   144   72   74 am   BACKBONE|DICT|INTERRES
   145   74   75 1    
   146   74  195 1    
   147   75   76 1    
   148   75   77 1    
   149   75  196 1    
   150   76  197 1    
   151   76  198 1    
   152   76  199 1    
   153   77   78 2    
   154   77   79 am   BACKBONE|DICT|INTERRES
   155   79   80 1    
   156   79  200 1    
   157   80   81 1    
   158   80   82 1    
   159   80  201 1    
   160   81  202 1    
   161   81  203 1    
   162   81  204 1    
   163   82   83 2    
   164   82   84 am   BACKBONE|DICT|INTERRES
   165   84   85 1    
   166   84  205 1    
   167   85   86 1    
   168   85   87 1    
   169   85  206 1    
   170   86  207 1    
   171   86  208 1    
   172   86  209 1    
   173   87   88 2    
   174   87   89 am   BACKBONE|DICT|INTERRES
   175   89   90 1    
   176   89  210 1    
   177   90   91 1    
   178   90   92 1    
   179   90  211 1    
   180   91  212 1    
   181   91  213 1    
   182   91  214 1    
   183   92   93 2    
   184   92   94 am   BACKBONE|DICT|INTERRES
   185   94   95 1    
   186   94  215 1    
   187   95   96 1    
   188   95   97 1    
   189   95  216 1    
   190   96  217 1    
   191   96  218 1    
   192   96  219 1    
   193   97   98 2    
   194   97   99 am   BACKBONE|DICT|INTERRES
   195   99  100 1    
   196   99  220 1    
   197  100  101 1    
   198  100  102 1    
   199  100  221 1    
   200  101  222 1    
   201  101  223 1    
   202  101  224 1    
   203  102  103 2    
   204  102  104 am   BACKBONE|DICT|INTERRES
   205  104  105 1    
   206  104  225 1    
   207  105  106 1    
   208  105  107 1    
   209  105  226 1    
   210  106  227 1    
   211  106  228 1    
   212  106  229 1    
   213  107  108 2    
   214  107  109 am   BACKBONE|DICT|INTERRES
   215  109  110 1    
   216  109  230 1    
   217  110  111 1    
   218  110  112 1    
   219  110  231 1    
   220  111  232 1    
   221  111  233 1    
   222  111  234 1    
   223  112  113 2    
   224  112  114 am   BACKBONE|DICT|INTERRES
   225  114  115 1    
   226  114  235 1    
   227  115  116 1    
   228  115  117 1    
   229  115  236 1    
   230  116  237 1    
   231  116  238 1    
   232  116  239 1    
   233  117  118 2    
   234  117  119 am   BACKBONE|DICT|INTERRES
   235  119  120 1    
   236  119  240 1    
   237  120  121 1    
   238  120  124 1    
   239  120  241 1    
   240  121  122 am   BACKBONE|DICT|INTERRES
   241  121  123 2    
   242  122  242 1    
   243  122  243 1    
   244  124  125 1    
   245  124  244 1    
   246  124  245 1    
   247  125  126 1    
   248  126  246 1    
   249  126  247 1    
@<TRIPOS>SUBSTRUCTURE
     1 UNK         1 GROUP             0       ****    0 ROOT    
