@<TRIPOS>MOLECULE
3R540
247   249    1
SMALL
USER_CHARGES


@<TRIPOS>ATOM
      1 CA          3.0348  -10.9880  -47.8493 C.3       0 UNK        -0.1800 
      2 C           1.9963  -11.6896  -46.9872 C.2       0 UNK         0.5000 
      3 O           2.1068  -11.6649  -45.7624 O.2       0 UNK        -0.5000 
      4 N           0.9940  -12.3122  -47.6216 N.am      1 UNK        -0.5000 
      5 CA         -0.1125  -13.0447  -46.9929 C.3       1 UNK         0.1400 
      6 C6         -1.1171  -13.5791  -48.0412 C.3       23 UNK        -0.0398 
      7 S7         -0.3609  -14.7160  -49.2504 S.3       23 UNK        -0.2404 
      8 C8         -1.1941  -16.2735  -48.8231 C.3       23 UNK        -0.0205 
      9 C9         -0.9847  -17.3212  -49.9021 C.ar      23 UNK        -0.0193 
     10 C10        -1.8823  -17.4187  -50.9704 C.ar      23 UNK        -0.1150 
     11 C11        -1.7091  -18.3955  -51.9548 C.ar      23 UNK        -0.0193 
     12 C12        -0.6280  -19.2750  -51.8644 C.ar      23 UNK        -0.1150 
     13 C13         0.2625  -19.2002  -50.7924 C.ar      23 UNK        -0.0193 
     14 C14         0.0895  -18.2108  -49.8206 C.ar      23 UNK        -0.1150 
     15 C15         1.3825  -20.2191  -50.6695 C.3       23 UNK        -0.0205 
     16 S16         0.7954  -21.7326  -49.8444 S.3       23 UNK        -0.2404 
     17 C17         0.5573  -21.1193  -48.1423 C.3       23 UNK        -0.0398 
     18 CA          0.5029  -22.2667  -47.0973 C.3       11 UNK         0.1400 
     19 N           1.3050  -21.9411  -45.9183 N.am      11 UNK        -0.5000 
     20 C           2.4195  -22.5745  -45.5334 C.2       10 UNK         0.5000 
     21 O           2.8897  -23.5490  -46.1213 O.2       10 UNK        -0.5000 
     22 CA          3.1422  -22.0360  -44.2820 C.3       10 UNK         0.1400 
     23 CB          4.4557  -21.3471  -44.6831 C.3       10 UNK        -0.1800 
     24 N           2.3349  -21.1083  -43.4833 N.am      10 UNK        -0.5000 
     25 C           1.2649  -21.4675  -42.7607 C.2       9 UNK         0.5000 
     26 O           0.8524  -22.6255  -42.6911 O.2       9 UNK        -0.5000 
     27 CA          0.5004  -20.3487  -42.0305 C.3       9 UNK         0.1400 
     28 CB          1.1535  -20.0492  -40.6737 C.3       9 UNK        -0.1800 
     29 N           0.3731  -19.1063  -42.7979 N.am      9 UNK        -0.5000 
     30 C          -0.2599  -18.9873  -43.9748 C.2       8 UNK         0.5000 
     31 O          -0.7250  -19.9387  -44.6009 O.2       8 UNK        -0.5000 
     32 CA         -0.3723  -17.5702  -44.5628 C.3       8 UNK         0.1400 
     33 CB         -1.3893  -16.7166  -43.7888 C.3       8 UNK        -0.1800 
     34 N           0.9233  -16.8999  -44.5706 N.am      8 UNK        -0.5000 
     35 C           1.8820  -17.1382  -45.4753 C.2       7 UNK         0.5000 
     36 O           1.7354  -17.8668  -46.4567 O.2       7 UNK        -0.5000 
     37 CA          3.2449  -16.4698  -45.2214 C.3       7 UNK         0.1400 
     38 CB          3.2901  -15.0753  -45.8636 C.3       7 UNK        -0.1800 
     39 N           3.5699  -16.3606  -43.7967 N.am      7 UNK        -0.5000 
     40 C           3.7916  -17.4075  -42.9875 C.2       6 UNK         0.5000 
     41 O           3.7366  -18.5793  -43.3547 O.2       6 UNK        -0.5000 
     42 CA          4.0827  -17.0997  -41.5084 C.3       6 UNK         0.1400 
     43 CB          5.5804  -16.8311  -41.3008 C.3       6 UNK        -0.1800 
     44 N           3.3135  -15.9697  -40.9888 N.am      6 UNK        -0.5000 
     45 C           1.9756  -15.9046  -40.9228 C.2       5 UNK         0.5000 
     46 O           1.2233  -16.8012  -41.3040 O.2       5 UNK        -0.5000 
     47 CA          1.3845  -14.5871  -40.3902 C.3       5 UNK         0.1400 
     48 CB          1.2530  -14.6313  -38.8610 C.3       5 UNK        -0.1800 
     49 N           2.1841  -13.4221  -40.7803 N.am      5 UNK        -0.5000 
     50 C           2.3092  -12.9998  -42.0441 C.2       4 UNK         0.5000 
     51 O           1.7310  -13.5288  -42.9979 O.2       4 UNK        -0.5000 
     52 CA          3.2411  -11.8051  -42.2876 C.3       4 UNK         0.1400 
     53 CB          4.4740  -12.2361  -43.0973 C.3       4 UNK        -0.1800 
     54 N           2.4806  -10.8292  -43.0498 N.am      4 UNK        -0.5000 
     55 C           1.9848   -9.6859  -42.5638 C.2       3 UNK         0.5000 
     56 O           2.3384   -9.1723  -41.5015 O.2       3 UNK        -0.5000 
     57 CA          0.8297   -9.0636  -43.3697 C.3       3 UNK         0.1400 
     58 CB          1.3517   -8.2993  -44.5959 C.3       3 UNK        -0.1800 
     59 N          -0.1188  -10.0945  -43.7971 N.am      3 UNK        -0.5000 
     60 C          -0.8872  -10.8206  -42.9726 C.2       2 UNK         0.5000 
     61 O          -1.0075  -10.5742  -41.7718 O.2       2 UNK        -0.5000 
     62 CA         -1.6076  -12.0573  -43.5495 C.3       2 UNK         0.1400 
     63 CB         -3.1004  -11.7734  -43.8045 C.3       2 UNK        -0.1800 
     64 N          -0.9606  -12.6610  -44.7237 N.am      2 UNK        -0.5000 
     65 C          -0.8636  -12.1722  -45.9669 C.2       1 UNK         0.5000 
     66 O          -1.3139  -11.0799  -46.3178 O.2       1 UNK        -0.5000 
     67 C          -0.9390  -22.6432  -46.6928 C.2       11 UNK         0.5000 
     68 O          -1.8365  -22.6062  -47.5316 O.2       11 UNK        -0.5000 
     69 N          -1.1558  -23.0108  -45.4202 N.am      12 UNK        -0.5000 
     70 CA         -2.4724  -23.3408  -44.8652 C.3       12 UNK         0.1400 
     71 CB         -2.3669  -23.4071  -43.3347 C.3       12 UNK        -0.1800 
     72 C          -3.0880  -24.6407  -45.4231 C.2       12 UNK         0.5000 
     73 O          -4.3020  -24.8214  -45.3129 O.2       12 UNK        -0.5000 
     74 N          -2.2479  -25.5084  -46.0083 N.am      13 UNK        -0.5000 
     75 CA         -2.5811  -26.7943  -46.6244 C.3       13 UNK         0.1400 
     76 CB         -1.3099  -27.3819  -47.2585 C.3       13 UNK        -0.1800 
     77 C          -3.7169  -26.6838  -47.6596 C.2       13 UNK         0.5000 
     78 O          -3.5019  -26.1707  -48.7612 O.2       13 UNK        -0.5000 
     79 N          -4.9161  -27.1232  -47.2503 N.am      14 UNK        -0.5000 
     80 CA         -6.1810  -27.0672  -47.9909 C.3       14 UNK         0.1400 
     81 CB         -6.1638  -28.0844  -49.1508 C.3       14 UNK        -0.1800 
     82 C          -6.5622  -25.6398  -48.4428 C.2       14 UNK         0.5000 
     83 O          -7.1257  -25.4729  -49.5247 O.2       14 UNK        -0.5000 
     84 N          -6.2165  -24.6355  -47.6199 N.am      15 UNK        -0.5000 
     85 CA         -6.3625  -23.1982  -47.8778 C.3       15 UNK         0.1400 
     86 CB         -7.8512  -22.7917  -47.8799 C.3       15 UNK        -0.1800 
     87 C          -5.6176  -22.7723  -49.1598 C.2       15 UNK         0.5000 
     88 O          -6.2245  -22.2234  -50.0816 O.2       15 UNK        -0.5000 
     89 N          -4.3170  -23.0940  -49.2067 N.am      16 UNK        -0.5000 
     90 CA         -3.3967  -22.8922  -50.3299 C.3       16 UNK         0.1400 
     91 CB         -3.1485  -21.3884  -50.5606 C.3       16 UNK        -0.1800 
     92 C          -3.8524  -23.6409  -51.5975 C.2       16 UNK         0.5000 
     93 O          -3.8254  -23.0777  -52.6940 O.2       16 UNK        -0.5000 
     94 N          -4.3022  -24.8910  -51.4027 N.am      17 UNK        -0.5000 
     95 CA         -4.9235  -25.7706  -52.3990 C.3       17 UNK         0.1400 
     96 CB         -3.8744  -26.2345  -53.4317 C.3       17 UNK        -0.1800 
     97 C          -6.1653  -25.1242  -53.0498 C.2       17 UNK         0.5000 
     98 O          -6.2604  -25.0668  -54.2747 O.2       17 UNK        -0.5000 
     99 N          -7.0687  -24.5921  -52.2136 N.am      18 UNK        -0.5000 
    100 CA        -8.2290  -23.7678  -52.5770 C.3       18 UNK         0.1400 
    101 CB        -9.3074  -24.6226  -53.2739 C.3       18 UNK        -0.1800 
    102 C         -7.8241  -22.5161  -53.3890 C.2       18 UNK         0.5000 
    103 O         -8.4553  -22.1883  -54.3952 O.2       18 UNK        -0.5000 
    104 N         -6.7385  -21.8724  -52.9397 N.am      19 UNK        -0.5000 
    105 CA        -6.0350  -20.7327  -53.5344 C.3       19 UNK         0.1400 
    106 CB        -6.9365  -19.4819  -53.5597 C.3       19 UNK        -0.1800 
    107 C         -5.3696  -21.0058  -54.9034 C.2       19 UNK         0.5000 
    108 O         -4.9042  -20.0571  -55.5350 O.2       19 UNK        -0.5000 
    109 N         -5.2896  -22.2718  -55.3420 N.am      20 UNK        -0.5000 
    110 CA        -4.6552  -22.6636  -56.6050 C.3       20 UNK         0.1400 
    111 CB        -5.1366  -24.0616  -57.0197 C.3       20 UNK        -0.1800 
    112 C         -3.1154  -22.6194  -56.5614 C.2       20 UNK         0.5000 
    113 O         -2.4884  -22.6318  -57.6213 O.2       20 UNK        -0.5000 
    114 N         -2.5237  -22.5603  -55.3589 N.am      21 UNK        -0.5000 
    115 CA        -1.0765  -22.4606  -55.1458 C.3       21 UNK         0.1400 
    116 CB        -0.7469  -22.9087  -53.7126 C.3       21 UNK        -0.1800 
    117 C         -0.4809  -21.0662  -55.4509 C.2       21 UNK         0.5000 
    118 O          0.7302  -20.8935  -55.3068 O.2       21 UNK        -0.5000 
    119 N         -1.3100  -20.1002  -55.8640 N.am      22 UNK        -0.5000 
    120 CA        -0.9041  -18.7559  -56.2912 C.3       22 UNK         0.1400 
    121 C         -1.7301  -18.2598  -57.5121 C.2       22 UNK         0.5000 
    122 N         -1.3893  -17.1076  -58.0749 N.am      22 UNK        -0.7600 
    123 O         -2.6663  -18.9102  -57.9723 O.2       22 UNK        -0.5000 
    124 C124       -0.8531  -17.7531  -55.1052 C.3       23 UNK        -0.0398 
    125 S125       -2.4782  -17.2962  -54.3974 S.3       23 UNK        -0.2404 
    126 C126       -2.7147  -18.5365  -53.0872 C.3       23 UNK        -0.0205 
    127 H127        4.0230  -11.4057  -47.6568 H         1 UNK         0.0600 
    128 H128        3.0608   -9.9245  -47.6121 H         1 UNK         0.0600 
    129 H129        2.8199  -11.0958  -48.9127 H         1 UNK         0.0600 
    130 H130        0.9658  -12.2879  -48.6306 H         1 UNK         0.3000 
    131 H131        0.3238  -13.8986  -46.4705 H         1 UNK         0.0600 
    132 H132       -1.9489  -14.0824  -47.5449 H         1 UNK         0.0800 
    133 H133       -1.5612  -12.7521  -48.5987 H         1 UNK         0.0800 
    134 H134       -0.8161  -16.6340  -47.8651 H         1 UNK         0.0800 
    135 H135       -2.2634  -16.1006  -48.6917 H         1 UNK         0.0800 
    136 H136       -2.7202  -16.7386  -51.0334 H         1 UNK         0.1150 
    137 H137       -0.4942  -20.0412  -52.6134 H         1 UNK         0.1150 
    138 H138        0.7762  -18.1470  -48.9880 H         1 UNK         0.1150 
    139 H139        1.7550  -20.4786  -51.6617 H         1 UNK         0.0800 
    140 H140        2.2292  -19.7994  -50.1243 H         1 UNK         0.0800 
    141 H141       -0.3318  -20.4867  -48.1053 H         1 UNK         0.0800 
    142 H142        1.3917  -20.4508  -47.9231 H         1 UNK         0.0800 
    143 H143        0.9034  -23.1732  -47.5550 H         1 UNK         0.0600 
    144 H144        0.9626  -21.1682  -45.3593 H         1 UNK         0.3000 
    145 H145        3.3887  -22.8959  -43.6557 H         1 UNK         0.0600 
    146 H146        5.0999  -22.0241  -45.2454 H         1 UNK         0.0600 
    147 H147        4.2737  -20.4716  -45.3079 H         1 UNK         0.0600 
    148 H148        5.0154  -21.0234  -43.8054 H         1 UNK         0.0600 
    149 H149        2.6405  -20.1379  -43.4749 H         1 UNK         0.3000 
    150 H150       -0.5104  -20.7155  -41.8420 H         1 UNK         0.0600 
    151 H151        1.2190  -20.9508  -40.0632 H         1 UNK         0.0600 
    152 H152        0.5761  -19.3162  -40.1099 H         1 UNK         0.0600 
    153 H153        2.1640  -19.6599  -40.7940 H         1 UNK         0.0600 
    154 H154        0.7221  -18.2653  -42.3442 H         1 UNK         0.3000 
    155 H155       -0.7309  -17.6635  -45.5901 H         1 UNK         0.0600 
    156 H156       -1.5236  -15.7426  -44.2593 H         1 UNK         0.0600 
    157 H157       -1.0810  -16.5495  -42.7564 H         1 UNK         0.0600 
    158 H158       -2.3657  -17.2021  -43.7648 H         1 UNK         0.0600 
    159 H159        1.1452  -16.3184  -43.7745 H         1 UNK         0.3000 
    160 H160        4.0089  -17.0897  -45.6952 H         1 UNK         0.0600 
    161 H161        2.5742  -14.3970  -45.3995 H         1 UNK         0.0600 
    162 H162        3.0513  -15.1241  -46.9269 H         1 UNK         0.0600 
    163 H163        4.2804  -14.6293  -45.7730 H         1 UNK         0.0600 
    164 H164        3.5886  -15.4306  -43.4052 H         1 UNK         0.3000 
    165 H165        3.8124  -17.9817  -40.9257 H         1 UNK         0.0600 
    166 H166        5.8150  -16.6986  -40.2445 H         1 UNK         0.0600 
    167 H167        6.1805  -17.6672  -41.6628 H         1 UNK         0.0600 
    168 H168        5.9079  -15.9371  -41.8330 H         1 UNK         0.0600 
    169 H169        3.8438  -15.1785  -40.6557 H         1 UNK         0.3000 
    170 H170        0.3851  -14.4756  -40.8166 H         1 UNK         0.0600 
    171 H171        0.6468  -15.4821  -38.5466 H         1 UNK         0.0600 
    172 H172        2.2245  -14.7225  -38.3736 H         1 UNK         0.0600 
    173 H173        0.7693  -13.7313  -38.4811 H         1 UNK         0.0600 
    174 H174        2.6698  -12.9342  -40.0412 H         1 UNK         0.3000 
    175 H175        3.5711  -11.3913  -41.3326 H         1 UNK         0.0600 
    176 H176        5.1347  -11.3894  -43.2836 H         1 UNK         0.0600 
    177 H177        5.0515  -12.9899  -42.5610 H         1 UNK         0.0600 
    178 H178        4.1957  -12.6581  -44.0639 H         1 UNK         0.0600 
    179 H179        2.1354  -11.1708  -43.9454 H         1 UNK         0.3000 
    180 H180        0.3030   -8.3589  -42.7230 H         1 UNK         0.0600 
    181 H181        1.8851   -8.9538  -45.2857 H         1 UNK         0.0600 
    182 H182        2.0401   -7.5082  -44.2963 H         1 UNK         0.0600 
    183 H183        0.5349   -7.8299  -45.1443 H         1 UNK         0.0600 
    184 H184       -0.1102  -10.3513  -44.7767 H         1 UNK         0.3000 
    185 H185       -1.5530  -12.8225  -42.7734 H         1 UNK         0.0600 
    186 H186       -3.5973  -11.4629  -42.8847 H         1 UNK         0.0600 
    187 H187       -3.2477  -10.9772  -44.5343 H         1 UNK         0.0600 
    188 H188       -3.6153  -12.6630  -44.1671 H         1 UNK         0.0600 
    189 H189       -0.4587  -13.5144  -44.5192 H         1 UNK         0.3000 
    190 H190       -0.3789  -23.0067  -44.7729 H         1 UNK         0.3000 
    191 H191       -3.1551  -22.5277  -45.1208 H         1 UNK         0.0600 
    192 H192       -2.0390  -22.4524  -42.9234 H         1 UNK         0.0600 
    193 H193       -3.3323  -23.6391  -42.8830 H         1 UNK         0.0600 
    194 H194       -1.6594  -24.1724  -43.0131 H         1 UNK         0.0600 
    195 H195       -1.2768  -25.2397  -46.0534 H         1 UNK         0.3000 
    196 H196       -2.8993  -27.4678  -45.8264 H         1 UNK         0.0600 
    197 H197       -1.5180  -28.3421  -47.7324 H         1 UNK         0.0600 
    198 H198       -0.5361  -27.5511  -46.5095 H         1 UNK         0.0600 
    199 H199       -0.8982  -26.7213  -48.0230 H         1 UNK         0.0600 
    200 H200       -4.9894  -27.4763  -46.3061 H         1 UNK         0.3000 
    201 H201       -6.9620  -27.3755  -47.2947 H         1 UNK         0.0600 
    202 H202       -5.9818  -29.0937  -48.7820 H         1 UNK         0.0600 
    203 H203       -5.3874  -27.8539  -49.8791 H         1 UNK         0.0600 
    204 H204       -7.1183  -28.1027  -49.6784 H         1 UNK         0.0600 
    205 H205       -5.7143  -24.8730  -46.7694 H         1 UNK         0.3000 
    206 H206       -5.8781  -22.6806  -47.0485 H         1 UNK         0.0600 
    207 H207       -8.3396  -23.0821  -46.9499 H         1 UNK         0.0600 
    208 H208       -7.9581  -21.7110  -47.9797 H         1 UNK         0.0600 
    209 H209       -8.3994  -23.2500  -48.7036 H         1 UNK         0.0600 
    210 H210       -3.9033  -23.5550  -48.4076 H         1 UNK         0.3000 
    211 H211       -2.4456  -23.3431  -50.0439 H         1 UNK         0.0600 
    212 H212       -4.0615  -20.8507  -50.8123 H         1 UNK         0.0600 
    213 H213       -2.4462  -21.2350  -51.3757 H         1 UNK         0.0600 
    214 H214       -2.7176  -20.9210  -49.6751 H         1 UNK         0.0600 
    215 H215       -4.2471  -25.2644  -50.4600 H         1 UNK         0.3000 
    216 H216       -5.2791  -26.6519  -51.8662 H         1 UNK         0.0600 
    217 H217       -4.3013  -26.9646  -54.1203 H         1 UNK         0.0600 
    218 H218       -3.0237  -26.7084  -52.9422 H         1 UNK         0.0600 
    219 H219       -3.4963  -25.4045  -54.0297 H         1 UNK         0.0600 
    220 H220       -6.9338  -24.7291  -51.2135 H         1 UNK         0.3000 
    221 H221       -8.6491  -23.4025  -51.6387 H         1 UNK         0.0600 
    222 H222       -8.9710  -24.9889  -54.2443 H         1 UNK         0.0600 
    223 H223       -9.5788  -25.4852  -52.6653 H         1 UNK         0.0600 
    224 H224      -10.2166  -24.0438  -53.4400 H         1 UNK         0.0600 
    225 H225       -6.3312  -22.2138  -52.0734 H         1 UNK         0.3000 
    226 H226       -5.2106  -20.5208  -52.8541 H         1 UNK         0.0600 
    227 H227       -7.3663  -19.2864  -52.5773 H         1 UNK         0.0600 
    228 H228       -6.3689  -18.5953  -53.8450 H         1 UNK         0.0600 
    229 H229       -7.7554  -19.5872  -54.2714 H         1 UNK         0.0600 
    230 H230       -5.6586  -23.0203  -54.7667 H         1 UNK         0.3000 
    231 H231       -4.9783  -21.9606  -57.3758 H         1 UNK         0.0600 
    232 H232       -4.7388  -24.8344  -56.3617 H         1 UNK         0.0600 
    233 H233       -4.8085  -24.3000  -58.0321 H         1 UNK         0.0600 
    234 H234       -6.2246  -24.1297  -57.0054 H         1 UNK         0.0600 
    235 H235       -3.1039  -22.5951  -54.5253 H         1 UNK         0.3000 
    236 H236       -0.5880  -23.1611  -55.8261 H         1 UNK         0.0600 
    237 H237       -1.1093  -23.9191  -53.5219 H         1 UNK         0.0600 
    238 H238        0.3291  -22.9120  -53.5349 H         1 UNK         0.0600 
    239 H239       -1.1967  -22.2486  -52.9742 H         1 UNK         0.0600 
    240 H240       -2.2892  -20.3110  -56.0074 H         1 UNK         0.3000 
    241 H241        0.1117  -18.8388  -56.6828 H         1 UNK         0.0600 
    242 H242       -1.9164  -16.7802  -58.8696 H         1 UNK         0.3800 
    243 H243       -0.6206  -16.5529  -57.7321 H         1 UNK         0.3800 
    244 H244       -0.2037  -18.1415  -54.3221 H         1 UNK         0.0800 
    245 H245       -0.3724  -16.8292  -55.4284 H         1 UNK         0.0800 
    246 H246       -2.6740  -19.5376  -53.5178 H         1 UNK         0.0800 
    247 H247       -3.7225  -18.4264  -52.6849 H         1 UNK         0.0800 
@<TRIPOS>BOND
     1    1    2 1    
     2    1  127 1    
     3    1  128 1    
     4    1  129 1    
     5    2    3 2    
     6    2    4 am   BACKBONE|DICT|INTERRES
     7    4    5 1    
     8    4  130 1    
     9    5    6 1    
    10    5   65 1    
    11    5  131 1    
    12    6    7 1    
    13    6  132 1    
    14    6  133 1    
    15    7    8 1    
    16    8    9 1    
    17    8  134 1    
    18    8  135 1    
    19    9   10 ar   
    20    9   14 ar   
    21   10   11 ar   
    22   10  136 1    
    23   11   12 ar   
    24   11  126 1    
    25   12   13 ar   
    26   12  137 1    
    27   13   14 ar   
    28   13   15 1    
    29   14  138 1    
    30   15   16 1    
    31   15  139 1    
    32   15  140 1    
    33   16   17 1    
    34   17   18 1    
    35   17  141 1    
    36   17  142 1    
    37   18   19 1    
    38   18   67 1    
    39   18  143 1    
    40   19   20 am   BACKBONE|DICT|INTERRES
    41   19  144 1    
    42   20   21 2    
    43   20   22 1    
    44   22   23 1    
    45   22   24 1    
    46   22  145 1    
    47   23  146 1    
    48   23  147 1    
    49   23  148 1    
    50   24   25 am   BACKBONE|DICT|INTERRES
    51   24  149 1    
    52   25   26 2    
    53   25   27 1    
    54   27   28 1    
    55   27   29 1    
    56   27  150 1    
    57   28  151 1    
    58   28  152 1    
    59   28  153 1    
    60   29   30 am   BACKBONE|DICT|INTERRES
    61   29  154 1    
    62   30   31 2    
    63   30   32 1    
    64   32   33 1    
    65   32   34 1    
    66   32  155 1    
    67   33  156 1    
    68   33  157 1    
    69   33  158 1    
    70   34   35 am   BACKBONE|DICT|INTERRES
    71   34  159 1    
    72   35   36 2    
    73   35   37 1    
    74   37   38 1    
    75   37   39 1    
    76   37  160 1    
    77   38  161 1    
    78   38  162 1    
    79   38  163 1    
    80   39   40 am   BACKBONE|DICT|INTERRES
    81   39  164 1    
    82   40   41 2    
    83   40   42 1    
    84   42   43 1    
    85   42   44 1    
    86   42  165 1    
    87   43  166 1    
    88   43  167 1    
    89   43  168 1    
    90   44   45 am   BACKBONE|DICT|INTERRES
    91   44  169 1    
    92   45   46 2    
    93   45   47 1    
    94   47   48 1    
    95   47   49 1    
    96   47  170 1    
    97   48  171 1    
    98   48  172 1    
    99   48  173 1    
   100   49   50 am   BACKBONE|DICT|INTERRES
   101   49  174 1    
   102   50   51 2    
   103   50   52 1    
   104   52   53 1    
   105   52   54 1    
   106   52  175 1    
   107   53  176 1    
   108   53  177 1    
   109   53  178 1    
   110   54   55 am   BACKBONE|DICT|INTERRES
   111   54  179 1    
   112   55   56 2    
   113   55   57 1    
   114   57   58 1    
   115   57   59 1    
   116   57  180 1    
   117   58  181 1    
   118   58  182 1    
   119   58  183 1    
   120   59   60 am   BACKBONE|DICT|INTERRES
   121   59  184 1    
   122   60   61 2    
   123   60   62 1    
   124   62   63 1    
   125   62   64 1    
   126   62  185 1    
   127   63  186 1    
   128   63  187 1    
   129   63  188 1    
   130   64   65 am   BACKBONE|DICT|INTERRES
   131   64  189 1    
   132   65   66 2    
   133   67   68 2    
   134   67   69 am   BACKBONE|DICT|INTERRES
   135   69   70 1    
   136   69  190 1    
   137   70   71 1    
   138   70   72 1    
   139   70  191 1    
   140   71  192 1    
   141   71  193 1    
   142   71  194 1    
   143   72   73 2    
   144   72   74 am   BACKBONE|DICT|INTERRES
   145   74   75 1    
   146   74  195 1    
   147   75   76 1    
   148   75   77 1    
   149   75  196 1    
   150   76  197 1    
   151   76  198 1    
   152   76  199 1    
   153   77   78 2    
   154   77   79 am   BACKBONE|DICT|INTERRES
   155   79   80 1    
   156   79  200 1    
   157   80   81 1    
   158   80   82 1    
   159   80  201 1    
   160   81  202 1    
   161   81  203 1    
   162   81  204 1    
   163   82   83 2    
   164   82   84 am   BACKBONE|DICT|INTERRES
   165   84   85 1    
   166   84  205 1    
   167   85   86 1    
   168   85   87 1    
   169   85  206 1    
   170   86  207 1    
   171   86  208 1    
   172   86  209 1    
   173   87   88 2    
   174   87   89 am   BACKBONE|DICT|INTERRES
   175   89   90 1    
   176   89  210 1    
   177   90   91 1    
   178   90   92 1    
   179   90  211 1    
   180   91  212 1    
   181   91  213 1    
   182   91  214 1    
   183   92   93 2    
   184   92   94 am   BACKBONE|DICT|INTERRES
   185   94   95 1    
   186   94  215 1    
   187   95   96 1    
   188   95   97 1    
   189   95  216 1    
   190   96  217 1    
   191   96  218 1    
   192   96  219 1    
   193   97   98 2    
   194   97   99 am   BACKBONE|DICT|INTERRES
   195   99  100 1    
   196   99  220 1    
   197  100  101 1    
   198  100  102 1    
   199  100  221 1    
   200  101  222 1    
   201  101  223 1    
   202  101  224 1    
   203  102  103 2    
   204  102  104 am   BACKBONE|DICT|INTERRES
   205  104  105 1    
   206  104  225 1    
   207  105  106 1    
   208  105  107 1    
   209  105  226 1    
   210  106  227 1    
   211  106  228 1    
   212  106  229 1    
   213  107  108 2    
   214  107  109 am   BACKBONE|DICT|INTERRES
   215  109  110 1    
   216  109  230 1    
   217  110  111 1    
   218  110  112 1    
   219  110  231 1    
   220  111  232 1    
   221  111  233 1    
   222  111  234 1    
   223  112  113 2    
   224  112  114 am   BACKBONE|DICT|INTERRES
   225  114  115 1    
   226  114  235 1    
   227  115  116 1    
   228  115  117 1    
   229  115  236 1    
   230  116  237 1    
   231  116  238 1    
   232  116  239 1    
   233  117  118 2    
   234  117  119 am   BACKBONE|DICT|INTERRES
   235  119  120 1    
   236  119  240 1    
   237  120  121 1    
   238  120  124 1    
   239  120  241 1    
   240  121  122 am   BACKBONE|DICT|INTERRES
   241  121  123 2    
   242  122  242 1    
   243  122  243 1    
   244  124  125 1    
   245  124  244 1    
   246  124  245 1    
   247  125  126 1    
   248  126  246 1    
   249  126  247 1    
@<TRIPOS>SUBSTRUCTURE
     1 UNK         1 GROUP             0       ****    0 ROOT    
