@<TRIPOS>MOLECULE
3R540
247   249    1
SMALL
USER_CHARGES


@<TRIPOS>ATOM
      1 CA         -4.2169  -17.3370  -48.1571 C.3       0 UNK        -0.1800 
      2 C          -3.1846  -16.3951  -47.5555 C.2       0 UNK         0.5000 
      3 O          -2.7743  -16.5755  -46.4085 O.2       0 UNK        -0.5000 
      4 N          -2.7861  -15.3696  -48.3237 N.am      1 UNK        -0.5000 
      5 CA         -1.8024  -14.3337  -47.9581 C.3       1 UNK         0.1400 
      6 C6         -0.3596  -14.8902  -47.8063 C.3       23 UNK        -0.0398 
      7 S7          0.3042  -15.6014  -49.3521 S.3       23 UNK        -0.2404 
      8 C8          0.0793  -17.3832  -49.0667 C.3       23 UNK        -0.0205 
      9 C9          0.9928  -18.2100  -49.9565 C.ar      23 UNK        -0.0193 
     10 C10         0.6689  -18.4488  -51.2959 C.ar      23 UNK        -0.1150 
     11 C11         1.5222  -19.1992  -52.1160 C.ar      23 UNK        -0.0193 
     12 C12         2.6870  -19.7423  -51.5634 C.ar      23 UNK        -0.1150 
     13 C13         3.0168  -19.5186  -50.2235 C.ar      23 UNK        -0.0193 
     14 C14         2.1724  -18.7387  -49.4307 C.ar      23 UNK        -0.1150 
     15 C15         4.2961  -20.1025  -49.6437 C.3       23 UNK        -0.0205 
     16 S16         4.0397  -21.7760  -48.9733 S.3       23 UNK        -0.2404 
     17 C17         3.3164  -21.4108  -47.3379 C.3       23 UNK        -0.0398 
     18 CA          2.2255  -22.4135  -46.8961 C.3       11 UNK         0.1400 
     19 N           1.9711  -22.3043  -45.4581 N.am      11 UNK        -0.5000 
     20 C           1.3254  -23.2162  -44.7191 C.2       10 UNK         0.5000 
     21 O           0.9206  -24.2932  -45.1563 O.2       10 UNK        -0.5000 
     22 CA          1.0692  -22.8527  -43.2447 C.3       10 UNK         0.1400 
     23 CB          2.3000  -23.1756  -42.3844 C.3       10 UNK        -0.1800 
     24 N           0.6969  -21.4477  -43.0650 N.am      10 UNK        -0.5000 
     25 C          -0.4370  -20.9017  -43.5273 C.2       9 UNK         0.5000 
     26 O          -1.3105  -21.5447  -44.1097 O.2       9 UNK        -0.5000 
     27 CA         -0.6076  -19.3805  -43.3474 C.3       9 UNK         0.1400 
     28 CB         -1.1022  -19.0482  -41.9318 C.3       9 UNK        -0.1800 
     29 N           0.6217  -18.6355  -43.6198 N.am      9 UNK        -0.5000 
     30 C           1.2383  -18.5838  -44.8086 C.2       8 UNK         0.5000 
     31 O           0.8217  -19.1373  -45.8231 O.2       8 UNK        -0.5000 
     32 CA          2.5834  -17.8425  -44.8602 C.3       8 UNK         0.1400 
     33 CB          2.3773  -16.3226  -44.9510 C.3       8 UNK        -0.1800 
     34 N           3.4273  -18.1717  -43.7113 N.am      8 UNK        -0.5000 
     35 C           3.9644  -19.3816  -43.4951 C.2       7 UNK         0.5000 
     36 O           3.8286  -20.3359  -44.2599 O.2       7 UNK        -0.5000 
     37 CA          4.7472  -19.5675  -42.1832 C.3       7 UNK         0.1400 
     38 CB          6.1847  -19.0473  -42.3308 C.3       7 UNK        -0.1800 
     39 N           4.1028  -18.9023  -41.0506 N.am      7 UNK        -0.5000 
     40 C           2.9191  -19.2624  -40.5341 C.2       6 UNK         0.5000 
     41 O           2.2616  -20.2228  -40.9321 O.2       6 UNK        -0.5000 
     42 CA          2.3496  -18.3575  -39.4264 C.3       6 UNK         0.1400 
     43 CB          2.9197  -18.7518  -38.0559 C.3       6 UNK        -0.1800 
     44 N           2.6003  -16.9337  -39.6710 N.am      6 UNK        -0.5000 
     45 C           2.1220  -16.2568  -40.7222 C.2       5 UNK         0.5000 
     46 O           1.4209  -16.7636  -41.6029 O.2       5 UNK        -0.5000 
     47 CA          2.5304  -14.7850  -40.8387 C.3       5 UNK         0.1400 
     48 CB          3.9122  -14.6466  -41.4997 C.3       5 UNK        -0.1800 
     49 N           1.5286  -14.1130  -41.6526 N.am      5 UNK        -0.5000 
     50 C           1.1301  -12.8461  -41.5185 C.2       4 UNK         0.5000 
     51 O           1.6566  -12.0428  -40.7470 O.2       4 UNK        -0.5000 
     52 CA         -0.0659  -12.3952  -42.3810 C.3       4 UNK         0.1400 
     53 CB          0.4213  -11.5674  -43.5800 C.3       4 UNK        -0.1800 
     54 N          -0.9222  -13.4806  -42.8742 N.am      4 UNK        -0.5000 
     55 C          -1.6592  -14.3040  -42.1096 C.2       3 UNK         0.5000 
     56 O          -1.6149  -14.3107  -40.8783 O.2       3 UNK        -0.5000 
     57 CA         -2.6310  -15.2474  -42.8583 C.3       3 UNK         0.1400 
     58 CB         -3.6914  -15.8853  -41.9381 C.3       3 UNK        -0.1800 
     59 N          -3.2683  -14.5978  -44.0096 N.am      3 UNK        -0.5000 
     60 C          -3.9545  -13.4410  -44.0130 C.2       2 UNK         0.5000 
     61 O          -4.3053  -12.8556  -42.9872 O.2       2 UNK        -0.5000 
     62 CA         -4.2823  -12.8083  -45.3870 C.3       2 UNK         0.1400 
     63 CB         -4.0643  -11.2809  -45.3785 C.3       2 UNK        -0.1800 
     64 N          -3.5745  -13.4118  -46.5248 N.am      2 UNK        -0.5000 
     65 C          -2.2485  -13.5166  -46.7194 C.2       1 UNK         0.5000 
     66 O          -1.4092  -13.0568  -45.9429 O.2       1 UNK        -0.5000 
     67 C           0.9210  -22.2912  -47.7180 C.2       11 UNK         0.5000 
     68 O           0.7419  -23.0418  -48.6781 O.2       11 UNK        -0.5000 
     69 N           0.0157  -21.3911  -47.3012 N.am      12 UNK        -0.5000 
     70 CA         -1.3290  -21.2346  -47.8565 C.3       12 UNK         0.1400 
     71 CB         -2.0268  -20.0199  -47.2305 C.3       12 UNK        -0.1800 
     72 C          -2.1977  -22.4886  -47.6736 C.2       12 UNK         0.5000 
     73 O          -2.8373  -22.9240  -48.6335 O.2       12 UNK        -0.5000 
     74 N          -2.1865  -23.0301  -46.4465 N.am      13 UNK        -0.5000 
     75 CA         -2.8941  -24.2263  -45.9866 C.3       13 UNK         0.1400 
     76 CB         -2.3347  -25.4746  -46.7047 C.3       13 UNK        -0.1800 
     77 C          -4.4306  -24.1133  -46.1068 C.2       13 UNK         0.5000 
     78 O          -4.9674  -23.0323  -46.3623 O.2       13 UNK        -0.5000 
     79 N          -5.1238  -25.2460  -45.9281 N.am      14 UNK        -0.5000 
     80 CA         -6.5728  -25.3733  -46.1175 C.3       14 UNK         0.1400 
     81 CB         -7.0353  -26.7187  -45.5373 C.3       14 UNK        -0.1800 
     82 C          -7.0033  -25.2440  -47.5940 C.2       14 UNK         0.5000 
     83 O          -8.1633  -24.9310  -47.8633 O.2       14 UNK        -0.5000 
     84 N          -6.0610  -25.4790  -48.5187 N.am      15 UNK        -0.5000 
     85 CA         -6.2354  -25.3289  -49.9627 C.3       15 UNK         0.1400 
     86 CB         -5.0454  -25.9917  -50.6746 C.3       15 UNK        -0.1800 
     87 C          -6.3701  -23.8627  -50.4166 C.2       15 UNK         0.5000 
     88 O          -6.9722  -23.6222  -51.4620 O.2       15 UNK        -0.5000 
     89 N          -5.8058  -22.9272  -49.6353 N.am      16 UNK        -0.5000 
     90 CA         -5.6944  -21.4916  -49.9053 C.3       16 UNK         0.1400 
     91 CB         -7.0801  -20.8149  -49.9442 C.3       16 UNK        -0.1800 
     92 C          -4.8568  -21.2280  -51.1708 C.2       16 UNK         0.5000 
     93 O          -5.3772  -20.7541  -52.1842 O.2       16 UNK        -0.5000 
     94 N          -3.5603  -21.5621  -51.0871 N.am      17 UNK        -0.5000 
     95 CA         -2.5747  -21.4938  -52.1746 C.3       17 UNK         0.1400 
     96 CB         -1.1909  -21.8973  -51.6439 C.3       17 UNK        -0.1800 
     97 C          -2.4916  -20.1351  -52.8994 C.2       17 UNK         0.5000 
     98 O          -2.2067  -20.1188  -54.0956 O.2       17 UNK        -0.5000 
     99 N          -2.8041  -19.0355  -52.1977 N.am      18 UNK        -0.5000 
    100 CA        -2.9039  -17.6788  -52.7514 C.3       18 UNK         0.1400 
    101 CB        -3.1311  -16.6841  -51.6051 C.3       18 UNK        -0.1800 
    102 C         -3.9916  -17.5047  -53.8316 C.2       18 UNK         0.5000 
    103 O         -3.9316  -16.5366  -54.5899 O.2       18 UNK        -0.5000 
    104 N         -4.9531  -18.4336  -53.8868 N.am      19 UNK        -0.5000 
    105 CA        -5.9203  -18.5689  -54.9695 C.3       19 UNK         0.1400 
    106 CB        -7.3393  -18.6060  -54.3794 C.3       19 UNK        -0.1800 
    107 C         -5.6351  -19.8447  -55.7788 C.2       19 UNK         0.5000 
    108 O         -5.6413  -19.7951  -57.0088 O.2       19 UNK        -0.5000 
    109 N         -5.4030  -20.9655  -55.0808 N.am      20 UNK        -0.5000 
    110 CA        -5.3469  -22.3026  -55.6721 C.3       20 UNK         0.1400 
    111 CB        -5.5730  -23.3439  -54.5659 C.3       20 UNK        -0.1800 
    112 C         -4.0641  -22.6299  -56.4597 C.2       20 UNK         0.5000 
    113 O         -4.1349  -23.4554  -57.3717 O.2       20 UNK        -0.5000 
    114 N         -2.9245  -22.0271  -56.0942 N.am      21 UNK        -0.5000 
    115 CA        -1.6087  -22.3603  -56.6500 C.3       21 UNK         0.1400 
    116 CB        -0.7275  -22.9650  -55.5458 C.3       21 UNK        -0.1800 
    117 C         -0.9164  -21.1446  -57.2822 C.2       21 UNK         0.5000 
    118 O         -0.3470  -21.2792  -58.3663 O.2       21 UNK        -0.5000 
    119 N         -0.9740  -19.9900  -56.6091 N.am      22 UNK        -0.5000 
    120 CA        -0.3539  -18.7275  -57.0426 C.3       22 UNK         0.1400 
    121 C         -1.3629  -17.5499  -57.1638 C.2       22 UNK         0.5000 
    122 N         -2.6652  -17.8039  -57.1797 N.am      22 UNK        -0.7600 
    123 O         -0.9653  -16.3938  -57.2813 O.2       22 UNK        -0.5000 
    124 C124        0.9257  -18.3966  -56.2253 C.3       23 UNK        -0.0398 
    125 S125        0.6593  -17.9447  -54.4720 S.3       23 UNK        -0.2404 
    126 C126        1.2060  -19.4461  -53.5910 C.3       23 UNK        -0.0205 
    127 H127       -4.9994  -16.7792  -48.6717 H         1 UNK         0.0600 
    128 H128       -4.6883  -17.9376  -47.3790 H         1 UNK         0.0600 
    129 H129       -3.7444  -18.0094  -48.8718 H         1 UNK         0.0600 
    130 H130       -3.1782  -15.2716  -49.2492 H         1 UNK         0.3000 
    131 H131       -1.7930  -13.6196  -48.7828 H         1 UNK         0.0600 
    132 H132       -0.3107  -15.6231  -47.0002 H         1 UNK         0.0800 
    133 H133        0.3280  -14.0918  -47.5221 H         1 UNK         0.0800 
    134 H134        0.2809  -17.6133  -48.0198 H         1 UNK         0.0800 
    135 H135       -0.9591  -17.6569  -49.2482 H         1 UNK         0.0800 
    136 H136       -0.2369  -18.0289  -51.7042 H         1 UNK         0.1150 
    137 H137        3.3469  -20.3380  -52.1786 H         1 UNK         0.1150 
    138 H138        2.4287  -18.5386  -48.4007 H         1 UNK         0.1150 
    139 H139        5.0594  -20.1523  -50.4217 H         1 UNK         0.0800 
    140 H140        4.7000  -19.4493  -48.8685 H         1 UNK         0.0800 
    141 H141        2.9344  -20.3926  -47.2945 H         1 UNK         0.0800 
    142 H142        4.1461  -21.4420  -46.6309 H         1 UNK         0.0800 
    143 H143        2.6171  -23.4186  -47.0683 H         1 UNK         0.0600 
    144 H144        2.3255  -21.4710  -45.0002 H         1 UNK         0.3000 
    145 H145        0.2387  -23.4675  -42.8916 H         1 UNK         0.0600 
    146 H146        2.0965  -23.0056  -41.3271 H         1 UNK         0.0600 
    147 H147        2.5917  -24.2207  -42.4952 H         1 UNK         0.0600 
    148 H148        3.1580  -22.5630  -42.6625 H         1 UNK         0.0600 
    149 H149        1.3404  -20.8706  -42.5313 H         1 UNK         0.3000 
    150 H150       -1.3631  -19.0413  -44.0591 H         1 UNK         0.0600 
    151 H151       -2.0548  -19.5379  -41.7264 H         1 UNK         0.0600 
    152 H152       -1.2519  -17.9762  -41.8065 H         1 UNK         0.0600 
    153 H153       -0.3931  -19.3746  -41.1708 H         1 UNK         0.0600 
    154 H154        1.0193  -18.1147  -42.8422 H         1 UNK         0.3000 
    155 H155        3.1062  -18.1642  -45.7636 H         1 UNK         0.0600 
    156 H156        1.8255  -15.9313  -44.0969 H         1 UNK         0.0600 
    157 H157        1.8158  -16.0630  -45.8488 H         1 UNK         0.0600 
    158 H158        3.3308  -15.7972  -45.0043 H         1 UNK         0.0600 
    159 H159        3.5434  -17.4572  -43.0098 H         1 UNK         0.3000 
    160 H160        4.7910  -20.6376  -41.9696 H         1 UNK         0.0600 
    161 H161        6.2094  -17.9733  -42.5197 H         1 UNK         0.0600 
    162 H162        6.6935  -19.5387  -43.1613 H         1 UNK         0.0600 
    163 H163        6.7689  -19.2437  -41.4317 H         1 UNK         0.0600 
    164 H164        4.5747  -18.1001  -40.6609 H         1 UNK         0.3000 
    165 H165        1.2682  -18.5073  -39.4017 H         1 UNK         0.0600 
    166 H166        2.4583  -18.1730  -37.2556 H         1 UNK         0.0600 
    167 H167        2.7308  -19.8050  -37.8436 H         1 UNK         0.0600 
    168 H168        3.9979  -18.5949  -38.0059 H         1 UNK         0.0600 
    169 H169        3.1729  -16.4524  -38.9923 H         1 UNK         0.3000 
    170 H170        2.5510  -14.3502  -39.8370 H         1 UNK         0.0600 
    171 H171        4.6812  -15.1536  -40.9158 H         1 UNK         0.0600 
    172 H172        3.9240  -15.0728  -42.5033 H         1 UNK         0.0600 
    173 H173        4.2052  -13.5996  -41.5802 H         1 UNK         0.0600 
    174 H174        1.0010  -14.7307  -42.2554 H         1 UNK         0.3000 
    175 H175       -0.6855  -11.7510  -41.7540 H         1 UNK         0.0600 
    176 H176        1.0020  -12.1741  -44.2760 H         1 UNK         0.0600 
    177 H177       -0.4174  -11.1385  -44.1290 H         1 UNK         0.0600 
    178 H178        1.0534  -10.7392  -43.2571 H         1 UNK         0.0600 
    179 H179       -1.0502  -13.5151  -43.8799 H         1 UNK         0.3000 
    180 H180       -2.0178  -16.0531  -43.2649 H         1 UNK         0.0600 
    181 H181       -4.3353  -16.5665  -42.4944 H         1 UNK         0.0600 
    182 H182       -4.3250  -15.1328  -41.4679 H         1 UNK         0.0600 
    183 H183       -3.2224  -16.4628  -41.1407 H         1 UNK         0.0600 
    184 H184       -3.0617  -15.0233  -44.9064 H         1 UNK         0.3000 
    185 H185       -5.3440  -12.9919  -45.5568 H         1 UNK         0.0600 
    186 H186       -4.7010  -10.7960  -44.6377 H         1 UNK         0.0600 
    187 H187       -3.0321  -11.0213  -45.1409 H         1 UNK         0.0600 
    188 H188       -4.3063  -10.8422  -46.3465 H         1 UNK         0.0600 
    189 H189       -4.1699  -13.8517  -47.2124 H         1 UNK         0.3000 
    190 H190        0.2699  -20.7505  -46.5534 H         1 UNK         0.3000 
    191 H191       -1.2259  -21.0447  -48.9224 H         1 UNK         0.0600 
    192 H192       -3.0272  -19.8984  -47.6442 H         1 UNK         0.0600 
    193 H193       -1.4765  -19.1006  -47.4158 H         1 UNK         0.0600 
    194 H194       -2.1377  -20.1227  -46.1523 H         1 UNK         0.0600 
    195 H195       -1.6889  -22.5259  -45.7173 H         1 UNK         0.3000 
    196 H196       -2.6692  -24.3161  -44.9230 H         1 UNK         0.0600 
    197 H197       -2.6262  -25.5042  -47.7552 H         1 UNK         0.0600 
    198 H198       -1.2451  -25.4912  -46.6647 H         1 UNK         0.0600 
    199 H199       -2.6808  -26.3971  -46.2383 H         1 UNK         0.0600 
    200 H200       -4.6254  -26.0937  -45.6979 H         1 UNK         0.3000 
    201 H201       -7.0638  -24.5725  -45.5605 H         1 UNK         0.0600 
    202 H202       -6.5671  -27.5606  -46.0489 H         1 UNK         0.0600 
    203 H203       -8.1156  -26.8355  -45.6346 H         1 UNK         0.0600 
    204 H204       -6.7967  -26.7942  -44.4762 H         1 UNK         0.0600 
    205 H205       -5.1404  -25.7417  -48.2013 H         1 UNK         0.3000 
    206 H206       -7.1481  -25.8528  -50.2543 H         1 UNK         0.0600 
    207 H207       -4.9731  -27.0500  -50.4231 H         1 UNK         0.0600 
    208 H208       -5.1507  -25.9226  -51.7583 H         1 UNK         0.0600 
    209 H209       -4.1009  -25.5157  -50.4064 H         1 UNK         0.0600 
    210 H210       -5.3172  -23.2417  -48.8065 H         1 UNK         0.3000 
    211 H211       -5.1456  -21.0618  -49.0658 H         1 UNK         0.0600 
    212 H212       -6.9793  -19.7342  -50.0504 H         1 UNK         0.0600 
    213 H213       -7.6343  -21.0020  -49.0245 H         1 UNK         0.0600 
    214 H214       -7.6875  -21.1663  -50.7786 H         1 UNK         0.0600 
    215 H215       -3.2490  -22.0169  -50.2316 H         1 UNK         0.3000 
    216 H216       -2.8765  -22.2371  -52.9137 H         1 UNK         0.0600 
    217 H217       -0.7305  -21.0995  -51.0625 H         1 UNK         0.0600 
    218 H218       -0.5082  -22.1213  -52.4620 H         1 UNK         0.0600 
    219 H219       -1.2406  -22.7895  -51.0190 H         1 UNK         0.0600 
    220 H220       -3.0526  -19.1483  -51.2275 H         1 UNK         0.3000 
    221 H221       -1.9516  -17.4408  -53.2262 H         1 UNK         0.0600 
    222 H222       -3.1663  -15.6598  -51.9787 H         1 UNK         0.0600 
    223 H223       -2.3225  -16.7310  -50.8784 H         1 UNK         0.0600 
    224 H224       -4.0723  -16.8777  -51.0904 H         1 UNK         0.0600 
    225 H225       -4.9439  -19.1834  -53.2024 H         1 UNK         0.3000 
    226 H226       -5.8604  -17.7210  -55.6549 H         1 UNK         0.0600 
    227 H227       -7.5672  -17.6801  -53.8512 H         1 UNK         0.0600 
    228 H228       -8.0863  -18.7253  -55.1651 H         1 UNK         0.0600 
    229 H229       -7.4655  -19.4302  -53.6759 H         1 UNK         0.0600 
    230 H230       -5.4287  -20.9251  -54.0658 H         1 UNK         0.3000 
    231 H231       -6.1785  -22.3888  -56.3750 H         1 UNK         0.0600 
    232 H232       -4.8129  -23.2834  -53.7874 H         1 UNK         0.0600 
    233 H233       -5.5526  -24.3580  -54.9672 H         1 UNK         0.0600 
    234 H234       -6.5452  -23.2040  -54.0938 H         1 UNK         0.0600 
    235 H235       -2.9402  -21.3263  -55.3603 H         1 UNK         0.3000 
    236 H236       -1.7029  -23.1109  -57.4373 H         1 UNK         0.0600 
    237 H237       -1.1995  -23.8385  -55.0959 H         1 UNK         0.0600 
    238 H238        0.2354  -23.2839  -55.9467 H         1 UNK         0.0600 
    239 H239       -0.5278  -22.2447  -54.7543 H         1 UNK         0.0600 
    240 H240       -1.4391  -19.9594  -55.7036 H         1 UNK         0.3000 
    241 H241       -0.0163  -18.8493  -58.0730 H         1 UNK         0.0600 
    242 H242       -3.3143  -17.0350  -57.2323 H         1 UNK         0.3800 
    243 H243       -3.0066  -18.7500  -57.1321 H         1 UNK         0.3800 
    244 H244        1.6186  -19.2363  -56.2849 H         1 UNK         0.0800 
    245 H245        1.4512  -17.5644  -56.6962 H         1 UNK         0.0800 
    246 H246        2.0898  -19.8421  -54.0927 H         1 UNK         0.0800 
    247 H247        0.4376  -20.2124  -53.6734 H         1 UNK         0.0800 
@<TRIPOS>BOND
     1    1    2 1    
     2    1  127 1    
     3    1  128 1    
     4    1  129 1    
     5    2    3 2    
     6    2    4 am   BACKBONE|DICT|INTERRES
     7    4    5 1    
     8    4  130 1    
     9    5    6 1    
    10    5   65 1    
    11    5  131 1    
    12    6    7 1    
    13    6  132 1    
    14    6  133 1    
    15    7    8 1    
    16    8    9 1    
    17    8  134 1    
    18    8  135 1    
    19    9   10 ar   
    20    9   14 ar   
    21   10   11 ar   
    22   10  136 1    
    23   11   12 ar   
    24   11  126 1    
    25   12   13 ar   
    26   12  137 1    
    27   13   14 ar   
    28   13   15 1    
    29   14  138 1    
    30   15   16 1    
    31   15  139 1    
    32   15  140 1    
    33   16   17 1    
    34   17   18 1    
    35   17  141 1    
    36   17  142 1    
    37   18   19 1    
    38   18   67 1    
    39   18  143 1    
    40   19   20 am   BACKBONE|DICT|INTERRES
    41   19  144 1    
    42   20   21 2    
    43   20   22 1    
    44   22   23 1    
    45   22   24 1    
    46   22  145 1    
    47   23  146 1    
    48   23  147 1    
    49   23  148 1    
    50   24   25 am   BACKBONE|DICT|INTERRES
    51   24  149 1    
    52   25   26 2    
    53   25   27 1    
    54   27   28 1    
    55   27   29 1    
    56   27  150 1    
    57   28  151 1    
    58   28  152 1    
    59   28  153 1    
    60   29   30 am   BACKBONE|DICT|INTERRES
    61   29  154 1    
    62   30   31 2    
    63   30   32 1    
    64   32   33 1    
    65   32   34 1    
    66   32  155 1    
    67   33  156 1    
    68   33  157 1    
    69   33  158 1    
    70   34   35 am   BACKBONE|DICT|INTERRES
    71   34  159 1    
    72   35   36 2    
    73   35   37 1    
    74   37   38 1    
    75   37   39 1    
    76   37  160 1    
    77   38  161 1    
    78   38  162 1    
    79   38  163 1    
    80   39   40 am   BACKBONE|DICT|INTERRES
    81   39  164 1    
    82   40   41 2    
    83   40   42 1    
    84   42   43 1    
    85   42   44 1    
    86   42  165 1    
    87   43  166 1    
    88   43  167 1    
    89   43  168 1    
    90   44   45 am   BACKBONE|DICT|INTERRES
    91   44  169 1    
    92   45   46 2    
    93   45   47 1    
    94   47   48 1    
    95   47   49 1    
    96   47  170 1    
    97   48  171 1    
    98   48  172 1    
    99   48  173 1    
   100   49   50 am   BACKBONE|DICT|INTERRES
   101   49  174 1    
   102   50   51 2    
   103   50   52 1    
   104   52   53 1    
   105   52   54 1    
   106   52  175 1    
   107   53  176 1    
   108   53  177 1    
   109   53  178 1    
   110   54   55 am   BACKBONE|DICT|INTERRES
   111   54  179 1    
   112   55   56 2    
   113   55   57 1    
   114   57   58 1    
   115   57   59 1    
   116   57  180 1    
   117   58  181 1    
   118   58  182 1    
   119   58  183 1    
   120   59   60 am   BACKBONE|DICT|INTERRES
   121   59  184 1    
   122   60   61 2    
   123   60   62 1    
   124   62   63 1    
   125   62   64 1    
   126   62  185 1    
   127   63  186 1    
   128   63  187 1    
   129   63  188 1    
   130   64   65 am   BACKBONE|DICT|INTERRES
   131   64  189 1    
   132   65   66 2    
   133   67   68 2    
   134   67   69 am   BACKBONE|DICT|INTERRES
   135   69   70 1    
   136   69  190 1    
   137   70   71 1    
   138   70   72 1    
   139   70  191 1    
   140   71  192 1    
   141   71  193 1    
   142   71  194 1    
   143   72   73 2    
   144   72   74 am   BACKBONE|DICT|INTERRES
   145   74   75 1    
   146   74  195 1    
   147   75   76 1    
   148   75   77 1    
   149   75  196 1    
   150   76  197 1    
   151   76  198 1    
   152   76  199 1    
   153   77   78 2    
   154   77   79 am   BACKBONE|DICT|INTERRES
   155   79   80 1    
   156   79  200 1    
   157   80   81 1    
   158   80   82 1    
   159   80  201 1    
   160   81  202 1    
   161   81  203 1    
   162   81  204 1    
   163   82   83 2    
   164   82   84 am   BACKBONE|DICT|INTERRES
   165   84   85 1    
   166   84  205 1    
   167   85   86 1    
   168   85   87 1    
   169   85  206 1    
   170   86  207 1    
   171   86  208 1    
   172   86  209 1    
   173   87   88 2    
   174   87   89 am   BACKBONE|DICT|INTERRES
   175   89   90 1    
   176   89  210 1    
   177   90   91 1    
   178   90   92 1    
   179   90  211 1    
   180   91  212 1    
   181   91  213 1    
   182   91  214 1    
   183   92   93 2    
   184   92   94 am   BACKBONE|DICT|INTERRES
   185   94   95 1    
   186   94  215 1    
   187   95   96 1    
   188   95   97 1    
   189   95  216 1    
   190   96  217 1    
   191   96  218 1    
   192   96  219 1    
   193   97   98 2    
   194   97   99 am   BACKBONE|DICT|INTERRES
   195   99  100 1    
   196   99  220 1    
   197  100  101 1    
   198  100  102 1    
   199  100  221 1    
   200  101  222 1    
   201  101  223 1    
   202  101  224 1    
   203  102  103 2    
   204  102  104 am   BACKBONE|DICT|INTERRES
   205  104  105 1    
   206  104  225 1    
   207  105  106 1    
   208  105  107 1    
   209  105  226 1    
   210  106  227 1    
   211  106  228 1    
   212  106  229 1    
   213  107  108 2    
   214  107  109 am   BACKBONE|DICT|INTERRES
   215  109  110 1    
   216  109  230 1    
   217  110  111 1    
   218  110  112 1    
   219  110  231 1    
   220  111  232 1    
   221  111  233 1    
   222  111  234 1    
   223  112  113 2    
   224  112  114 am   BACKBONE|DICT|INTERRES
   225  114  115 1    
   226  114  235 1    
   227  115  116 1    
   228  115  117 1    
   229  115  236 1    
   230  116  237 1    
   231  116  238 1    
   232  116  239 1    
   233  117  118 2    
   234  117  119 am   BACKBONE|DICT|INTERRES
   235  119  120 1    
   236  119  240 1    
   237  120  121 1    
   238  120  124 1    
   239  120  241 1    
   240  121  122 am   BACKBONE|DICT|INTERRES
   241  121  123 2    
   242  122  242 1    
   243  122  243 1    
   244  124  125 1    
   245  124  244 1    
   246  124  245 1    
   247  125  126 1    
   248  126  246 1    
   249  126  247 1    
@<TRIPOS>SUBSTRUCTURE
     1 UNK         1 GROUP             0       ****    0 ROOT    
