@<TRIPOS>MOLECULE
3R540
247   249    1
SMALL
USER_CHARGES


@<TRIPOS>ATOM
      1 CA         -2.7597  -11.7838  -46.9228 C.3       0 UNK        -0.1800 
      2 C          -1.4274  -11.9504  -46.2080 C.2       0 UNK         0.5000 
      3 O          -1.2947  -11.5369  -45.0573 O.2       0 UNK        -0.5000 
      4 N          -0.4452  -12.5707  -46.8737 N.am      1 UNK        -0.5000 
      5 CA          0.9060  -12.8318  -46.3584 C.3       1 UNK         0.1400 
      6 C6          1.8407  -13.4191  -47.4485 C.3       23 UNK        -0.0398 
      7 S7          1.1692  -14.9197  -48.2451 S.3       23 UNK        -0.2404 
      8 C8          2.4890  -15.3471  -49.4200 C.3       23 UNK        -0.0205 
      9 C9          2.2204  -16.7237  -50.0035 C.ar      23 UNK        -0.0193 
     10 C10         1.4891  -16.8634  -51.1857 C.ar      23 UNK        -0.1150 
     11 C11         1.1544  -18.1333  -51.6662 C.ar      23 UNK        -0.0193 
     12 C12         1.5653  -19.2667  -50.9570 C.ar      23 UNK        -0.1150 
     13 C13         2.3114  -19.1414  -49.7808 C.ar      23 UNK        -0.0193 
     14 C14         2.6528  -17.8648  -49.3239 C.ar      23 UNK        -0.1150 
     15 C15         2.7242  -20.3905  -49.0058 C.3       23 UNK        -0.0205 
     16 S16         2.4586  -20.2692  -47.2012 S.3       23 UNK        -0.2404 
     17 C17         0.6717  -19.9046  -47.0910 C.3       23 UNK        -0.0398 
     18 CA         -0.1737  -21.1578  -46.7704 C.3       11 UNK         0.1400 
     19 N           0.1961  -21.7700  -45.4911 N.am      11 UNK        -0.5000 
     20 C          -0.0895  -23.0357  -45.1503 C.2       10 UNK         0.5000 
     21 O          -0.6408  -23.8344  -45.9055 O.2       10 UNK        -0.5000 
     22 CA          0.2733  -23.4898  -43.7212 C.3       10 UNK         0.1400 
     23 CB          1.6304  -24.2091  -43.7195 C.3       10 UNK        -0.1800 
     24 N           0.3158  -22.4012  -42.7442 N.am      10 UNK        -0.5000 
     25 C          -0.6959  -21.5748  -42.4424 C.2       9 UNK         0.5000 
     26 O          -1.8295  -21.6918  -42.9065 O.2       9 UNK        -0.5000 
     27 CA         -0.3676  -20.3774  -41.5269 C.3       9 UNK         0.1400 
     28 CB         -0.8173  -20.6641  -40.0873 C.3       9 UNK        -0.1800 
     29 N           1.0546  -20.0111  -41.5263 N.am      9 UNK        -0.5000 
     30 C           1.7400  -19.5945  -42.6002 C.2       8 UNK         0.5000 
     31 O           1.2362  -19.4502  -43.7172 O.2       8 UNK        -0.5000 
     32 CA          3.2553  -19.4105  -42.4039 C.3       8 UNK         0.1400 
     33 CB          3.9696  -20.7653  -42.5374 C.3       8 UNK        -0.1800 
     34 N           3.8205  -18.4909  -43.3875 N.am      8 UNK        -0.5000 
     35 C           3.6767  -17.1629  -43.3495 C.2       7 UNK         0.5000 
     36 O           3.1133  -16.5597  -42.4316 O.2       7 UNK        -0.5000 
     37 CA          4.2559  -16.3928  -44.5466 C.3       7 UNK         0.1400 
     38 CB          3.3913  -16.6144  -45.7950 C.3       7 UNK        -0.1800 
     39 N           4.2751  -14.9688  -44.2390 N.am      7 UNK        -0.5000 
     40 C           5.3617  -14.1952  -44.1389 C.2       6 UNK         0.5000 
     41 O           6.4992  -14.5559  -44.4430 O.2       6 UNK        -0.5000 
     42 CA          5.1339  -12.7821  -43.5701 C.3       6 UNK         0.1400 
     43 CB          4.8452  -11.7807  -44.6993 C.3       6 UNK        -0.1800 
     44 N           4.0159  -12.7722  -42.6280 N.am      6 UNK        -0.5000 
     45 C           4.0779  -13.1897  -41.3566 C.2       5 UNK         0.5000 
     46 O           5.1318  -13.4821  -40.7887 O.2       5 UNK        -0.5000 
     47 CA          2.7315  -13.3310  -40.6137 C.3       5 UNK         0.1400 
     48 CB          2.8604  -13.1582  -39.0860 C.3       5 UNK        -0.1800 
     49 N           1.6752  -12.4735  -41.1620 N.am      5 UNK        -0.5000 
     50 C           1.6149  -11.1329  -41.1579 C.2       4 UNK         0.5000 
     51 O           2.4534  -10.4080  -40.6215 O.2       4 UNK        -0.5000 
     52 CA          0.4308  -10.4833  -41.9049 C.3       4 UNK         0.1400 
     53 CB          0.9252   -9.8103  -43.1955 C.3       4 UNK        -0.1800 
     54 N          -0.6313  -11.4294  -42.2529 N.am      4 UNK        -0.5000 
     55 C          -1.4947  -11.9806  -41.3892 C.2       3 UNK         0.5000 
     56 O          -1.5433  -11.6964  -40.1922 O.2       3 UNK        -0.5000 
     57 CA         -2.4280  -13.0657  -41.9561 C.3       3 UNK         0.1400 
     58 CB         -3.6843  -12.4394  -42.5808 C.3       3 UNK        -0.1800 
     59 N          -1.7534  -13.9056  -42.9493 N.am      3 UNK        -0.5000 
     60 C          -0.8292  -14.8331  -42.6587 C.2       2 UNK         0.5000 
     61 O          -0.4698  -15.1016  -41.5131 O.2       2 UNK        -0.5000 
     62 CA         -0.1727  -15.5569  -43.8485 C.3       2 UNK         0.1400 
     63 CB         -0.9939  -16.7846  -44.2661 C.3       2 UNK        -0.1800 
     64 N           0.0074  -14.6813  -45.0063 N.am      2 UNK        -0.5000 
     65 C           0.9100  -13.6934  -45.0757 C.2       1 UNK         0.5000 
     66 O           1.7028  -13.4322  -44.1702 O.2       1 UNK        -0.5000 
     67 C          -1.6794  -20.8216  -46.8257 C.2       11 UNK         0.5000 
     68 O          -2.2736  -20.9018  -47.9002 O.2       11 UNK        -0.5000 
     69 N          -2.2785  -20.4717  -45.6773 N.am      12 UNK        -0.5000 
     70 CA         -3.7164  -20.2234  -45.5448 C.3       12 UNK         0.1400 
     71 CB         -3.9780  -19.3310  -44.3216 C.3       12 UNK        -0.1800 
     72 C          -4.5092  -21.5380  -45.4407 C.2       12 UNK         0.5000 
     73 O          -5.5946  -21.6452  -46.0104 O.2       12 UNK        -0.5000 
     74 N          -3.9334  -22.5240  -44.7411 N.am      13 UNK        -0.5000 
     75 CA         -4.4774  -23.8701  -44.5471 C.3       13 UNK         0.1400 
     76 CB         -3.9158  -24.4290  -43.2284 C.3       13 UNK        -0.1800 
     77 C          -4.2002  -24.8314  -45.7262 C.2       13 UNK         0.5000 
     78 O          -4.4462  -26.0319  -45.5933 O.2       13 UNK        -0.5000 
     79 N          -3.6755  -24.3091  -46.8427 N.am      14 UNK        -0.5000 
     80 CA         -3.3355  -25.0473  -48.0587 C.3       14 UNK         0.1400 
     81 CB         -2.5816  -24.1009  -49.0067 C.3       14 UNK        -0.1800 
     82 C          -4.5615  -25.6573  -48.7694 C.2       14 UNK         0.5000 
     83 O          -5.6941  -25.2138  -48.5596 O.2       14 UNK        -0.5000 
     84 N          -4.2964  -26.6575  -49.6205 N.am      15 UNK        -0.5000 
     85 CA         -5.2797  -27.3324  -50.4706 C.3       15 UNK         0.1400 
     86 CB         -4.5882  -28.5114  -51.1737 C.3       15 UNK        -0.1800 
     87 C          -5.9078  -26.3903  -51.5152 C.2       15 UNK         0.5000 
     88 O          -5.2982  -25.3834  -51.8804 O.2       15 UNK        -0.5000 
     89 N          -7.0963  -26.7584  -52.0119 N.am      16 UNK        -0.5000 
     90 CA         -7.8906  -25.9759  -52.9652 C.3       16 UNK         0.1400 
     91 CB         -9.2077  -26.7114  -53.2543 C.3       16 UNK        -0.1800 
     92 C          -7.1590  -25.6434  -54.2796 C.2       16 UNK         0.5000 
     93 O          -7.3012  -24.5305  -54.7839 O.2       16 UNK        -0.5000 
     94 N          -6.3607  -26.5922  -54.7885 N.am      17 UNK        -0.5000 
     95 CA         -5.5346  -26.4156  -55.9851 C.3       17 UNK         0.1400 
     96 CB         -4.9763  -27.7772  -56.4251 C.3       17 UNK        -0.1800 
     97 C          -4.3943  -25.4027  -55.7724 C.2       17 UNK         0.5000 
     98 O          -4.1321  -24.5835  -56.6534 O.2       17 UNK        -0.5000 
     99 N          -3.7625  -25.4538  -54.5920 N.am      18 UNK        -0.5000 
    100 CA        -2.7149  -24.5223  -54.1764 C.3       18 UNK         0.1400 
    101 CB        -1.9853  -25.0813  -52.9462 C.3       18 UNK        -0.1800 
    102 C         -3.2774  -23.1180  -53.9019 C.2       18 UNK         0.5000 
    103 O         -2.6700  -22.1310  -54.3133 O.2       18 UNK        -0.5000 
    104 N         -4.4515  -23.0549  -53.2596 N.am      19 UNK        -0.5000 
    105 CA        -5.2025  -21.8250  -53.0107 C.3       19 UNK         0.1400 
    106 CB        -6.3993  -22.1308  -52.0987 C.3       19 UNK        -0.1800 
    107 C         -5.6591  -21.1353  -54.3103 C.2       19 UNK         0.5000 
    108 O         -5.5838  -19.9102  -54.3989 O.2       19 UNK        -0.5000 
    109 N         -6.0814  -21.9288  -55.3060 N.am      20 UNK        -0.5000 
    110 CA        -6.4184  -21.4628  -56.6514 C.3       20 UNK         0.1400 
    111 CB        -7.1000  -22.5894  -57.4425 C.3       20 UNK        -0.1800 
    112 C         -5.1908  -20.9230  -57.4065 C.2       20 UNK         0.5000 
    113 O         -5.2679  -19.8383  -57.9851 O.2       20 UNK        -0.5000 
    114 N         -4.0674  -21.6553  -57.3473 N.am      21 UNK        -0.5000 
    115 CA        -2.7799  -21.2579  -57.9303 C.3       21 UNK         0.1400 
    116 CB        -1.7794  -22.4162  -57.8015 C.3       21 UNK        -0.1800 
    117 C         -2.2018  -19.9653  -57.3172 C.2       21 UNK         0.5000 
    118 O         -1.5419  -19.1994  -58.0205 O.2       21 UNK        -0.5000 
    119 N         -2.4946  -19.7329  -56.0324 N.am      22 UNK        -0.5000 
    120 CA        -2.2267  -18.4878  -55.2982 C.3       22 UNK         0.1400 
    121 C         -3.0861  -17.2650  -55.7535 C.2       22 UNK         0.5000 
    122 N         -4.1243  -17.4310  -56.5656 N.am      22 UNK        -0.7600 
    123 O         -2.7924  -16.1316  -55.3846 O.2       22 UNK        -0.5000 
    124 C124       -2.3267  -18.7398  -53.7693 C.3       23 UNK        -0.0398 
    125 S125       -1.3407  -17.6007  -52.7424 S.3       23 UNK        -0.2404 
    126 C126        0.3373  -18.2821  -52.9414 C.3       23 UNK        -0.0205 
    127 H127       -3.5526  -12.2703  -46.3547 H         1 UNK         0.0600 
    128 H128       -2.7406  -12.2176  -47.9228 H         1 UNK         0.0600 
    129 H129       -3.0048  -10.7257  -47.0143 H         1 UNK         0.0600 
    130 H130       -0.6185  -12.9068  -47.8108 H         1 UNK         0.3000 
    131 H131        1.3191  -11.8627  -46.0712 H         1 UNK         0.0600 
    132 H132        2.0061  -12.6707  -48.2247 H         1 UNK         0.0800 
    133 H133        2.8262  -13.6416  -47.0350 H         1 UNK         0.0800 
    134 H134        2.5344  -14.5963  -50.2103 H         1 UNK         0.0800 
    135 H135        3.4576  -15.3345  -48.9189 H         1 UNK         0.0800 
    136 H136        1.1487  -15.9841  -51.7148 H         1 UNK         0.1150 
    137 H137        1.2966  -20.2497  -51.3179 H         1 UNK         0.1150 
    138 H138        3.2212  -17.7576  -48.4127 H         1 UNK         0.1150 
    139 H139        2.1839  -21.2648  -49.3722 H         1 UNK         0.0800 
    140 H140        3.7817  -20.5813  -49.1917 H         1 UNK         0.0800 
    141 H141        0.3337  -19.4447  -48.0206 H         1 UNK         0.0800 
    142 H142        0.5360  -19.1454  -46.3198 H         1 UNK         0.0800 
    143 H143        0.0151  -21.8885  -47.5602 H         1 UNK         0.0600 
    144 H144        0.6612  -21.1631  -44.8252 H         1 UNK         0.3000 
    145 H145       -0.4908  -24.1976  -43.3963 H         1 UNK         0.0600 
    146 H146        1.8651  -24.6090  -42.7329 H         1 UNK         0.0600 
    147 H147        1.6287  -25.0482  -44.4166 H         1 UNK         0.0600 
    148 H148        2.4402  -23.5400  -44.0135 H         1 UNK         0.0600 
    149 H149        1.2088  -22.2262  -42.3097 H         1 UNK         0.3000 
    150 H150       -0.9333  -19.5209  -41.8991 H         1 UNK         0.0600 
    151 H151       -0.2675  -21.4996  -39.6522 H         1 UNK         0.0600 
    152 H152       -1.8784  -20.9154  -40.0524 H         1 UNK         0.0600 
    153 H153       -0.6703  -19.7939  -39.4472 H         1 UNK         0.0600 
    154 H154        1.5412  -20.1184  -40.6477 H         1 UNK         0.3000 
    155 H155        3.4362  -19.0124  -41.4030 H         1 UNK         0.0600 
    156 H156        3.8077  -21.2107  -43.5202 H         1 UNK         0.0600 
    157 H157        3.6121  -21.4762  -41.7915 H         1 UNK         0.0600 
    158 H158        5.0448  -20.6598  -42.3909 H         1 UNK         0.0600 
    159 H159        4.2478  -18.9146  -44.1979 H         1 UNK         0.3000 
    160 H160        5.2655  -16.7621  -44.7378 H         1 UNK         0.0600 
    161 H161        2.3559  -16.3158  -45.6324 H         1 UNK         0.0600 
    162 H162        3.3837  -17.6654  -46.0805 H         1 UNK         0.0600 
    163 H163        3.7777  -16.0491  -46.6418 H         1 UNK         0.0600 
    164 H164        3.3913  -14.5858  -43.9223 H         1 UNK         0.3000 
    165 H165        6.0438  -12.4693  -43.0536 H         1 UNK         0.0600 
    166 H166        5.6705  -11.7478  -45.4115 H         1 UNK         0.0600 
    167 H167        3.9435  -12.0442  -45.2528 H         1 UNK         0.0600 
    168 H168        4.7133  -10.7724  -44.3063 H         1 UNK         0.0600 
    169 H169        3.0954  -12.6266  -43.0294 H         1 UNK         0.3000 
    170 H170        2.4009  -14.3545  -40.7968 H         1 UNK         0.0600 
    171 H171        3.5179  -13.9179  -38.6621 H         1 UNK         0.0600 
    172 H172        3.2741  -12.1855  -38.8193 H         1 UNK         0.0600 
    173 H173        1.8923  -13.2588  -38.5953 H         1 UNK         0.0600 
    174 H174        0.9395  -12.9628  -41.6526 H         1 UNK         0.3000 
    175 H175        0.0102   -9.7151  -41.2531 H         1 UNK         0.0600 
    176 H176        0.1100   -9.3065  -43.7153 H         1 UNK         0.0600 
    177 H177        1.6869   -9.0597  -42.9811 H         1 UNK         0.0600 
    178 H178        1.3626  -10.5353  -43.8829 H         1 UNK         0.0600 
    179 H179       -0.7229  -11.6599  -43.2391 H         1 UNK         0.3000 
    180 H180       -2.7444  -13.7010  -41.1259 H         1 UNK         0.0600 
    181 H181       -3.4397  -11.7892  -43.4211 H         1 UNK         0.0600 
    182 H182       -4.2236  -11.8376  -41.8482 H         1 UNK         0.0600 
    183 H183       -4.3708  -13.2066  -42.9391 H         1 UNK         0.0600 
    184 H184       -1.9541  -13.7091  -43.9187 H         1 UNK         0.3000 
    185 H185        0.8089  -15.9042  -43.5238 H         1 UNK         0.0600 
    186 H186       -1.1365  -17.4643  -43.4251 H         1 UNK         0.0600 
    187 H187       -1.9795  -16.5008  -44.6360 H         1 UNK         0.0600 
    188 H188       -0.4880  -17.3461  -45.0511 H         1 UNK         0.0600 
    189 H189       -0.5957  -14.8365  -45.8010 H         1 UNK         0.3000 
    190 H190       -1.7413  -20.4842  -44.8212 H         1 UNK         0.3000 
    191 H191       -4.0681  -19.6889  -46.4300 H         1 UNK         0.0600 
    192 H192       -3.4790  -18.3687  -44.4236 H         1 UNK         0.0600 
    193 H193       -5.0441  -19.1305  -44.2080 H         1 UNK         0.0600 
    194 H194       -3.6326  -19.7925  -43.3964 H         1 UNK         0.0600 
    195 H195       -3.0645  -22.3203  -44.2559 H         1 UNK         0.3000 
    196 H196       -5.5619  -23.7966  -44.4452 H         1 UNK         0.0600 
    197 H197       -4.3647  -25.3923  -42.9838 H         1 UNK         0.0600 
    198 H198       -4.1208  -23.7566  -42.3951 H         1 UNK         0.0600 
    199 H199       -2.8371  -24.5732  -43.2836 H         1 UNK         0.0600 
    200 H200       -3.5127  -23.3142  -46.8647 H         1 UNK         0.3000 
    201 H201       -2.6653  -25.8603  -47.7721 H         1 UNK         0.0600 
    202 H202       -2.2327  -24.6279  -49.8939 H         1 UNK         0.0600 
    203 H203       -3.2144  -23.2770  -49.3401 H         1 UNK         0.0600 
    204 H204       -1.7024  -23.6751  -48.5233 H         1 UNK         0.0600 
    205 H205       -3.3359  -26.9380  -49.7508 H         1 UNK         0.3000 
    206 H206       -6.0748  -27.7168  -49.8286 H         1 UNK         0.0600 
    207 H207       -4.1698  -29.2117  -50.4505 H         1 UNK         0.0600 
    208 H208       -5.2915  -29.0705  -51.7921 H         1 UNK         0.0600 
    209 H209       -3.7779  -28.1741  -51.8217 H         1 UNK         0.0600 
    210 H210       -7.5201  -27.6110  -51.6753 H         1 UNK         0.3000 
    211 H211       -8.1338  -25.0282  -52.4811 H         1 UNK         0.0600 
    212 H212       -9.0328  -27.6915  -53.6998 H         1 UNK         0.0600 
    213 H213       -9.8292  -26.1420  -53.9468 H         1 UNK         0.0600 
    214 H214       -9.7883  -26.8548  -52.3428 H         1 UNK         0.0600 
    215 H215       -6.2986  -27.4793  -54.3114 H         1 UNK         0.3000 
    216 H216       -6.1721  -26.0342  -56.7857 H         1 UNK         0.0600 
    217 H217       -4.3676  -27.6764  -57.3246 H         1 UNK         0.0600 
    218 H218       -5.7801  -28.4769  -56.6548 H         1 UNK         0.0600 
    219 H219       -4.3500  -28.2263  -55.6532 H         1 UNK         0.0600 
    220 H220       -4.0872  -26.1090  -53.8965 H         1 UNK         0.3000 
    221 H221       -1.9896  -24.4370  -54.9883 H         1 UNK         0.0600 
    222 H222       -2.6686  -25.2499  -52.1149 H         1 UNK         0.0600 
    223 H223       -1.4988  -26.0294  -53.1752 H         1 UNK         0.0600 
    224 H224       -1.2121  -24.3926  -52.6032 H         1 UNK         0.0600 
    225 H225       -4.8545  -23.9182  -52.9011 H         1 UNK         0.3000 
    226 H226       -4.5406  -21.1353  -52.4829 H         1 UNK         0.0600 
    227 H227       -6.9426  -21.2186  -51.8493 H         1 UNK         0.0600 
    228 H228       -7.1034  -22.8125  -52.5753 H         1 UNK         0.0600 
    229 H229       -6.0759  -22.5855  -51.1618 H         1 UNK         0.0600 
    230 H230       -6.1910  -22.9223  -55.1286 H         1 UNK         0.3000 
    231 H231       -7.1332  -20.6433  -56.5519 H         1 UNK         0.0600 
    232 H232       -6.4556  -23.4630  -57.5412 H         1 UNK         0.0600 
    233 H233       -7.3611  -22.2580  -58.4483 H         1 UNK         0.0600 
    234 H234       -8.0221  -22.9083  -56.9565 H         1 UNK         0.0600 
    235 H235       -4.0946  -22.5575  -56.8830 H         1 UNK         0.3000 
    236 H236       -2.9448  -21.0695  -58.9930 H         1 UNK         0.0600 
    237 H237       -2.1500  -23.3146  -58.2955 H         1 UNK         0.0600 
    238 H238       -0.8249  -22.1610  -58.2634 H         1 UNK         0.0600 
    239 H239       -1.5830  -22.6644  -56.7586 H         1 UNK         0.0600 
    240 H240       -2.9794  -20.4594  -55.5182 H         1 UNK         0.3000 
    241 H241       -1.1922  -18.2239  -55.5243 H         1 UNK         0.0600 
    242 H242       -4.3889  -18.3475  -56.9075 H         1 UNK         0.3800 
    243 H243       -4.6565  -16.6248  -56.8516 H         1 UNK         0.3800 
    244 H244       -1.9966  -19.7495  -53.5253 H         1 UNK         0.0800 
    245 H245       -3.3655  -18.6911  -53.4397 H         1 UNK         0.0800 
    246 H246        0.8399  -17.7620  -53.7579 H         1 UNK         0.0800 
    247 H247        0.2839  -19.3317  -53.2342 H         1 UNK         0.0800 
@<TRIPOS>BOND
     1    1    2 1    
     2    1  127 1    
     3    1  128 1    
     4    1  129 1    
     5    2    3 2    
     6    2    4 am   BACKBONE|DICT|INTERRES
     7    4    5 1    
     8    4  130 1    
     9    5    6 1    
    10    5   65 1    
    11    5  131 1    
    12    6    7 1    
    13    6  132 1    
    14    6  133 1    
    15    7    8 1    
    16    8    9 1    
    17    8  134 1    
    18    8  135 1    
    19    9   10 ar   
    20    9   14 ar   
    21   10   11 ar   
    22   10  136 1    
    23   11   12 ar   
    24   11  126 1    
    25   12   13 ar   
    26   12  137 1    
    27   13   14 ar   
    28   13   15 1    
    29   14  138 1    
    30   15   16 1    
    31   15  139 1    
    32   15  140 1    
    33   16   17 1    
    34   17   18 1    
    35   17  141 1    
    36   17  142 1    
    37   18   19 1    
    38   18   67 1    
    39   18  143 1    
    40   19   20 am   BACKBONE|DICT|INTERRES
    41   19  144 1    
    42   20   21 2    
    43   20   22 1    
    44   22   23 1    
    45   22   24 1    
    46   22  145 1    
    47   23  146 1    
    48   23  147 1    
    49   23  148 1    
    50   24   25 am   BACKBONE|DICT|INTERRES
    51   24  149 1    
    52   25   26 2    
    53   25   27 1    
    54   27   28 1    
    55   27   29 1    
    56   27  150 1    
    57   28  151 1    
    58   28  152 1    
    59   28  153 1    
    60   29   30 am   BACKBONE|DICT|INTERRES
    61   29  154 1    
    62   30   31 2    
    63   30   32 1    
    64   32   33 1    
    65   32   34 1    
    66   32  155 1    
    67   33  156 1    
    68   33  157 1    
    69   33  158 1    
    70   34   35 am   BACKBONE|DICT|INTERRES
    71   34  159 1    
    72   35   36 2    
    73   35   37 1    
    74   37   38 1    
    75   37   39 1    
    76   37  160 1    
    77   38  161 1    
    78   38  162 1    
    79   38  163 1    
    80   39   40 am   BACKBONE|DICT|INTERRES
    81   39  164 1    
    82   40   41 2    
    83   40   42 1    
    84   42   43 1    
    85   42   44 1    
    86   42  165 1    
    87   43  166 1    
    88   43  167 1    
    89   43  168 1    
    90   44   45 am   BACKBONE|DICT|INTERRES
    91   44  169 1    
    92   45   46 2    
    93   45   47 1    
    94   47   48 1    
    95   47   49 1    
    96   47  170 1    
    97   48  171 1    
    98   48  172 1    
    99   48  173 1    
   100   49   50 am   BACKBONE|DICT|INTERRES
   101   49  174 1    
   102   50   51 2    
   103   50   52 1    
   104   52   53 1    
   105   52   54 1    
   106   52  175 1    
   107   53  176 1    
   108   53  177 1    
   109   53  178 1    
   110   54   55 am   BACKBONE|DICT|INTERRES
   111   54  179 1    
   112   55   56 2    
   113   55   57 1    
   114   57   58 1    
   115   57   59 1    
   116   57  180 1    
   117   58  181 1    
   118   58  182 1    
   119   58  183 1    
   120   59   60 am   BACKBONE|DICT|INTERRES
   121   59  184 1    
   122   60   61 2    
   123   60   62 1    
   124   62   63 1    
   125   62   64 1    
   126   62  185 1    
   127   63  186 1    
   128   63  187 1    
   129   63  188 1    
   130   64   65 am   BACKBONE|DICT|INTERRES
   131   64  189 1    
   132   65   66 2    
   133   67   68 2    
   134   67   69 am   BACKBONE|DICT|INTERRES
   135   69   70 1    
   136   69  190 1    
   137   70   71 1    
   138   70   72 1    
   139   70  191 1    
   140   71  192 1    
   141   71  193 1    
   142   71  194 1    
   143   72   73 2    
   144   72   74 am   BACKBONE|DICT|INTERRES
   145   74   75 1    
   146   74  195 1    
   147   75   76 1    
   148   75   77 1    
   149   75  196 1    
   150   76  197 1    
   151   76  198 1    
   152   76  199 1    
   153   77   78 2    
   154   77   79 am   BACKBONE|DICT|INTERRES
   155   79   80 1    
   156   79  200 1    
   157   80   81 1    
   158   80   82 1    
   159   80  201 1    
   160   81  202 1    
   161   81  203 1    
   162   81  204 1    
   163   82   83 2    
   164   82   84 am   BACKBONE|DICT|INTERRES
   165   84   85 1    
   166   84  205 1    
   167   85   86 1    
   168   85   87 1    
   169   85  206 1    
   170   86  207 1    
   171   86  208 1    
   172   86  209 1    
   173   87   88 2    
   174   87   89 am   BACKBONE|DICT|INTERRES
   175   89   90 1    
   176   89  210 1    
   177   90   91 1    
   178   90   92 1    
   179   90  211 1    
   180   91  212 1    
   181   91  213 1    
   182   91  214 1    
   183   92   93 2    
   184   92   94 am   BACKBONE|DICT|INTERRES
   185   94   95 1    
   186   94  215 1    
   187   95   96 1    
   188   95   97 1    
   189   95  216 1    
   190   96  217 1    
   191   96  218 1    
   192   96  219 1    
   193   97   98 2    
   194   97   99 am   BACKBONE|DICT|INTERRES
   195   99  100 1    
   196   99  220 1    
   197  100  101 1    
   198  100  102 1    
   199  100  221 1    
   200  101  222 1    
   201  101  223 1    
   202  101  224 1    
   203  102  103 2    
   204  102  104 am   BACKBONE|DICT|INTERRES
   205  104  105 1    
   206  104  225 1    
   207  105  106 1    
   208  105  107 1    
   209  105  226 1    
   210  106  227 1    
   211  106  228 1    
   212  106  229 1    
   213  107  108 2    
   214  107  109 am   BACKBONE|DICT|INTERRES
   215  109  110 1    
   216  109  230 1    
   217  110  111 1    
   218  110  112 1    
   219  110  231 1    
   220  111  232 1    
   221  111  233 1    
   222  111  234 1    
   223  112  113 2    
   224  112  114 am   BACKBONE|DICT|INTERRES
   225  114  115 1    
   226  114  235 1    
   227  115  116 1    
   228  115  117 1    
   229  115  236 1    
   230  116  237 1    
   231  116  238 1    
   232  116  239 1    
   233  117  118 2    
   234  117  119 am   BACKBONE|DICT|INTERRES
   235  119  120 1    
   236  119  240 1    
   237  120  121 1    
   238  120  124 1    
   239  120  241 1    
   240  121  122 am   BACKBONE|DICT|INTERRES
   241  121  123 2    
   242  122  242 1    
   243  122  243 1    
   244  124  125 1    
   245  124  244 1    
   246  124  245 1    
   247  125  126 1    
   248  126  246 1    
   249  126  247 1    
@<TRIPOS>SUBSTRUCTURE
     1 UNK         1 GROUP             0       ****    0 ROOT    
