@<TRIPOS>MOLECULE
3R540
247   249    1
SMALL
USER_CHARGES


@<TRIPOS>ATOM
      1 CA          2.9119  -14.3091  -45.9271 C.3       0 UNK        -0.1800 
      2 C           1.4085  -14.1414  -46.0857 C.2       0 UNK         0.5000 
      3 O           0.7206  -13.8186  -45.1189 O.2       0 UNK        -0.5000 
      4 N           0.8914  -14.3331  -47.3061 N.am      1 UNK        -0.5000 
      5 CA         -0.5421  -14.2705  -47.6344 C.3       1 UNK         0.1400 
      6 C6         -0.8564  -14.9114  -49.0070 C.3       23 UNK        -0.0398 
      7 S7         -0.4806  -16.6943  -48.9974 S.3       23 UNK        -0.2404 
      8 C8          0.1488  -16.9691  -50.6776 C.3       23 UNK        -0.0205 
      9 C9          0.6093  -18.4079  -50.8787 C.ar      23 UNK        -0.0193 
     10 C10        -0.1766  -19.3110  -51.6017 C.ar      23 UNK        -0.1150 
     11 C11         0.2872  -20.6043  -51.8673 C.ar      23 UNK        -0.0193 
     12 C12         1.5292  -21.0051  -51.3693 C.ar      23 UNK        -0.1150 
     13 C13         2.3155  -20.1210  -50.6286 C.ar      23 UNK        -0.0193 
     14 C14         1.8508  -18.8238  -50.3863 C.ar      23 UNK        -0.1150 
     15 C15         3.6924  -20.5468  -50.1447 C.3       23 UNK        -0.0205 
     16 S16         3.6768  -21.0954  -48.4125 S.3       23 UNK        -0.2404 
     17 C17         3.1789  -22.8549  -48.5205 C.3       23 UNK        -0.0398 
     18 CA          1.9769  -23.2415  -47.6178 C.3       11 UNK         0.1400 
     19 N           2.1004  -22.6956  -46.2571 N.am      11 UNK        -0.5000 
     20 C           1.2547  -22.8919  -45.2368 C.2       10 UNK         0.5000 
     21 O           0.3033  -23.6721  -45.2910 O.2       10 UNK        -0.5000 
     22 CA          1.4270  -22.0029  -43.9886 C.3       10 UNK         0.1400 
     23 CB          2.3976  -22.6283  -42.9709 C.3       10 UNK        -0.1800 
     24 N           1.7656  -20.6021  -44.2886 N.am      10 UNK        -0.5000 
     25 C           2.9067  -20.0969  -44.7822 C.2       9 UNK         0.5000 
     26 O           3.8993  -20.7755  -45.0433 O.2       9 UNK        -0.5000 
     27 CA          2.9398  -18.5827  -45.0357 C.3       9 UNK         0.1400 
     28 CB          2.1174  -18.2072  -46.2819 C.3       9 UNK        -0.1800 
     29 N           2.4287  -17.8614  -43.8709 N.am      9 UNK        -0.5000 
     30 C           3.1918  -17.1545  -43.0275 C.2       8 UNK         0.5000 
     31 O           4.4063  -17.0005  -43.1631 O.2       8 UNK        -0.5000 
     32 CA          2.4876  -16.4999  -41.8274 C.3       8 UNK         0.1400 
     33 CB          1.8771  -15.1485  -42.2258 C.3       8 UNK        -0.1800 
     34 N           1.4450  -17.3349  -41.2359 N.am      8 UNK        -0.5000 
     35 C           1.6664  -18.4317  -40.4994 C.2       7 UNK         0.5000 
     36 O           2.7827  -18.9139  -40.3059 O.2       7 UNK        -0.5000 
     37 CA          0.4355  -19.0883  -39.8547 C.3       7 UNK         0.1400 
     38 CB          0.0093  -18.3104  -38.5992 C.3       7 UNK        -0.1800 
     39 N          -0.6860  -19.1311  -40.7904 N.am      7 UNK        -0.5000 
     40 C          -1.1401  -20.2409  -41.3846 C.2       6 UNK         0.5000 
     41 O          -0.7000  -21.3680  -41.1583 O.2       6 UNK        -0.5000 
     42 CA         -2.2737  -20.0786  -42.4177 C.3       6 UNK         0.1400 
     43 CB         -3.6301  -20.4357  -41.7919 C.3       6 UNK        -0.1800 
     44 N          -2.3634  -18.7463  -43.0191 N.am      6 UNK        -0.5000 
     45 C          -1.4274  -18.2043  -43.8078 C.2       5 UNK         0.5000 
     46 O          -0.3684  -18.7649  -44.0888 O.2       5 UNK        -0.5000 
     47 CA         -1.6970  -16.7842  -44.3379 C.3       5 UNK         0.1400 
     48 CB         -2.5966  -16.8569  -45.5817 C.3       5 UNK        -0.1800 
     49 N          -2.2984  -15.8488  -43.3803 N.am      5 UNK        -0.5000 
     50 C          -1.9526  -15.6417  -42.1028 C.2       4 UNK         0.5000 
     51 O          -1.1449  -16.3351  -41.4825 O.2       4 UNK        -0.5000 
     52 CA         -2.5858  -14.4119  -41.4253 C.3       4 UNK         0.1400 
     53 CB         -2.5653  -14.5224  -39.8904 C.3       4 UNK        -0.1800 
     54 N          -1.8787  -13.1929  -41.8194 N.am      4 UNK        -0.5000 
     55 C          -1.9612  -12.5970  -43.0166 C.2       3 UNK         0.5000 
     56 O          -2.7327  -12.9744  -43.9028 O.2       3 UNK        -0.5000 
     57 CA         -1.0480  -11.3768  -43.2567 C.3       3 UNK         0.1400 
     58 CB          0.2715  -11.4411  -42.4612 C.3       3 UNK        -0.1800 
     59 N          -0.7226  -11.2850  -44.6771 N.am      3 UNK        -0.5000 
     60 C          -1.1390  -10.3319  -45.5216 C.2       2 UNK         0.5000 
     61 O          -1.8190   -9.3638  -45.1777 O.2       2 UNK        -0.5000 
     62 CA         -0.7204  -10.4656  -47.0031 C.3       2 UNK         0.1400 
     63 CB          0.4379   -9.5075  -47.3220 C.3       2 UNK        -0.1800 
     64 N          -0.3165  -11.8256  -47.3640 N.am      2 UNK        -0.5000 
     65 C          -1.1586  -12.8574  -47.5144 C.2       1 UNK         0.5000 
     66 O          -2.3833  -12.7313  -47.5290 O.2       1 UNK        -0.5000 
     67 C           0.6271  -22.8836  -48.2783 C.2       11 UNK         0.5000 
     68 O           0.0654  -23.6959  -49.0134 O.2       11 UNK        -0.5000 
     69 N           0.1058  -21.7016  -47.9297 N.am      12 UNK        -0.5000 
     70 CA         -1.2139  -21.1915  -48.2804 C.3       12 UNK         0.1400 
     71 CB         -1.3613  -19.8184  -47.6226 C.3       12 UNK        -0.1800 
     72 C          -2.3632  -22.1020  -47.8206 C.2       12 UNK         0.5000 
     73 O          -3.2920  -22.3416  -48.5912 O.2       12 UNK        -0.5000 
     74 N          -2.2709  -22.5934  -46.5771 N.am      13 UNK        -0.5000 
     75 CA         -3.2529  -23.4835  -45.9605 C.3       13 UNK         0.1400 
     76 CB         -3.1901  -23.3431  -44.4330 C.3       13 UNK        -0.1800 
     77 C          -3.0558  -24.9462  -46.3851 C.2       13 UNK         0.5000 
     78 O          -4.0423  -25.6736  -46.4933 O.2       13 UNK        -0.5000 
     79 N          -1.8028  -25.3429  -46.6530 N.am      14 UNK        -0.5000 
     80 CA         -1.4493  -26.6591  -47.1898 C.3       14 UNK         0.1400 
     81 CB          0.0757  -26.8386  -47.1620 C.3       14 UNK        -0.1800 
     82 C          -2.0044  -26.8723  -48.6111 C.2       14 UNK         0.5000 
     83 O          -2.5547  -27.9361  -48.8973 O.2       14 UNK        -0.5000 
     84 N          -1.8880  -25.8400  -49.4586 N.am      15 UNK        -0.5000 
     85 CA         -2.5022  -25.7878  -50.7866 C.3       15 UNK         0.1400 
     86 CB         -1.8010  -24.6995  -51.6115 C.3       15 UNK        -0.1800 
     87 C          -4.0172  -25.5086  -50.7342 C.2       15 UNK         0.5000 
     88 O          -4.7256  -25.8623  -51.6769 O.2       15 UNK        -0.5000 
     89 N          -4.4685  -24.8619  -49.6481 N.am      16 UNK        -0.5000 
     90 CA         -5.8133  -24.3287  -49.4054 C.3       16 UNK         0.1400 
     91 CB         -6.8460  -25.4673  -49.2781 C.3       16 UNK        -0.1800 
     92 C          -6.1889  -23.2667  -50.4589 C.2       16 UNK         0.5000 
     93 O          -7.2650  -23.3298  -51.0571 O.2       16 UNK        -0.5000 
     94 N          -5.2580  -22.3345  -50.6976 N.am      17 UNK        -0.5000 
     95 CA         -5.2850  -21.4033  -51.8197 C.3       17 UNK         0.1400 
     96 CB         -4.8026  -22.1208  -53.0940 C.3       17 UNK        -0.1800 
     97 C          -4.4634  -20.1447  -51.5038 C.2       17 UNK         0.5000 
     98 O          -3.5615  -19.7864  -52.2622 O.2       17 UNK        -0.5000 
     99 N          -4.8122  -19.4573  -50.4073 N.am      18 UNK        -0.5000 
    100 CA        -4.1931  -18.1956  -49.9693 C.3       18 UNK         0.1400 
    101 CB        -4.7609  -17.8074  -48.5954 C.3       18 UNK        -0.1800 
    102 C         -4.3291  -17.0233  -50.9688 C.2       18 UNK         0.5000 
    103 O         -3.5979  -16.0412  -50.8562 O.2       18 UNK        -0.5000 
    104 N         -5.2250  -17.1609  -51.9561 N.am      19 UNK        -0.5000 
    105 CA        -5.3516  -16.2830  -53.1223 C.3       19 UNK         0.1400 
    106 CB        -6.6891  -16.5915  -53.8153 C.3       19 UNK        -0.1800 
    107 C         -4.1821  -16.4031  -54.1288 C.2       19 UNK         0.5000 
    108 O         -4.1302  -15.6158  -55.0739 O.2       19 UNK        -0.5000 
    109 N         -3.2880  -17.3849  -53.9267 N.am      20 UNK        -0.5000 
    110 CA        -2.1173  -17.7258  -54.7435 C.3       20 UNK         0.1400 
    111 CB        -1.1532  -16.5331  -54.9109 C.3       20 UNK        -0.1800 
    112 C         -2.4757  -18.4205  -56.0722 C.2       20 UNK         0.5000 
    113 O         -1.6519  -18.4683  -56.9868 O.2       20 UNK        -0.5000 
    114 N         -3.6776  -19.0064  -56.1342 N.am      21 UNK        -0.5000 
    115 CA        -4.1426  -19.8914  -57.2010 C.3       21 UNK         0.1400 
    116 CB        -5.6330  -19.6065  -57.4611 C.3       21 UNK        -0.1800 
    117 C         -3.8745  -21.3504  -56.7831 C.2       21 UNK         0.5000 
    118 O         -4.8092  -22.1393  -56.6378 O.2       21 UNK        -0.5000 
    119 N         -2.5973  -21.6544  -56.5216 N.am      22 UNK        -0.5000 
    120 CA        -2.1266  -22.8836  -55.8588 C.3       22 UNK         0.1400 
    121 C         -2.2768  -24.1988  -56.6801 C.2       22 UNK         0.5000 
    122 N         -2.5780  -24.1495  -57.9716 N.am      22 UNK        -0.7600 
    123 O         -2.1147  -25.2856  -56.1325 O.2       22 UNK        -0.5000 
    124 C124       -0.6733  -22.7424  -55.3289 C.3       23 UNK        -0.0398 
    125 S125       -0.3100  -21.1572  -54.4920 S.3       23 UNK        -0.2404 
    126 C126       -0.5201  -21.5602  -52.7309 C.3       23 UNK        -0.0205 
    127 H127        3.3947  -14.5540  -46.8734 H         1 UNK         0.0600 
    128 H128        3.1269  -15.1088  -45.2197 H         1 UNK         0.0600 
    129 H129        3.3536  -13.3886  -45.5457 H         1 UNK         0.0600 
    130 H130        1.5001  -14.5983  -48.0671 H         1 UNK         0.3000 
    131 H131       -1.0534  -14.8630  -46.8762 H         1 UNK         0.0600 
    132 H132       -1.9137  -14.8035  -49.2529 H         1 UNK         0.0800 
    133 H133       -0.3008  -14.4123  -49.8023 H         1 UNK         0.0800 
    134 H134        0.9826  -16.2924  -50.8701 H         1 UNK         0.0800 
    135 H135       -0.6323  -16.7136  -51.3958 H         1 UNK         0.0800 
    136 H136       -1.1342  -18.9967  -51.9877 H         1 UNK         0.1150 
    137 H137        1.8952  -21.9999  -51.5799 H         1 UNK         0.1150 
    138 H138        2.4645  -18.1297  -49.8294 H         1 UNK         0.1150 
    139 H139        4.1046  -21.3313  -50.7811 H         1 UNK         0.0800 
    140 H140        4.3776  -19.7023  -50.2318 H         1 UNK         0.0800 
    141 H141        4.0457  -23.4439  -48.2185 H         1 UNK         0.0800 
    142 H142        2.9929  -23.1331  -49.5593 H         1 UNK         0.0800 
    143 H143        1.9872  -24.3274  -47.5145 H         1 UNK         0.0600 
    144 H144        2.8629  -22.0402  -46.1091 H         1 UNK         0.3000 
    145 H145        0.4466  -21.9626  -43.5137 H         1 UNK         0.0600 
    146 H146        2.0508  -23.6156  -42.6639 H         1 UNK         0.0600 
    147 H147        2.4702  -22.0155  -42.0721 H         1 UNK         0.0600 
    148 H148        3.4010  -22.7498  -43.3791 H         1 UNK         0.0600 
    149 H149        0.9948  -19.9490  -44.1602 H         1 UNK         0.3000 
    150 H150        3.9771  -18.3065  -45.2357 H         1 UNK         0.0600 
    151 H151        2.5047  -18.7031  -47.1712 H         1 UNK         0.0600 
    152 H152        2.1576  -17.1360  -46.4730 H         1 UNK         0.0600 
    153 H153        1.0690  -18.4843  -46.1879 H         1 UNK         0.0600 
    154 H154        1.4415  -17.9722  -43.6716 H         1 UNK         0.3000 
    155 H155        3.2448  -16.3132  -41.0629 H         1 UNK         0.0600 
    156 H156        1.0742  -15.2740  -42.9520 H         1 UNK         0.0600 
    157 H157        2.6251  -14.4918  -42.6716 H         1 UNK         0.0600 
    158 H158        1.4632  -14.6315  -41.3600 H         1 UNK         0.0600 
    159 H159        0.4919  -16.9882  -41.3244 H         1 UNK         0.3000 
    160 H160        0.7215  -20.0956  -39.5448 H         1 UNK         0.0600 
    161 H161       -0.2978  -17.2912  -38.8388 H         1 UNK         0.0600 
    162 H162        0.8277  -18.2481  -37.8808 H         1 UNK         0.0600 
    163 H163       -0.8259  -18.8011  -38.0993 H         1 UNK         0.0600 
    164 H164       -1.0818  -18.2357  -41.0589 H         1 UNK         0.3000 
    165 H165       -2.0670  -20.7854  -43.2227 H         1 UNK         0.0600 
    166 H166       -4.4271  -20.4111  -42.5352 H         1 UNK         0.0600 
    167 H167       -3.6133  -21.4413  -41.3694 H         1 UNK         0.0600 
    168 H168       -3.8956  -19.7461  -40.9897 H         1 UNK         0.0600 
    169 H169       -3.1913  -18.2067  -42.8137 H         1 UNK         0.3000 
    170 H170       -0.7372  -16.3551  -44.6325 H         1 UNK         0.0600 
    171 H171       -2.0887  -17.3695  -46.3979 H         1 UNK         0.0600 
    172 H172       -3.5241  -17.3945  -45.3803 H         1 UNK         0.0600 
    173 H173       -2.8687  -15.8652  -45.9421 H         1 UNK         0.0600 
    174 H174       -2.9105  -15.1528  -43.7889 H         1 UNK         0.3000 
    175 H175       -3.6278  -14.3426  -41.7446 H         1 UNK         0.0600 
    176 H176       -1.5476  -14.5541  -39.4986 H         1 UNK         0.0600 
    177 H177       -3.0753  -13.6771  -39.4281 H         1 UNK         0.0600 
    178 H178       -3.0726  -15.4290  -39.5580 H         1 UNK         0.0600 
    179 H179       -1.2087  -12.8368  -41.1538 H         1 UNK         0.3000 
    180 H180       -1.6020  -10.4945  -42.9312 H         1 UNK         0.0600 
    181 H181        0.8223  -12.3592  -42.6696 H         1 UNK         0.0600 
    182 H182        0.0975  -11.3890  -41.3861 H         1 UNK         0.0600 
    183 H183        0.9209  -10.6032  -42.7158 H         1 UNK         0.0600 
    184 H184       -0.2224  -12.0872  -45.0480 H         1 UNK         0.3000 
    185 H185       -1.5784  -10.1816  -47.6160 H         1 UNK         0.0600 
    186 H186        0.1650   -8.4757  -47.0966 H         1 UNK         0.0600 
    187 H187        1.3291   -9.7458  -46.7400 H         1 UNK         0.0600 
    188 H188        0.7046   -9.5480  -48.3783 H         1 UNK         0.0600 
    189 H189        0.6744  -12.0182  -47.3696 H         1 UNK         0.3000 
    190 H190        0.6685  -21.1073  -47.3406 H         1 UNK         0.3000 
    191 H191       -1.2643  -21.0821  -49.3653 H         1 UNK         0.0600 
    192 H192       -2.2747  -19.3222  -47.9435 H         1 UNK         0.0600 
    193 H193       -0.5206  -19.1831  -47.8879 H         1 UNK         0.0600 
    194 H194       -1.3870  -19.8854  -46.5343 H         1 UNK         0.0600 
    195 H195       -1.4359  -22.4058  -46.0406 H         1 UNK         0.3000 
    196 H196       -4.2526  -23.1822  -46.2814 H         1 UNK         0.0600 
    197 H197       -2.1849  -23.5163  -44.0471 H         1 UNK         0.0600 
    198 H198       -3.5081  -22.3482  -44.1259 H         1 UNK         0.0600 
    199 H199       -3.8571  -24.0553  -43.9454 H         1 UNK         0.0600 
    200 H200       -1.0408  -24.6999  -46.4692 H         1 UNK         0.3000 
    201 H201       -1.8920  -27.4148  -46.5376 H         1 UNK         0.0600 
    202 H202        0.4791  -26.6587  -46.1652 H         1 UNK         0.0600 
    203 H203        0.5736  -26.1614  -47.8548 H         1 UNK         0.0600 
    204 H204        0.3505  -27.8546  -47.4475 H         1 UNK         0.0600 
    205 H205       -1.3510  -25.0253  -49.1734 H         1 UNK         0.3000 
    206 H206       -2.3524  -26.7482  -51.2842 H         1 UNK         0.0600 
    207 H207       -0.7326  -24.8982  -51.6980 H         1 UNK         0.0600 
    208 H208       -2.2071  -24.6477  -52.6227 H         1 UNK         0.0600 
    209 H209       -1.9242  -23.7166  -51.1544 H         1 UNK         0.0600 
    210 H210       -3.7779  -24.5902  -48.9631 H         1 UNK         0.3000 
    211 H211       -5.7727  -23.8120  -48.4455 H         1 UNK         0.0600 
    212 H212       -7.8214  -25.0766  -48.9861 H         1 UNK         0.0600 
    213 H213       -6.5430  -26.1868  -48.5172 H         1 UNK         0.0600 
    214 H214       -6.9778  -26.0064  -50.2165 H         1 UNK         0.0600 
    215 H215       -4.4297  -22.3138  -50.1053 H         1 UNK         0.3000 
    216 H216       -6.3102  -21.0660  -51.9846 H         1 UNK         0.0600 
    217 H217       -3.7960  -22.5172  -52.9639 H         1 UNK         0.0600 
    218 H218       -4.7873  -21.4399  -53.9447 H         1 UNK         0.0600 
    219 H219       -5.4564  -22.9518  -53.3585 H         1 UNK         0.0600 
    220 H220       -5.5615  -19.8154  -49.8324 H         1 UNK         0.3000 
    221 H221       -3.1228  -18.3795  -49.8609 H         1 UNK         0.0600 
    222 H222       -4.6039  -18.5979  -47.8615 H         1 UNK         0.0600 
    223 H223       -5.8312  -17.6047  -48.6469 H         1 UNK         0.0600 
    224 H224       -4.2739  -16.9095  -48.2123 H         1 UNK         0.0600 
    225 H225       -5.7978  -17.9911  -51.9569 H         1 UNK         0.3000 
    226 H226       -5.3745  -15.2489  -52.7726 H         1 UNK         0.0600 
    227 H227       -6.7224  -17.6159  -54.1886 H         1 UNK         0.0600 
    228 H228       -7.5284  -16.4541  -53.1332 H         1 UNK         0.0600 
    229 H229       -6.8535  -15.9279  -54.6652 H         1 UNK         0.0600 
    230 H230       -3.4483  -18.0169  -53.1480 H         1 UNK         0.3000 
    231 H231       -1.5824  -18.4803  -54.1689 H         1 UNK         0.0600 
    232 H232       -1.5601  -15.7682  -55.5722 H         1 UNK         0.0600 
    233 H233       -0.2046  -16.8591  -55.3389 H         1 UNK         0.0600 
    234 H234       -0.9309  -16.0677  -53.9508 H         1 UNK         0.0600 
    235 H235       -4.2655  -18.9487  -55.3161 H         1 UNK         0.3000 
    236 H236       -3.5942  -19.7006  -58.1256 H         1 UNK         0.0600 
    237 H237       -5.7869  -18.5710  -57.7653 H         1 UNK         0.0600 
    238 H238       -6.0183  -20.2404  -58.2606 H         1 UNK         0.0600 
    239 H239       -6.2412  -19.7874  -56.5738 H         1 UNK         0.0600 
    240 H240       -1.8971  -20.9382  -56.6574 H         1 UNK         0.3000 
    241 H241       -2.7661  -23.0200  -54.9867 H         1 UNK         0.0600 
    242 H242       -2.6758  -25.0066  -58.4932 H         1 UNK         0.3800 
    243 H243       -2.7249  -23.2640  -58.4288 H         1 UNK         0.3800 
    244 H244        0.0301  -22.8230  -56.1596 H         1 UNK         0.0800 
    245 H245       -0.4320  -23.5684  -54.6579 H         1 UNK         0.0800 
    246 H246       -1.5755  -21.5140  -52.4637 H         1 UNK         0.0800 
    247 H247       -0.1923  -22.5831  -52.5472 H         1 UNK         0.0800 
@<TRIPOS>BOND
     1    1    2 1    
     2    1  127 1    
     3    1  128 1    
     4    1  129 1    
     5    2    3 2    
     6    2    4 am   BACKBONE|DICT|INTERRES
     7    4    5 1    
     8    4  130 1    
     9    5    6 1    
    10    5   65 1    
    11    5  131 1    
    12    6    7 1    
    13    6  132 1    
    14    6  133 1    
    15    7    8 1    
    16    8    9 1    
    17    8  134 1    
    18    8  135 1    
    19    9   10 ar   
    20    9   14 ar   
    21   10   11 ar   
    22   10  136 1    
    23   11   12 ar   
    24   11  126 1    
    25   12   13 ar   
    26   12  137 1    
    27   13   14 ar   
    28   13   15 1    
    29   14  138 1    
    30   15   16 1    
    31   15  139 1    
    32   15  140 1    
    33   16   17 1    
    34   17   18 1    
    35   17  141 1    
    36   17  142 1    
    37   18   19 1    
    38   18   67 1    
    39   18  143 1    
    40   19   20 am   BACKBONE|DICT|INTERRES
    41   19  144 1    
    42   20   21 2    
    43   20   22 1    
    44   22   23 1    
    45   22   24 1    
    46   22  145 1    
    47   23  146 1    
    48   23  147 1    
    49   23  148 1    
    50   24   25 am   BACKBONE|DICT|INTERRES
    51   24  149 1    
    52   25   26 2    
    53   25   27 1    
    54   27   28 1    
    55   27   29 1    
    56   27  150 1    
    57   28  151 1    
    58   28  152 1    
    59   28  153 1    
    60   29   30 am   BACKBONE|DICT|INTERRES
    61   29  154 1    
    62   30   31 2    
    63   30   32 1    
    64   32   33 1    
    65   32   34 1    
    66   32  155 1    
    67   33  156 1    
    68   33  157 1    
    69   33  158 1    
    70   34   35 am   BACKBONE|DICT|INTERRES
    71   34  159 1    
    72   35   36 2    
    73   35   37 1    
    74   37   38 1    
    75   37   39 1    
    76   37  160 1    
    77   38  161 1    
    78   38  162 1    
    79   38  163 1    
    80   39   40 am   BACKBONE|DICT|INTERRES
    81   39  164 1    
    82   40   41 2    
    83   40   42 1    
    84   42   43 1    
    85   42   44 1    
    86   42  165 1    
    87   43  166 1    
    88   43  167 1    
    89   43  168 1    
    90   44   45 am   BACKBONE|DICT|INTERRES
    91   44  169 1    
    92   45   46 2    
    93   45   47 1    
    94   47   48 1    
    95   47   49 1    
    96   47  170 1    
    97   48  171 1    
    98   48  172 1    
    99   48  173 1    
   100   49   50 am   BACKBONE|DICT|INTERRES
   101   49  174 1    
   102   50   51 2    
   103   50   52 1    
   104   52   53 1    
   105   52   54 1    
   106   52  175 1    
   107   53  176 1    
   108   53  177 1    
   109   53  178 1    
   110   54   55 am   BACKBONE|DICT|INTERRES
   111   54  179 1    
   112   55   56 2    
   113   55   57 1    
   114   57   58 1    
   115   57   59 1    
   116   57  180 1    
   117   58  181 1    
   118   58  182 1    
   119   58  183 1    
   120   59   60 am   BACKBONE|DICT|INTERRES
   121   59  184 1    
   122   60   61 2    
   123   60   62 1    
   124   62   63 1    
   125   62   64 1    
   126   62  185 1    
   127   63  186 1    
   128   63  187 1    
   129   63  188 1    
   130   64   65 am   BACKBONE|DICT|INTERRES
   131   64  189 1    
   132   65   66 2    
   133   67   68 2    
   134   67   69 am   BACKBONE|DICT|INTERRES
   135   69   70 1    
   136   69  190 1    
   137   70   71 1    
   138   70   72 1    
   139   70  191 1    
   140   71  192 1    
   141   71  193 1    
   142   71  194 1    
   143   72   73 2    
   144   72   74 am   BACKBONE|DICT|INTERRES
   145   74   75 1    
   146   74  195 1    
   147   75   76 1    
   148   75   77 1    
   149   75  196 1    
   150   76  197 1    
   151   76  198 1    
   152   76  199 1    
   153   77   78 2    
   154   77   79 am   BACKBONE|DICT|INTERRES
   155   79   80 1    
   156   79  200 1    
   157   80   81 1    
   158   80   82 1    
   159   80  201 1    
   160   81  202 1    
   161   81  203 1    
   162   81  204 1    
   163   82   83 2    
   164   82   84 am   BACKBONE|DICT|INTERRES
   165   84   85 1    
   166   84  205 1    
   167   85   86 1    
   168   85   87 1    
   169   85  206 1    
   170   86  207 1    
   171   86  208 1    
   172   86  209 1    
   173   87   88 2    
   174   87   89 am   BACKBONE|DICT|INTERRES
   175   89   90 1    
   176   89  210 1    
   177   90   91 1    
   178   90   92 1    
   179   90  211 1    
   180   91  212 1    
   181   91  213 1    
   182   91  214 1    
   183   92   93 2    
   184   92   94 am   BACKBONE|DICT|INTERRES
   185   94   95 1    
   186   94  215 1    
   187   95   96 1    
   188   95   97 1    
   189   95  216 1    
   190   96  217 1    
   191   96  218 1    
   192   96  219 1    
   193   97   98 2    
   194   97   99 am   BACKBONE|DICT|INTERRES
   195   99  100 1    
   196   99  220 1    
   197  100  101 1    
   198  100  102 1    
   199  100  221 1    
   200  101  222 1    
   201  101  223 1    
   202  101  224 1    
   203  102  103 2    
   204  102  104 am   BACKBONE|DICT|INTERRES
   205  104  105 1    
   206  104  225 1    
   207  105  106 1    
   208  105  107 1    
   209  105  226 1    
   210  106  227 1    
   211  106  228 1    
   212  106  229 1    
   213  107  108 2    
   214  107  109 am   BACKBONE|DICT|INTERRES
   215  109  110 1    
   216  109  230 1    
   217  110  111 1    
   218  110  112 1    
   219  110  231 1    
   220  111  232 1    
   221  111  233 1    
   222  111  234 1    
   223  112  113 2    
   224  112  114 am   BACKBONE|DICT|INTERRES
   225  114  115 1    
   226  114  235 1    
   227  115  116 1    
   228  115  117 1    
   229  115  236 1    
   230  116  237 1    
   231  116  238 1    
   232  116  239 1    
   233  117  118 2    
   234  117  119 am   BACKBONE|DICT|INTERRES
   235  119  120 1    
   236  119  240 1    
   237  120  121 1    
   238  120  124 1    
   239  120  241 1    
   240  121  122 am   BACKBONE|DICT|INTERRES
   241  121  123 2    
   242  122  242 1    
   243  122  243 1    
   244  124  125 1    
   245  124  244 1    
   246  124  245 1    
   247  125  126 1    
   248  126  246 1    
   249  126  247 1    
@<TRIPOS>SUBSTRUCTURE
     1 UNK         1 GROUP             0       ****    0 ROOT    
