@<TRIPOS>MOLECULE
3R540
247   249    1
SMALL
USER_CHARGES


@<TRIPOS>ATOM
      1 CA          6.0840  -19.6306  -49.3706 C.3       0 UNK        -0.1800 
      2 C           5.3490  -18.4041  -48.8519 C.2       0 UNK         0.5000 
      3 O           4.4309  -18.5357  -48.0416 O.2       0 UNK        -0.5000 
      4 N           5.7476  -17.2072  -49.3031 N.am      1 UNK        -0.5000 
      5 CA          5.1611  -15.9099  -48.9346 C.3       1 UNK         0.1400 
      6 C6          5.3789  -14.8557  -50.0550 C.3       23 UNK        -0.0398 
      7 S7          3.9705  -13.7026  -50.2308 S.3       23 UNK        -0.2404 
      8 C8          3.1430  -14.3149  -51.7406 C.3       23 UNK        -0.0205 
      9 C9          2.0931  -15.3772  -51.4380 C.ar      23 UNK        -0.0193 
     10 C10         0.7319  -15.0740  -51.5394 C.ar      23 UNK        -0.1150 
     11 C11        -0.2356  -16.0454  -51.2653 C.ar      23 UNK        -0.0193 
     12 C12         0.1694  -17.3176  -50.8541 C.ar      23 UNK        -0.1150 
     13 C13         1.5277  -17.6435  -50.7564 C.ar      23 UNK        -0.0193 
     14 C14         2.4786  -16.6689  -51.0713 C.ar      23 UNK        -0.1150 
     15 C15         2.0100  -19.0106  -50.2724 C.3       23 UNK        -0.0205 
     16 S16         0.9736  -20.4204  -50.7764 S.3       23 UNK        -0.2404 
     17 C17        -0.2848  -20.4372  -49.4575 C.3       23 UNK        -0.0398 
     18 CA         -0.0784  -21.6109  -48.4773 C.3       11 UNK         0.1400 
     19 N           1.1029  -21.4361  -47.6282 N.am      11 UNK        -0.5000 
     20 C           1.7100  -22.4300  -46.9675 C.2       10 UNK         0.5000 
     21 O           1.3352  -23.6015  -47.0022 O.2       10 UNK        -0.5000 
     22 CA          2.9081  -22.0398  -46.0838 C.3       10 UNK         0.1400 
     23 CB          4.1651  -21.8292  -46.9393 C.3       10 UNK        -0.1800 
     24 N           2.6466  -20.8443  -45.2782 N.am      10 UNK        -0.5000 
     25 C           1.7457  -20.8070  -44.2862 C.2       9 UNK         0.5000 
     26 O           1.0477  -21.7691  -43.9672 O.2       9 UNK        -0.5000 
     27 CA          1.5611  -19.4761  -43.5344 C.3       9 UNK         0.1400 
     28 CB          2.6044  -19.3475  -42.4139 C.3       9 UNK        -0.1800 
     29 N           1.5565  -18.2529  -44.3444 N.am      9 UNK        -0.5000 
     30 C           0.8706  -18.0530  -45.4791 C.2       8 UNK         0.5000 
     31 O           0.3402  -18.9441  -46.1474 O.2       8 UNK        -0.5000 
     32 CA          0.6874  -16.5870  -45.9171 C.3       8 UNK         0.1400 
     33 CB          1.4182  -16.3260  -47.2411 C.3       8 UNK        -0.1800 
     34 N          -0.7332  -16.2481  -46.0703 N.am      8 UNK        -0.5000 
     35 C          -1.6584  -16.3972  -45.1119 C.2       7 UNK         0.5000 
     36 O          -1.3897  -16.7462  -43.9571 O.2       7 UNK        -0.5000 
     37 CA         -3.1263  -16.1236  -45.4854 C.3       7 UNK         0.1400 
     38 CB         -3.5879  -16.9840  -46.6723 C.3       7 UNK        -0.1800 
     39 N          -3.9185  -16.4452  -44.3064 N.am      7 UNK        -0.5000 
     40 C          -5.1282  -15.9970  -43.9601 C.2       6 UNK         0.5000 
     41 O          -5.8316  -15.2833  -44.6752 O.2       6 UNK        -0.5000 
     42 CA         -5.6152  -16.4090  -42.5519 C.3       6 UNK         0.1400 
     43 CB         -6.5002  -17.6621  -42.6350 C.3       6 UNK        -0.1800 
     44 N          -4.4939  -16.6744  -41.6401 N.am      6 UNK        -0.5000 
     45 C          -3.7083  -15.7186  -41.1233 C.2       5 UNK         0.5000 
     46 O          -3.9777  -14.5176  -41.1883 O.2       5 UNK        -0.5000 
     47 CA         -2.3616  -16.1516  -40.5104 C.3       5 UNK         0.1400 
     48 CB         -2.1805  -17.6784  -40.3873 C.3       5 UNK        -0.1800 
     49 N          -1.3311  -15.6302  -41.4006 N.am      5 UNK        -0.5000 
     50 C          -0.6194  -14.5184  -41.2042 C.2       4 UNK         0.5000 
     51 O          -0.5267  -13.9298  -40.1245 O.2       4 UNK        -0.5000 
     52 CA          0.0556  -13.9323  -42.4550 C.3       4 UNK         0.1400 
     53 CB         -0.5756  -12.5839  -42.8359 C.3       4 UNK        -0.1800 
     54 N           1.4891  -13.7576  -42.2651 N.am      4 UNK        -0.5000 
     55 C           2.3800  -14.7470  -42.3773 C.2       3 UNK         0.5000 
     56 O           2.0815  -15.9235  -42.6028 O.2       3 UNK        -0.5000 
     57 CA          3.8596  -14.3414  -42.2318 C.3       3 UNK         0.1400 
     58 CB          4.3203  -14.5186  -40.7771 C.3       3 UNK        -0.1800 
     59 N           4.7480  -15.1098  -43.1069 N.am      3 UNK        -0.5000 
     60 C           4.6319  -15.2197  -44.4379 C.2       2 UNK         0.5000 
     61 O           3.7810  -14.6210  -45.1017 O.2       2 UNK        -0.5000 
     62 CA          5.6325  -16.1742  -45.1213 C.3       2 UNK         0.1400 
     63 CB          5.5913  -17.5799  -44.4937 C.3       2 UNK        -0.1800 
     64 N           5.3609  -16.3293  -46.5451 N.am      2 UNK        -0.5000 
     65 C           5.6240  -15.4610  -47.5264 C.2       1 UNK         0.5000 
     66 O           6.2271  -14.3995  -47.3581 O.2       1 UNK        -0.5000 
     67 C          -1.3489  -21.8394  -47.6415 C.2       11 UNK         0.5000 
     68 O          -2.2450  -22.5466  -48.1038 O.2       11 UNK        -0.5000 
     69 N          -1.4085  -21.2588  -46.4356 N.am      12 UNK        -0.5000 
     70 CA         -2.4700  -21.5026  -45.4610 C.3       12 UNK         0.1400 
     71 CB         -2.3620  -20.4915  -44.3088 C.3       12 UNK        -0.1800 
     72 C          -2.4442  -22.9538  -44.9443 C.2       12 UNK         0.5000 
     73 O          -3.4889  -23.6040  -44.9180 O.2       12 UNK        -0.5000 
     74 N          -1.2482  -23.4485  -44.5909 N.am      13 UNK        -0.5000 
     75 CA         -1.0139  -24.8196  -44.1328 C.3       13 UNK         0.1400 
     76 CB          0.4087  -24.9359  -43.5648 C.3       13 UNK        -0.1800 
     77 C          -1.2441  -25.8724  -45.2324 C.2       13 UNK         0.5000 
     78 O          -1.8419  -26.9136  -44.9585 O.2       13 UNK        -0.5000 
     79 N          -0.7846  -25.5796  -46.4573 N.am      14 UNK        -0.5000 
     80 CA         -0.9453  -26.4429  -47.6315 C.3       14 UNK         0.1400 
     81 CB          0.0592  -26.0066  -48.7101 C.3       14 UNK        -0.1800 
     82 C          -2.3733  -26.4451  -48.2137 C.2       14 UNK         0.5000 
     83 O          -2.6775  -27.3023  -49.0434 O.2       14 UNK        -0.5000 
     84 N          -3.1995  -25.4697  -47.8061 N.am      15 UNK        -0.5000 
     85 CA         -4.5467  -25.1612  -48.3024 C.3       15 UNK         0.1400 
     86 CB         -5.5169  -26.3427  -48.1007 C.3       15 UNK        -0.1800 
     87 C          -4.5612  -24.6181  -49.7481 C.2       15 UNK         0.5000 
     88 O          -5.6249  -24.5304  -50.3620 O.2       15 UNK        -0.5000 
     89 N          -3.3942  -24.1931  -50.2494 N.am      16 UNK        -0.5000 
     90 CA         -3.2223  -23.5145  -51.5327 C.3       16 UNK         0.1400 
     91 CB         -1.7249  -23.4273  -51.8593 C.3       16 UNK        -0.1800 
     92 C          -3.8660  -22.1166  -51.5349 C.2       16 UNK         0.5000 
     93 O          -4.3729  -21.6817  -52.5685 O.2       16 UNK        -0.5000 
     94 N          -3.8801  -21.4586  -50.3665 N.am      17 UNK        -0.5000 
     95 CA         -4.5748  -20.1902  -50.1509 C.3       17 UNK         0.1400 
     96 CB         -4.1085  -19.5645  -48.8319 C.3       17 UNK        -0.1800 
     97 C          -6.1054  -20.3548  -50.1549 C.2       17 UNK         0.5000 
     98 O          -6.8035  -19.4889  -50.6799 O.2       17 UNK        -0.5000 
     99 N          -6.5979  -21.4777  -49.6100 N.am      18 UNK        -0.5000 
    100 CA        -8.0168  -21.8477  -49.6138 C.3       18 UNK         0.1400 
    101 CB        -8.2589  -22.9850  -48.6097 C.3       18 UNK        -0.1800 
    102 C         -8.5090  -22.2346  -51.0212 C.2       18 UNK         0.5000 
    103 O         -9.6356  -21.9001  -51.3877 O.2       18 UNK        -0.5000 
    104 N         -7.6318  -22.8816  -51.8018 N.am      19 UNK        -0.5000 
    105 CA        -7.8163  -23.1639  -53.2276 C.3       19 UNK         0.1400 
    106 CB        -6.8015  -24.2376  -53.6508 C.3       19 UNK        -0.1800 
    107 C         -7.6811  -21.9127  -54.1246 C.2       19 UNK         0.5000 
    108 O         -8.0306  -21.9809  -55.3035 O.2       19 UNK        -0.5000 
    109 N         -7.1749  -20.8076  -53.5560 N.am      20 UNK        -0.5000 
    110 CA        -6.9143  -19.5061  -54.1751 C.3       20 UNK         0.1400 
    111 CB        -8.2291  -18.8344  -54.6223 C.3       20 UNK        -0.1800 
    112 C         -5.8529  -19.5711  -55.2914 C.2       20 UNK         0.5000 
    113 O         -5.9620  -18.8567  -56.2902 O.2       20 UNK        -0.5000 
    114 N         -4.8228  -20.4073  -55.0939 N.am      21 UNK        -0.5000 
    115 CA        -3.7206  -20.6257  -56.0367 C.3       21 UNK         0.1400 
    116 CB        -2.8301  -21.7622  -55.5131 C.3       21 UNK        -0.1800 
    117 C         -2.8791  -19.3617  -56.3039 C.2       21 UNK         0.5000 
    118 O         -2.3613  -19.1966  -57.4090 O.2       21 UNK        -0.5000 
    119 N         -2.7865  -18.4873  -55.2957 N.am      22 UNK        -0.5000 
    120 CA        -2.1798  -17.1509  -55.3746 C.3       22 UNK         0.1400 
    121 C         -3.1314  -16.0380  -55.9103 C.2       22 UNK         0.5000 
    122 N         -4.3731  -16.3287  -56.2833 N.am      22 UNK        -0.7600 
    123 O         -2.7281  -14.8825  -56.0130 O.2       22 UNK        -0.5000 
    124 C124       -1.4925  -16.7616  -54.0399 C.3       23 UNK        -0.0398 
    125 S125       -2.5741  -16.8599  -52.5672 S.3       23 UNK        -0.2404 
    126 C126       -1.7184  -15.7237  -51.4211 C.3       23 UNK        -0.0205 
    127 H127        6.8713  -19.3641  -50.0760 H         1 UNK         0.0600 
    128 H128        5.3860  -20.2988  -49.8747 H         1 UNK         0.0600 
    129 H129        6.5375  -20.1729  -48.5411 H         1 UNK         0.0600 
    130 H130        6.5387  -17.1631  -49.9298 H         1 UNK         0.3000 
    131 H131        4.0851  -16.0686  -48.8463 H         1 UNK         0.0600 
    132 H132        6.2937  -14.2811  -49.9025 H         1 UNK         0.0800 
    133 H133        5.5249  -15.3525  -51.0145 H         1 UNK         0.0800 
    134 H134        2.6756  -13.4632  -52.2369 H         1 UNK         0.0800 
    135 H135        3.8727  -14.7043  -52.4514 H         1 UNK         0.0800 
    136 H136        0.4252  -14.0825  -51.8416 H         1 UNK         0.1150 
    137 H137       -0.5902  -18.0502  -50.6334 H         1 UNK         0.1150 
    138 H138        3.5285  -16.9121  -51.0129 H         1 UNK         0.1150 
    139 H139        3.0130  -19.1993  -50.6564 H         1 UNK         0.0800 
    140 H140        2.0973  -18.9912  -49.1860 H         1 UNK         0.0800 
    141 H141       -1.2496  -20.5120  -49.9604 H         1 UNK         0.0800 
    142 H142       -0.2942  -19.4901  -48.9151 H         1 UNK         0.0800 
    143 H143        0.0679  -22.5180  -49.0671 H         1 UNK         0.0600 
    144 H144        1.4080  -20.4862  -47.4649 H         1 UNK         0.3000 
    145 H145        3.1021  -22.8684  -45.3992 H         1 UNK         0.0600 
    146 H146        5.0164  -21.5219  -46.3318 H         1 UNK         0.0600 
    147 H147        4.4443  -22.7512  -47.4506 H         1 UNK         0.0600 
    148 H148        4.0044  -21.0716  -47.7050 H         1 UNK         0.0600 
    149 H149        3.1578  -20.0057  -45.5111 H         1 UNK         0.3000 
    150 H150        0.5798  -19.5195  -43.0590 H         1 UNK         0.0600 
    151 H151        3.6134  -19.2384  -42.8102 H         1 UNK         0.0600 
    152 H152        2.5993  -20.2295  -41.7720 H         1 UNK         0.0600 
    153 H153        2.3981  -18.4873  -41.7772 H         1 UNK         0.0600 
    154 H154        1.8908  -17.4274  -43.8542 H         1 UNK         0.3000 
    155 H155        1.1106  -15.9286  -45.1565 H         1 UNK         0.0600 
    156 H156        0.9925  -16.9137  -48.0537 H         1 UNK         0.0600 
    157 H157        2.4714  -16.5935  -47.1588 H         1 UNK         0.0600 
    158 H158        1.3708  -15.2743  -47.5237 H         1 UNK         0.0600 
    159 H159       -1.0267  -15.9758  -46.9962 H         1 UNK         0.3000 
    160 H160       -3.2344  -15.0633  -45.7210 H         1 UNK         0.0600 
    161 H161       -3.4358  -18.0453  -46.4730 H         1 UNK         0.0600 
    162 H162       -3.0420  -16.7358  -47.5830 H         1 UNK         0.0600 
    163 H163       -4.6468  -16.8314  -46.8813 H         1 UNK         0.0600 
    164 H164       -3.3917  -16.9770  -43.6257 H         1 UNK         0.3000 
    165 H165       -6.2146  -15.5897  -42.1494 H         1 UNK         0.0600 
    166 H166       -6.8889  -17.9360  -41.6540 H         1 UNK         0.0600 
    167 H167       -7.3575  -17.4909  -43.2874 H         1 UNK         0.0600 
    168 H168       -5.9521  -18.5180  -43.0312 H         1 UNK         0.0600 
    169 H169       -4.2241  -17.6402  -41.5224 H         1 UNK         0.3000 
    170 H170       -2.2858  -15.7071  -39.5161 H         1 UNK         0.0600 
    171 H171       -2.2045  -18.1775  -41.3572 H         1 UNK         0.0600 
    172 H172       -1.2210  -17.9143  -39.9267 H         1 UNK         0.0600 
    173 H173       -2.9539  -18.1195  -39.7571 H         1 UNK         0.0600 
    174 H174       -1.3132  -16.0469  -42.3308 H         1 UNK         0.3000 
    175 H175       -0.0952  -14.6073  -43.2976 H         1 UNK         0.0600 
    176 H176       -0.4335  -11.8357  -42.0551 H         1 UNK         0.0600 
    177 H177       -0.1456  -12.1936  -43.7585 H         1 UNK         0.0600 
    178 H178       -1.6493  -12.6902  -42.9971 H         1 UNK         0.0600 
    179 H179        1.8032  -12.8262  -42.0347 H         1 UNK         0.3000 
    180 H180        3.9618  -13.2895  -42.5062 H         1 UNK         0.0600 
    181 H181        4.2651  -15.5620  -40.4636 H         1 UNK         0.0600 
    182 H182        3.6968  -13.9385  -40.0954 H         1 UNK         0.0600 
    183 H183        5.3478  -14.1801  -40.6427 H         1 UNK         0.0600 
    184 H184        5.4614  -15.6502  -42.6410 H         1 UNK         0.3000 
    185 H185        6.6342  -15.7578  -44.9985 H         1 UNK         0.0600 
    186 H186        4.5988  -18.0221  -44.5822 H         1 UNK         0.0600 
    187 H187        6.2965  -18.2503  -44.9859 H         1 UNK         0.0600 
    188 H188        5.8552  -17.5632  -43.4361 H         1 UNK         0.0600 
    189 H189        4.8845  -17.1839  -46.8196 H         1 UNK         0.3000 
    190 H190       -0.6633  -20.6242  -46.1636 H         1 UNK         0.3000 
    191 H191       -3.4281  -21.3422  -45.9593 H         1 UNK         0.0600 
    192 H192       -2.3810  -19.4666  -44.6786 H         1 UNK         0.0600 
    193 H193       -3.1949  -20.6035  -43.6138 H         1 UNK         0.0600 
    194 H194       -1.4423  -20.6229  -43.7403 H         1 UNK         0.0600 
    195 H195       -0.4385  -22.8341  -44.5991 H         1 UNK         0.3000 
    196 H196       -1.7180  -25.0268  -43.3242 H         1 UNK         0.0600 
    197 H197        0.6092  -25.9485  -43.2125 H         1 UNK         0.0600 
    198 H198        0.5502  -24.2635  -42.7186 H         1 UNK         0.0600 
    199 H199        1.1625  -24.6920  -44.3146 H         1 UNK         0.0600 
    200 H200       -0.2341  -24.7357  -46.5876 H         1 UNK         0.3000 
    201 H201       -0.7091  -27.4689  -47.3417 H         1 UNK         0.0600 
    202 H202       -0.0009  -26.6506  -49.5885 H         1 UNK         0.0600 
    203 H203        1.0832  -26.0606  -48.3402 H         1 UNK         0.0600 
    204 H204       -0.1247  -24.9839  -49.0403 H         1 UNK         0.0600 
    205 H205       -2.8333  -24.8078  -47.1344 H         1 UNK         0.3000 
    206 H206       -4.9030  -24.3407  -47.6780 H         1 UNK         0.0600 
    207 H207       -5.4819  -26.7106  -47.0752 H         1 UNK         0.0600 
    208 H208       -6.5456  -26.0419  -48.3011 H         1 UNK         0.0600 
    209 H209       -5.2900  -27.1757  -48.7660 H         1 UNK         0.0600 
    210 H210       -2.5901  -24.2249  -49.6388 H         1 UNK         0.3000 
    211 H211       -3.7098  -24.1123  -52.3049 H         1 UNK         0.0600 
    212 H212       -1.1839  -22.8380  -51.1200 H         1 UNK         0.0600 
    213 H213       -1.5620  -22.9617  -52.8314 H         1 UNK         0.0600 
    214 H214       -1.2711  -24.4179  -51.8949 H         1 UNK         0.0600 
    215 H215       -3.4369  -21.8897  -49.5616 H         1 UNK         0.3000 
    216 H216       -4.3102  -19.5084  -50.9625 H         1 UNK         0.0600 
    217 H217       -4.6521  -18.6392  -48.6413 H         1 UNK         0.0600 
    218 H218       -3.0482  -19.3166  -48.8589 H         1 UNK         0.0600 
    219 H219       -4.2809  -20.2282  -47.9843 H         1 UNK         0.0600 
    220 H220       -5.9545  -22.1520  -49.2262 H         1 UNK         0.3000 
    221 H221       -8.5945  -20.9806  -49.2863 H         1 UNK         0.0600 
    222 H222       -7.7313  -23.8957  -48.8908 H         1 UNK         0.0600 
    223 H223       -7.9348  -22.7037  -47.6076 H         1 UNK         0.0600 
    224 H224       -9.3202  -23.2296  -48.5509 H         1 UNK         0.0600 
    225 H225       -6.7630  -23.2022  -51.3873 H         1 UNK         0.3000 
    226 H226       -8.8213  -23.5656  -53.3716 H         1 UNK         0.0600 
    227 H227       -6.9597  -24.5387  -54.6871 H         1 UNK         0.0600 
    228 H228       -5.7771  -23.8746  -53.5692 H         1 UNK         0.0600 
    229 H229       -6.8908  -25.1325  -53.0345 H         1 UNK         0.0600 
    230 H230       -6.9066  -20.8755  -52.5842 H         1 UNK         0.3000 
    231 H231       -6.4814  -18.8824  -53.3920 H         1 UNK         0.0600 
    232 H232       -8.6935  -19.3637  -55.4546 H         1 UNK         0.0600 
    233 H233       -8.0530  -17.8079  -54.9459 H         1 UNK         0.0600 
    234 H234       -8.9488  -18.7964  -53.8044 H         1 UNK         0.0600 
    235 H235       -4.7814  -20.9323  -54.2224 H         1 UNK         0.3000 
    236 H236       -4.1565  -20.9404  -56.9869 H         1 UNK         0.0600 
    237 H237       -3.4057  -22.6732  -55.3472 H         1 UNK         0.0600 
    238 H238       -2.0394  -21.9999  -56.2257 H         1 UNK         0.0600 
    239 H239       -2.3527  -21.4902  -54.5713 H         1 UNK         0.0600 
    240 H240       -3.2477  -18.7055  -54.4246 H         1 UNK         0.3000 
    241 H241       -1.3814  -17.1991  -56.1173 H         1 UNK         0.0600 
    242 H242       -4.7345  -17.2753  -56.2492 H         1 UNK         0.3800 
    243 H243       -4.9619  -15.5904  -56.6344 H         1 UNK         0.3800 
    244 H244       -0.6472  -17.4295  -53.8682 H         1 UNK         0.0800 
    245 H245       -1.0616  -15.7611  -54.1080 H         1 UNK         0.0800 
    246 H246       -2.1988  -15.7787  -50.4435 H         1 UNK         0.0800 
    247 H247       -1.8567  -14.7014  -51.7764 H         1 UNK         0.0800 
@<TRIPOS>BOND
     1    1    2 1    
     2    1  127 1    
     3    1  128 1    
     4    1  129 1    
     5    2    3 2    
     6    2    4 am   BACKBONE|DICT|INTERRES
     7    4    5 1    
     8    4  130 1    
     9    5    6 1    
    10    5   65 1    
    11    5  131 1    
    12    6    7 1    
    13    6  132 1    
    14    6  133 1    
    15    7    8 1    
    16    8    9 1    
    17    8  134 1    
    18    8  135 1    
    19    9   10 ar   
    20    9   14 ar   
    21   10   11 ar   
    22   10  136 1    
    23   11   12 ar   
    24   11  126 1    
    25   12   13 ar   
    26   12  137 1    
    27   13   14 ar   
    28   13   15 1    
    29   14  138 1    
    30   15   16 1    
    31   15  139 1    
    32   15  140 1    
    33   16   17 1    
    34   17   18 1    
    35   17  141 1    
    36   17  142 1    
    37   18   19 1    
    38   18   67 1    
    39   18  143 1    
    40   19   20 am   BACKBONE|DICT|INTERRES
    41   19  144 1    
    42   20   21 2    
    43   20   22 1    
    44   22   23 1    
    45   22   24 1    
    46   22  145 1    
    47   23  146 1    
    48   23  147 1    
    49   23  148 1    
    50   24   25 am   BACKBONE|DICT|INTERRES
    51   24  149 1    
    52   25   26 2    
    53   25   27 1    
    54   27   28 1    
    55   27   29 1    
    56   27  150 1    
    57   28  151 1    
    58   28  152 1    
    59   28  153 1    
    60   29   30 am   BACKBONE|DICT|INTERRES
    61   29  154 1    
    62   30   31 2    
    63   30   32 1    
    64   32   33 1    
    65   32   34 1    
    66   32  155 1    
    67   33  156 1    
    68   33  157 1    
    69   33  158 1    
    70   34   35 am   BACKBONE|DICT|INTERRES
    71   34  159 1    
    72   35   36 2    
    73   35   37 1    
    74   37   38 1    
    75   37   39 1    
    76   37  160 1    
    77   38  161 1    
    78   38  162 1    
    79   38  163 1    
    80   39   40 am   BACKBONE|DICT|INTERRES
    81   39  164 1    
    82   40   41 2    
    83   40   42 1    
    84   42   43 1    
    85   42   44 1    
    86   42  165 1    
    87   43  166 1    
    88   43  167 1    
    89   43  168 1    
    90   44   45 am   BACKBONE|DICT|INTERRES
    91   44  169 1    
    92   45   46 2    
    93   45   47 1    
    94   47   48 1    
    95   47   49 1    
    96   47  170 1    
    97   48  171 1    
    98   48  172 1    
    99   48  173 1    
   100   49   50 am   BACKBONE|DICT|INTERRES
   101   49  174 1    
   102   50   51 2    
   103   50   52 1    
   104   52   53 1    
   105   52   54 1    
   106   52  175 1    
   107   53  176 1    
   108   53  177 1    
   109   53  178 1    
   110   54   55 am   BACKBONE|DICT|INTERRES
   111   54  179 1    
   112   55   56 2    
   113   55   57 1    
   114   57   58 1    
   115   57   59 1    
   116   57  180 1    
   117   58  181 1    
   118   58  182 1    
   119   58  183 1    
   120   59   60 am   BACKBONE|DICT|INTERRES
   121   59  184 1    
   122   60   61 2    
   123   60   62 1    
   124   62   63 1    
   125   62   64 1    
   126   62  185 1    
   127   63  186 1    
   128   63  187 1    
   129   63  188 1    
   130   64   65 am   BACKBONE|DICT|INTERRES
   131   64  189 1    
   132   65   66 2    
   133   67   68 2    
   134   67   69 am   BACKBONE|DICT|INTERRES
   135   69   70 1    
   136   69  190 1    
   137   70   71 1    
   138   70   72 1    
   139   70  191 1    
   140   71  192 1    
   141   71  193 1    
   142   71  194 1    
   143   72   73 2    
   144   72   74 am   BACKBONE|DICT|INTERRES
   145   74   75 1    
   146   74  195 1    
   147   75   76 1    
   148   75   77 1    
   149   75  196 1    
   150   76  197 1    
   151   76  198 1    
   152   76  199 1    
   153   77   78 2    
   154   77   79 am   BACKBONE|DICT|INTERRES
   155   79   80 1    
   156   79  200 1    
   157   80   81 1    
   158   80   82 1    
   159   80  201 1    
   160   81  202 1    
   161   81  203 1    
   162   81  204 1    
   163   82   83 2    
   164   82   84 am   BACKBONE|DICT|INTERRES
   165   84   85 1    
   166   84  205 1    
   167   85   86 1    
   168   85   87 1    
   169   85  206 1    
   170   86  207 1    
   171   86  208 1    
   172   86  209 1    
   173   87   88 2    
   174   87   89 am   BACKBONE|DICT|INTERRES
   175   89   90 1    
   176   89  210 1    
   177   90   91 1    
   178   90   92 1    
   179   90  211 1    
   180   91  212 1    
   181   91  213 1    
   182   91  214 1    
   183   92   93 2    
   184   92   94 am   BACKBONE|DICT|INTERRES
   185   94   95 1    
   186   94  215 1    
   187   95   96 1    
   188   95   97 1    
   189   95  216 1    
   190   96  217 1    
   191   96  218 1    
   192   96  219 1    
   193   97   98 2    
   194   97   99 am   BACKBONE|DICT|INTERRES
   195   99  100 1    
   196   99  220 1    
   197  100  101 1    
   198  100  102 1    
   199  100  221 1    
   200  101  222 1    
   201  101  223 1    
   202  101  224 1    
   203  102  103 2    
   204  102  104 am   BACKBONE|DICT|INTERRES
   205  104  105 1    
   206  104  225 1    
   207  105  106 1    
   208  105  107 1    
   209  105  226 1    
   210  106  227 1    
   211  106  228 1    
   212  106  229 1    
   213  107  108 2    
   214  107  109 am   BACKBONE|DICT|INTERRES
   215  109  110 1    
   216  109  230 1    
   217  110  111 1    
   218  110  112 1    
   219  110  231 1    
   220  111  232 1    
   221  111  233 1    
   222  111  234 1    
   223  112  113 2    
   224  112  114 am   BACKBONE|DICT|INTERRES
   225  114  115 1    
   226  114  235 1    
   227  115  116 1    
   228  115  117 1    
   229  115  236 1    
   230  116  237 1    
   231  116  238 1    
   232  116  239 1    
   233  117  118 2    
   234  117  119 am   BACKBONE|DICT|INTERRES
   235  119  120 1    
   236  119  240 1    
   237  120  121 1    
   238  120  124 1    
   239  120  241 1    
   240  121  122 am   BACKBONE|DICT|INTERRES
   241  121  123 2    
   242  122  242 1    
   243  122  243 1    
   244  124  125 1    
   245  124  244 1    
   246  124  245 1    
   247  125  126 1    
   248  126  246 1    
   249  126  247 1    
@<TRIPOS>SUBSTRUCTURE
     1 UNK         1 GROUP             0       ****    0 ROOT    
