@<TRIPOS>MOLECULE
3R540
247   249    1
SMALL
USER_CHARGES


@<TRIPOS>ATOM
      1 CA         -0.9747  -10.6713  -52.8161 C.3       0 UNK        -0.1800 
      2 C          -0.3654  -11.5089  -51.7007 C.2       0 UNK         0.5000 
      3 O           0.6518  -12.1680  -51.9167 O.2       0 UNK        -0.5000 
      4 N          -0.9904  -11.4949  -50.5177 N.am      1 UNK        -0.5000 
      5 CA         -0.5498  -12.2270  -49.3255 C.3       1 UNK         0.1400 
      6 C6         -1.6555  -12.3143  -48.2398 C.3       23 UNK        -0.0398 
      7 S7         -3.2714  -12.8851  -48.8775 S.3       23 UNK        -0.2404 
      8 C8         -3.2308  -14.6752  -48.5219 C.3       23 UNK        -0.0205 
      9 C9         -2.1439  -15.4315  -49.2800 C.ar      23 UNK        -0.0193 
     10 C10        -1.8926  -15.1752  -50.6339 C.ar      23 UNK        -0.1150 
     11 C11        -0.8725  -15.8500  -51.3089 C.ar      23 UNK        -0.0193 
     12 C12        -0.1312  -16.8231  -50.6350 C.ar      23 UNK        -0.1150 
     13 C13        -0.3968  -17.1184  -49.2955 C.ar      23 UNK        -0.0193 
     14 C14        -1.3944  -16.4104  -48.6195 C.ar      23 UNK        -0.1150 
     15 C15         0.3971  -18.2055  -48.5886 C.3       23 UNK        -0.0205 
     16 S16        -0.1790  -19.8623  -49.0671 S.3       23 UNK        -0.2404 
     17 C17        -1.7674  -19.9907  -48.1726 C.3       23 UNK        -0.0398 
     18 CA         -1.8303  -21.2767  -47.3126 C.3       11 UNK         0.1400 
     19 N          -0.8079  -21.3074  -46.2633 N.am      11 UNK        -0.5000 
     20 C           0.0646  -22.3062  -46.0766 C.2       10 UNK         0.5000 
     21 O           0.1261  -23.3115  -46.7823 O.2       10 UNK        -0.5000 
     22 CA          1.0044  -22.1877  -44.8653 C.3       10 UNK         0.1400 
     23 CB          2.2610  -21.3873  -45.2377 C.3       10 UNK        -0.1800 
     24 N           0.3773  -21.5891  -43.6852 N.am      10 UNK        -0.5000 
     25 C          -0.6870  -22.0852  -43.0374 C.2       9 UNK         0.5000 
     26 O          -1.3192  -23.0717  -43.4177 O.2       9 UNK        -0.5000 
     27 CA         -1.1359  -21.3356  -41.7739 C.3       9 UNK         0.1400 
     28 CB         -0.1640  -21.5884  -40.6105 C.3       9 UNK        -0.1800 
     29 N          -1.2206  -19.9013  -42.0372 N.am      9 UNK        -0.5000 
     30 C          -2.3427  -19.2601  -42.3916 C.2       8 UNK         0.5000 
     31 O          -3.4514  -19.7910  -42.4227 O.2       8 UNK        -0.5000 
     32 CA         -2.2197  -17.7745  -42.7835 C.3       8 UNK         0.1400 
     33 CB         -2.6726  -16.8714  -41.6264 C.3       8 UNK        -0.1800 
     34 N          -0.8685  -17.3896  -43.1911 N.am      8 UNK        -0.5000 
     35 C          -0.2710  -17.7940  -44.3211 C.2       7 UNK         0.5000 
     36 O          -0.8019  -18.5350  -45.1487 O.2       7 UNK        -0.5000 
     37 CA          1.1863  -17.3413  -44.5317 C.3       7 UNK         0.1400 
     38 CB          1.2292  -16.0005  -45.2780 C.3       7 UNK        -0.1800 
     39 N           1.9466  -17.2257  -43.2835 N.am      7 UNK        -0.5000 
     40 C           2.1675  -18.2333  -42.4236 C.2       6 UNK         0.5000 
     41 O           1.7613  -19.3804  -42.6074 O.2       6 UNK        -0.5000 
     42 CA          2.9214  -17.9124  -41.1187 C.3       6 UNK         0.1400 
     43 CB          4.4066  -18.2761  -41.2598 C.3       6 UNK        -0.1800 
     44 N           2.8109  -16.5163  -40.6942 N.am      6 UNK        -0.5000 
     45 C           1.6707  -15.8755  -40.3982 C.2       5 UNK         0.5000 
     46 O           0.5625  -16.4115  -40.4124 O.2       5 UNK        -0.5000 
     47 CA          1.7839  -14.3721  -40.0764 C.3       5 UNK         0.1400 
     48 CB          1.7767  -14.1471  -38.5569 C.3       5 UNK        -0.1800 
     49 N           2.9702  -13.7259  -40.6512 N.am      5 UNK        -0.5000 
     50 C           3.2225  -13.6106  -41.9620 C.2       4 UNK         0.5000 
     51 O           2.5041  -14.0870  -42.8433 O.2       4 UNK        -0.5000 
     52 CA          4.5229  -12.8876  -42.3520 C.3       4 UNK         0.1400 
     53 CB          5.5591  -13.8942  -42.8763 C.3       4 UNK        -0.1800 
     54 N           4.2776  -11.8761  -43.3768 N.am      4 UNK        -0.5000 
     55 C           3.6080  -10.7320  -43.1788 C.2       3 UNK         0.5000 
     56 O           3.1830  -10.3724  -42.0798 O.2       3 UNK        -0.5000 
     57 CA          3.3855   -9.8261  -44.4068 C.3       3 UNK         0.1400 
     58 CB          4.4011   -8.6727  -44.4132 C.3       3 UNK        -0.1800 
     59 N           3.4713  -10.5398  -45.6842 N.am      3 UNK        -0.5000 
     60 C           2.5342  -11.3755  -46.1486 C.2       2 UNK         0.5000 
     61 O           1.4916  -11.6414  -45.5453 O.2       2 UNK        -0.5000 
     62 CA          2.8365  -12.0412  -47.5052 C.3       2 UNK         0.1400 
     63 CB          3.7380  -13.2707  -47.3134 C.3       2 UNK        -0.1800 
     64 N           1.6150  -12.4525  -48.1975 N.am      2 UNK        -0.5000 
     65 C           0.7323  -11.6034  -48.7381 C.2       1 UNK         0.5000 
     66 O           0.8884  -10.3789  -48.7661 O.2       1 UNK        -0.5000 
     67 C          -3.2314  -21.5571  -46.7285 C.2       11 UNK         0.5000 
     68 O          -4.2312  -21.1618  -47.3275 O.2       11 UNK        -0.5000 
     69 N          -3.2888  -22.2880  -45.6071 N.am      12 UNK        -0.5000 
     70 CA         -4.4822  -22.9784  -45.1132 C.3       12 UNK         0.1400 
     71 CB         -4.8167  -22.5204  -43.6873 C.3       12 UNK        -0.1800 
     72 C          -4.2481  -24.4971  -45.1663 C.2       12 UNK         0.5000 
     73 O          -5.1192  -25.2316  -45.6350 O.2       12 UNK        -0.5000 
     74 N          -3.0530  -24.9360  -44.7463 N.am      13 UNK        -0.5000 
     75 CA         -2.5501  -26.3012  -44.8970 C.3       13 UNK         0.1400 
     76 CB         -1.2107  -26.4044  -44.1505 C.3       13 UNK        -0.1800 
     77 C          -2.3700  -26.7084  -46.3742 C.2       13 UNK         0.5000 
     78 O          -2.2797  -25.8433  -47.2483 O.2       13 UNK        -0.5000 
     79 N          -2.3080  -28.0257  -46.6196 N.am      14 UNK        -0.5000 
     80 CA         -2.0819  -28.6650  -47.9243 C.3       14 UNK         0.1400 
     81 CB         -0.6327  -28.4211  -48.3964 C.3       14 UNK        -0.1800 
     82 C          -3.1311  -28.2589  -48.9813 C.2       14 UNK         0.5000 
     83 O          -2.7739  -27.8923  -50.1025 O.2       14 UNK        -0.5000 
     84 N          -4.4108  -28.2915  -48.5771 N.am      15 UNK        -0.5000 
     85 CA         -5.5849  -27.8600  -49.3471 C.3       15 UNK         0.1400 
     86 CB         -5.8356  -28.8063  -50.5405 C.3       15 UNK        -0.1800 
     87 C          -5.4845  -26.3780  -49.7635 C.2       15 UNK         0.5000 
     88 O          -5.6674  -26.0455  -50.9357 O.2       15 UNK        -0.5000 
     89 N          -5.1412  -25.5247  -48.7881 N.am      16 UNK        -0.5000 
     90 CA         -4.8633  -24.0940  -48.9302 C.3       16 UNK         0.1400 
     91 CB         -6.1546  -23.3171  -49.2618 C.3       16 UNK        -0.1800 
     92 C          -3.7068  -23.8092  -49.9095 C.2       16 UNK         0.5000 
     93 O          -3.8423  -22.9555  -50.7832 O.2       16 UNK        -0.5000 
     94 N          -2.6081  -24.5654  -49.7608 N.am      17 UNK        -0.5000 
     95 CA         -1.4371  -24.6213  -50.6437 C.3       17 UNK         0.1400 
     96 CB         -0.5969  -23.3338  -50.5214 C.3       17 UNK        -0.1800 
     97 C          -1.8210  -24.9527  -52.1015 C.2       17 UNK         0.5000 
     98 O          -1.4425  -24.2279  -53.0236 O.2       17 UNK        -0.5000 
     99 N          -2.6150  -26.0210  -52.2713 N.am      18 UNK        -0.5000 
    100 CA        -3.2407  -26.4699  -53.5220 C.3       18 UNK         0.1400 
    101 CB        -2.1822  -27.0731  -54.4675 C.3       18 UNK        -0.1800 
    102 C         -4.0840  -25.3566  -54.1835 C.2       18 UNK         0.5000 
    103 O         -3.9331  -25.0784  -55.3742 O.2       18 UNK        -0.5000 
    104 N         -4.9166  -24.7060  -53.3598 N.am      19 UNK        -0.5000 
    105 CA        -5.7536  -23.5318  -53.6315 C.3       19 UNK         0.1400 
    106 CB        -6.7741  -23.8229  -54.7508 C.3       19 UNK        -0.1800 
    107 C         -4.9846  -22.2137  -53.8809 C.2       19 UNK         0.5000 
    108 O         -5.6309  -21.1934  -54.1259 O.2       19 UNK        -0.5000 
    109 N         -3.6445  -22.2345  -53.8084 N.am      20 UNK        -0.5000 
    110 CA        -2.6730  -21.1338  -53.9028 C.3       20 UNK         0.1400 
    111 CB        -2.8618  -20.1341  -52.7451 C.3       20 UNK        -0.1800 
    112 C         -2.6087  -20.3951  -55.2570 C.2       20 UNK         0.5000 
    113 O         -1.5184  -19.9938  -55.6640 O.2       20 UNK        -0.5000 
    114 N         -3.7611  -20.2173  -55.9176 N.am      21 UNK        -0.5000 
    115 CA        -3.9995  -19.4566  -57.1513 C.3       21 UNK         0.1400 
    116 CB        -3.1969  -20.0346  -58.3357 C.3       21 UNK        -0.1800 
    117 C         -3.8071  -17.9328  -56.9768 C.2       21 UNK         0.5000 
    118 O         -3.6020  -17.2212  -57.9617 O.2       21 UNK        -0.5000 
    119 N         -3.8981  -17.4583  -55.7282 N.am      22 UNK        -0.5000 
    120 CA        -3.7475  -16.0478  -55.3322 C.3       22 UNK         0.1400 
    121 C         -5.0659  -15.2225  -55.4098 C.2       22 UNK         0.5000 
    122 N         -6.2113  -15.8161  -55.7235 N.am      22 UNK        -0.7600 
    123 O         -5.0483  -14.0137  -55.1942 O.2       22 UNK        -0.5000 
    124 C124       -3.0903  -15.9265  -53.9326 C.3       23 UNK        -0.0398 
    125 S125       -1.4060  -16.6312  -53.9109 S.3       23 UNK        -0.2404 
    126 C126       -0.5505  -15.5167  -52.7572 C.3       23 UNK        -0.0205 
    127 H127       -0.2567   -9.9277  -53.1619 H         1 UNK         0.0600 
    128 H128       -1.8735  -10.1493  -52.4868 H         1 UNK         0.0600 
    129 H129       -1.2415  -11.3082  -53.6596 H         1 UNK         0.0600 
    130 H130       -1.8160  -10.9267  -50.3963 H         1 UNK         0.3000 
    131 H131       -0.3003  -13.2410  -49.6392 H         1 UNK         0.0600 
    132 H132       -1.8175  -11.3345  -47.7864 H         1 UNK         0.0800 
    133 H133       -1.3404  -12.9715  -47.4272 H         1 UNK         0.0800 
    134 H134       -3.1191  -14.8137  -47.4453 H         1 UNK         0.0800 
    135 H135       -4.1971  -15.1046  -48.7887 H         1 UNK         0.0800 
    136 H136       -2.4705  -14.4261  -51.1560 H         1 UNK         0.1150 
    137 H137        0.6474  -17.3612  -51.1574 H         1 UNK         0.1150 
    138 H138       -1.5930  -16.6302  -47.5796 H         1 UNK         0.1150 
    139 H139        1.4523  -18.1098  -48.8479 H         1 UNK         0.0800 
    140 H140        0.3384  -18.0974  -47.5063 H         1 UNK         0.0800 
    141 H141       -2.5571  -19.9859  -48.9260 H         1 UNK         0.0800 
    142 H142       -1.9302  -19.1099  -47.5512 H         1 UNK         0.0800 
    143 H143       -1.6682  -22.1081  -47.9998 H         1 UNK         0.0600 
    144 H144       -0.7781  -20.4965  -45.6526 H         1 UNK         0.3000 
    145 H145        1.3141  -23.1980  -44.5899 H         1 UNK         0.0600 
    146 H146        2.9625  -21.3398  -44.4045 H         1 UNK         0.0600 
    147 H147        2.7824  -21.8482  -46.0775 H         1 UNK         0.0600 
    148 H148        2.0130  -20.3667  -45.5273 H         1 UNK         0.0600 
    149 H149        0.8495  -20.7751  -43.2969 H         1 UNK         0.3000 
    150 H150       -2.1133  -21.7243  -41.4806 H         1 UNK         0.0600 
    151 H151       -0.0888  -22.6543  -40.3916 H         1 UNK         0.0600 
    152 H152       -0.5048  -21.0932  -39.7012 H         1 UNK         0.0600 
    153 H153        0.8412  -21.2271  -40.8296 H         1 UNK         0.0600 
    154 H154       -0.3448  -19.3959  -42.0671 H         1 UNK         0.3000 
    155 H155       -2.8880  -17.6039  -43.6302 H         1 UNK         0.0600 
    156 H156       -3.7052  -17.0847  -41.3469 H         1 UNK         0.0600 
    157 H157       -2.6218  -15.8180  -41.9022 H         1 UNK         0.0600 
    158 H158       -2.0572  -17.0171  -40.7380 H         1 UNK         0.0600 
    159 H159       -0.3432  -16.8250  -42.5356 H         1 UNK         0.3000 
    160 H160        1.6798  -18.0901  -45.1524 H         1 UNK         0.0600 
    161 H161        0.7637  -15.2014  -44.6996 H         1 UNK         0.0600 
    162 H162        0.7076  -16.0593  -46.2336 H         1 UNK         0.0600 
    163 H163        2.2575  -15.7073  -45.4843 H         1 UNK         0.0600 
    164 H164        2.2827  -16.2994  -43.0476 H         1 UNK         0.3000 
    165 H165        2.4875  -18.5334  -40.3324 H         1 UNK         0.0600 
    166 H166        4.9375  -18.1427  -40.3170 H         1 UNK         0.0600 
    167 H167        4.5273  -19.3197  -41.5538 H         1 UNK         0.0600 
    168 H168        4.9009  -17.6629  -42.0145 H         1 UNK         0.0600 
    169 H169        3.6701  -15.9889  -40.6540 H         1 UNK         0.3000 
    170 H170        0.9030  -13.8844  -40.4990 H         1 UNK         0.0600 
    171 H171        0.8920  -14.5926  -38.0999 H         1 UNK         0.0600 
    172 H172        2.6514  -14.5912  -38.0801 H         1 UNK         0.0600 
    173 H173        1.7642  -13.0842  -38.3150 H         1 UNK         0.0600 
    174 H174        3.6149  -13.3128  -39.9925 H         1 UNK         0.3000 
    175 H175        4.9380  -12.3916  -41.4720 H         1 UNK         0.0600 
    176 H176        5.2054  -14.4084  -43.7712 H         1 UNK         0.0600 
    177 H177        6.4992  -13.4004  -43.1229 H         1 UNK         0.0600 
    178 H178        5.7796  -14.6551  -42.1265 H         1 UNK         0.0600 
    179 H179        4.5614  -12.1056  -44.3167 H         1 UNK         0.3000 
    180 H180        2.3851   -9.3969  -44.3187 H         1 UNK         0.0600 
    181 H181        5.4244   -9.0373  -44.5113 H         1 UNK         0.0600 
    182 H182        4.3452   -8.0973  -43.4881 H         1 UNK         0.0600 
    183 H183        4.2093   -7.9822  -45.2348 H         1 UNK         0.0600 
    184 H184        4.3001  -10.3722  -46.2368 H         1 UNK         0.3000 
    185 H185        3.3609  -11.3209  -48.1371 H         1 UNK         0.0600 
    186 H186        3.9657  -13.7473  -48.2671 H         1 UNK         0.0600 
    187 H187        4.6886  -12.9942  -46.8559 H         1 UNK         0.0600 
    188 H188        3.2701  -14.0140  -46.6693 H         1 UNK         0.0600 
    189 H189        1.4071  -13.4399  -48.1859 H         1 UNK         0.3000 
    190 H190       -2.4149  -22.5501  -45.1684 H         1 UNK         0.3000 
    191 H191       -5.3447  -22.7605  -45.7466 H         1 UNK         0.0600 
    192 H192       -5.0869  -21.4650  -43.6748 H         1 UNK         0.0600 
    193 H193       -5.6660  -23.0754  -43.2873 H         1 UNK         0.0600 
    194 H194       -3.9796  -22.6618  -43.0040 H         1 UNK         0.0600 
    195 H195       -2.4022  -24.2746  -44.3322 H         1 UNK         0.3000 
    196 H196       -3.2694  -26.9803  -44.4351 H         1 UNK         0.0600 
    197 H197       -0.8070  -27.4165  -44.1967 H         1 UNK         0.0600 
    198 H198       -1.3254  -26.1489  -43.0969 H         1 UNK         0.0600 
    199 H199       -0.4641  -25.7323  -44.5767 H         1 UNK         0.0600 
    200 H200       -2.4015  -28.6612  -45.8392 H         1 UNK         0.3000 
    201 H201       -2.2023  -29.7386  -47.7726 H         1 UNK         0.0600 
    202 H202        0.0861  -28.7532  -47.6474 H         1 UNK         0.0600 
    203 H203       -0.4426  -27.3663  -48.5970 H         1 UNK         0.0600 
    204 H204       -0.4217  -28.9717  -49.3139 H         1 UNK         0.0600 
    205 H205       -4.5950  -28.5875  -47.6288 H         1 UNK         0.3000 
    206 H206       -6.4442  -27.9351  -48.6793 H         1 UNK         0.0600 
    207 H207       -5.9214  -29.8416  -50.2107 H         1 UNK         0.0600 
    208 H208       -6.7647  -28.5507  -51.0512 H         1 UNK         0.0600 
    209 H209       -5.0345  -28.7552  -51.2783 H         1 UNK         0.0600 
    210 H210       -4.9934  -25.8953  -47.8578 H         1 UNK         0.3000 
    211 H211       -4.5186  -23.7614  -47.9559 H         1 UNK         0.0600 
    212 H212       -6.5572  -23.5918  -50.2366 H         1 UNK         0.0600 
    213 H213       -5.9697  -22.2424  -49.2759 H         1 UNK         0.0600 
    214 H214       -6.9261  -23.5022  -48.5147 H         1 UNK         0.0600 
    215 H215       -2.5772  -25.2010  -48.9656 H         1 UNK         0.3000 
    216 H216       -0.8235  -25.4516  -50.2916 H         1 UNK         0.0600 
    217 H217        0.2881  -23.3806  -51.1566 H         1 UNK         0.0600 
    218 H218       -0.2461  -23.1902  -49.5006 H         1 UNK         0.0600 
    219 H219       -1.1619  -22.4480  -50.8130 H         1 UNK         0.0600 
    220 H220       -2.8413  -26.5765  -51.4486 H         1 UNK         0.3000 
    221 H221       -3.9367  -27.2648  -53.2503 H         1 UNK         0.0600 
    222 H222       -1.4636  -26.3245  -54.8026 H         1 UNK         0.0600 
    223 H223       -1.6282  -27.8736  -53.9771 H         1 UNK         0.0600 
    224 H224       -2.6499  -27.4990  -55.3558 H         1 UNK         0.0600 
    225 H225       -4.9795  -25.0503  -52.4039 H         1 UNK         0.3000 
    226 H226       -6.3183  -23.3679  -52.7131 H         1 UNK         0.0600 
    227 H227       -7.3272  -24.7408  -54.5517 H         1 UNK         0.0600 
    228 H228       -7.5048  -23.0174  -54.8324 H         1 UNK         0.0600 
    229 H229       -6.2935  -23.9228  -55.7242 H         1 UNK         0.0600 
    230 H230       -3.2174  -23.1293  -53.5998 H         1 UNK         0.3000 
    231 H231       -1.6972  -21.6019  -53.7661 H         1 UNK         0.0600 
    232 H232       -3.8195  -19.6167  -52.8033 H         1 UNK         0.0600 
    233 H233       -2.0787  -19.3753  -52.7531 H         1 UNK         0.0600 
    234 H234       -2.8099  -20.6354  -51.7787 H         1 UNK         0.0600 
    235 H235       -4.5956  -20.5662  -55.4491 H         1 UNK         0.3000 
    236 H236       -5.0568  -19.5952  -57.3805 H         1 UNK         0.0600 
    237 H237       -3.3435  -21.1111  -58.4240 H         1 UNK         0.0600 
    238 H238       -3.5150  -19.5869  -59.2778 H         1 UNK         0.0600 
    239 H239       -2.1278  -19.8476  -58.2334 H         1 UNK         0.0600 
    240 H240       -4.0692  -18.1146  -54.9815 H         1 UNK         0.3000 
    241 H241       -3.0725  -15.5681  -56.0437 H         1 UNK         0.0600 
    242 H242       -7.0560  -15.2683  -55.7767 H         1 UNK         0.3800 
    243 H243       -6.2431  -16.8053  -55.9105 H         1 UNK         0.3800 
    244 H244       -3.6921  -16.4308  -53.1748 H         1 UNK         0.0800 
    245 H245       -3.0329  -14.8794  -53.6311 H         1 UNK         0.0800 
    246 H246        0.5248  -15.6066  -52.9184 H         1 UNK         0.0800 
    247 H247       -0.7982  -14.4779  -52.9798 H         1 UNK         0.0800 
@<TRIPOS>BOND
     1    1    2 1    
     2    1  127 1    
     3    1  128 1    
     4    1  129 1    
     5    2    3 2    
     6    2    4 am   BACKBONE|DICT|INTERRES
     7    4    5 1    
     8    4  130 1    
     9    5    6 1    
    10    5   65 1    
    11    5  131 1    
    12    6    7 1    
    13    6  132 1    
    14    6  133 1    
    15    7    8 1    
    16    8    9 1    
    17    8  134 1    
    18    8  135 1    
    19    9   10 ar   
    20    9   14 ar   
    21   10   11 ar   
    22   10  136 1    
    23   11   12 ar   
    24   11  126 1    
    25   12   13 ar   
    26   12  137 1    
    27   13   14 ar   
    28   13   15 1    
    29   14  138 1    
    30   15   16 1    
    31   15  139 1    
    32   15  140 1    
    33   16   17 1    
    34   17   18 1    
    35   17  141 1    
    36   17  142 1    
    37   18   19 1    
    38   18   67 1    
    39   18  143 1    
    40   19   20 am   BACKBONE|DICT|INTERRES
    41   19  144 1    
    42   20   21 2    
    43   20   22 1    
    44   22   23 1    
    45   22   24 1    
    46   22  145 1    
    47   23  146 1    
    48   23  147 1    
    49   23  148 1    
    50   24   25 am   BACKBONE|DICT|INTERRES
    51   24  149 1    
    52   25   26 2    
    53   25   27 1    
    54   27   28 1    
    55   27   29 1    
    56   27  150 1    
    57   28  151 1    
    58   28  152 1    
    59   28  153 1    
    60   29   30 am   BACKBONE|DICT|INTERRES
    61   29  154 1    
    62   30   31 2    
    63   30   32 1    
    64   32   33 1    
    65   32   34 1    
    66   32  155 1    
    67   33  156 1    
    68   33  157 1    
    69   33  158 1    
    70   34   35 am   BACKBONE|DICT|INTERRES
    71   34  159 1    
    72   35   36 2    
    73   35   37 1    
    74   37   38 1    
    75   37   39 1    
    76   37  160 1    
    77   38  161 1    
    78   38  162 1    
    79   38  163 1    
    80   39   40 am   BACKBONE|DICT|INTERRES
    81   39  164 1    
    82   40   41 2    
    83   40   42 1    
    84   42   43 1    
    85   42   44 1    
    86   42  165 1    
    87   43  166 1    
    88   43  167 1    
    89   43  168 1    
    90   44   45 am   BACKBONE|DICT|INTERRES
    91   44  169 1    
    92   45   46 2    
    93   45   47 1    
    94   47   48 1    
    95   47   49 1    
    96   47  170 1    
    97   48  171 1    
    98   48  172 1    
    99   48  173 1    
   100   49   50 am   BACKBONE|DICT|INTERRES
   101   49  174 1    
   102   50   51 2    
   103   50   52 1    
   104   52   53 1    
   105   52   54 1    
   106   52  175 1    
   107   53  176 1    
   108   53  177 1    
   109   53  178 1    
   110   54   55 am   BACKBONE|DICT|INTERRES
   111   54  179 1    
   112   55   56 2    
   113   55   57 1    
   114   57   58 1    
   115   57   59 1    
   116   57  180 1    
   117   58  181 1    
   118   58  182 1    
   119   58  183 1    
   120   59   60 am   BACKBONE|DICT|INTERRES
   121   59  184 1    
   122   60   61 2    
   123   60   62 1    
   124   62   63 1    
   125   62   64 1    
   126   62  185 1    
   127   63  186 1    
   128   63  187 1    
   129   63  188 1    
   130   64   65 am   BACKBONE|DICT|INTERRES
   131   64  189 1    
   132   65   66 2    
   133   67   68 2    
   134   67   69 am   BACKBONE|DICT|INTERRES
   135   69   70 1    
   136   69  190 1    
   137   70   71 1    
   138   70   72 1    
   139   70  191 1    
   140   71  192 1    
   141   71  193 1    
   142   71  194 1    
   143   72   73 2    
   144   72   74 am   BACKBONE|DICT|INTERRES
   145   74   75 1    
   146   74  195 1    
   147   75   76 1    
   148   75   77 1    
   149   75  196 1    
   150   76  197 1    
   151   76  198 1    
   152   76  199 1    
   153   77   78 2    
   154   77   79 am   BACKBONE|DICT|INTERRES
   155   79   80 1    
   156   79  200 1    
   157   80   81 1    
   158   80   82 1    
   159   80  201 1    
   160   81  202 1    
   161   81  203 1    
   162   81  204 1    
   163   82   83 2    
   164   82   84 am   BACKBONE|DICT|INTERRES
   165   84   85 1    
   166   84  205 1    
   167   85   86 1    
   168   85   87 1    
   169   85  206 1    
   170   86  207 1    
   171   86  208 1    
   172   86  209 1    
   173   87   88 2    
   174   87   89 am   BACKBONE|DICT|INTERRES
   175   89   90 1    
   176   89  210 1    
   177   90   91 1    
   178   90   92 1    
   179   90  211 1    
   180   91  212 1    
   181   91  213 1    
   182   91  214 1    
   183   92   93 2    
   184   92   94 am   BACKBONE|DICT|INTERRES
   185   94   95 1    
   186   94  215 1    
   187   95   96 1    
   188   95   97 1    
   189   95  216 1    
   190   96  217 1    
   191   96  218 1    
   192   96  219 1    
   193   97   98 2    
   194   97   99 am   BACKBONE|DICT|INTERRES
   195   99  100 1    
   196   99  220 1    
   197  100  101 1    
   198  100  102 1    
   199  100  221 1    
   200  101  222 1    
   201  101  223 1    
   202  101  224 1    
   203  102  103 2    
   204  102  104 am   BACKBONE|DICT|INTERRES
   205  104  105 1    
   206  104  225 1    
   207  105  106 1    
   208  105  107 1    
   209  105  226 1    
   210  106  227 1    
   211  106  228 1    
   212  106  229 1    
   213  107  108 2    
   214  107  109 am   BACKBONE|DICT|INTERRES
   215  109  110 1    
   216  109  230 1    
   217  110  111 1    
   218  110  112 1    
   219  110  231 1    
   220  111  232 1    
   221  111  233 1    
   222  111  234 1    
   223  112  113 2    
   224  112  114 am   BACKBONE|DICT|INTERRES
   225  114  115 1    
   226  114  235 1    
   227  115  116 1    
   228  115  117 1    
   229  115  236 1    
   230  116  237 1    
   231  116  238 1    
   232  116  239 1    
   233  117  118 2    
   234  117  119 am   BACKBONE|DICT|INTERRES
   235  119  120 1    
   236  119  240 1    
   237  120  121 1    
   238  120  124 1    
   239  120  241 1    
   240  121  122 am   BACKBONE|DICT|INTERRES
   241  121  123 2    
   242  122  242 1    
   243  122  243 1    
   244  124  125 1    
   245  124  244 1    
   246  124  245 1    
   247  125  126 1    
   248  126  246 1    
   249  126  247 1    
@<TRIPOS>SUBSTRUCTURE
     1 UNK         1 GROUP             0       ****    0 ROOT    
