@<TRIPOS>MOLECULE
3R540
247   249    1
SMALL
USER_CHARGES


@<TRIPOS>ATOM
      1 CA          7.9165  -14.3357  -46.8665 C.3       0 UNK        -0.1800 
      2 C           6.4989  -14.1896  -46.3328 C.2       0 UNK         0.5000 
      3 O           6.3076  -13.6903  -45.2229 O.2       0 UNK        -0.5000 
      4 N           5.5013  -14.6135  -47.1184 N.am      1 UNK        -0.5000 
      5 CA          4.0725  -14.5637  -46.7856 C.3       1 UNK         0.1400 
      6 C6          3.2645  -15.6535  -47.5380 C.3       23 UNK        -0.0398 
      7 S7          3.8122  -17.3376  -47.0844 S.3       23 UNK        -0.2404 
      8 C8          4.4860  -17.9651  -48.6572 C.3       23 UNK        -0.0205 
      9 C9          3.4119  -18.6579  -49.4818 C.ar      23 UNK        -0.0193 
     10 C10         2.5448  -17.9119  -50.2829 C.ar      23 UNK        -0.1150 
     11 C11         1.5234  -18.5388  -51.0007 C.ar      23 UNK        -0.0193 
     12 C12         1.3849  -19.9295  -50.9292 C.ar      23 UNK        -0.1150 
     13 C13         2.2615  -20.6914  -50.1497 C.ar      23 UNK        -0.0193 
     14 C14         3.2746  -20.0481  -49.4319 C.ar      23 UNK        -0.1150 
     15 C15         2.1243  -22.2075  -50.0961 C.3       23 UNK        -0.0205 
     16 S16         1.1174  -22.7709  -48.6845 S.3       23 UNK        -0.2404 
     17 C17         2.2545  -22.4765  -47.2808 C.3       23 UNK        -0.0398 
     18 CA          1.9987  -23.2622  -45.9610 C.3       11 UNK         0.1400 
     19 N           1.1570  -22.5157  -45.0186 N.am      11 UNK        -0.5000 
     20 C           1.1910  -22.6846  -43.6862 C.2       10 UNK         0.5000 
     21 O           1.8916  -23.5376  -43.1380 O.2       10 UNK        -0.5000 
     22 CA          0.3645  -21.7351  -42.7907 C.3       10 UNK         0.1400 
     23 CB          1.2961  -20.8027  -41.9994 C.3       10 UNK        -0.1800 
     24 N          -0.5908  -20.9134  -43.5306 N.am      10 UNK        -0.5000 
     25 C          -1.8283  -21.3069  -43.8611 C.2       9 UNK         0.5000 
     26 O          -2.3135  -22.3740  -43.4885 O.2       9 UNK        -0.5000 
     27 CA         -2.6685  -20.3732  -44.7644 C.3       9 UNK         0.1400 
     28 CB         -3.7204  -19.6244  -43.9327 C.3       9 UNK        -0.1800 
     29 N          -1.8947  -19.3951  -45.5326 N.am      9 UNK        -0.5000 
     30 C          -0.8779  -19.6748  -46.3597 C.2       8 UNK         0.5000 
     31 O          -0.5176  -20.8195  -46.6174 O.2       8 UNK        -0.5000 
     32 CA         -0.0740  -18.4862  -46.9193 C.3       8 UNK         0.1400 
     33 CB         -0.5812  -18.1068  -48.3128 C.3       8 UNK        -0.1800 
     34 N          -0.1128  -17.3000  -46.0632 N.am      8 UNK        -0.5000 
     35 C           0.3163  -17.2367  -44.7948 C.2       7 UNK         0.5000 
     36 O           0.7999  -18.1913  -44.1858 O.2       7 UNK        -0.5000 
     37 CA          0.1242  -15.8929  -44.0754 C.3       7 UNK         0.1400 
     38 CB          1.2713  -14.9266  -44.4044 C.3       7 UNK        -0.1800 
     39 N          -1.1591  -15.2852  -44.4325 N.am      7 UNK        -0.5000 
     40 C          -2.3084  -15.5337  -43.7893 C.2       6 UNK         0.5000 
     41 O          -2.3864  -16.2266  -42.7748 O.2       6 UNK        -0.5000 
     42 CA         -3.5937  -14.9208  -44.3785 C.3       6 UNK         0.1400 
     43 CB         -3.8782  -13.5503  -43.7473 C.3       6 UNK        -0.1800 
     44 N          -3.5567  -14.7814  -45.8348 N.am      6 UNK        -0.5000 
     45 C          -3.6010  -15.8091  -46.6953 C.2       5 UNK         0.5000 
     46 O          -3.6789  -16.9868  -46.3470 O.2       5 UNK        -0.5000 
     47 CA         -3.5048  -15.4669  -48.1965 C.3       5 UNK         0.1400 
     48 CB         -4.9044  -15.2422  -48.7866 C.3       5 UNK        -0.1800 
     49 N          -2.6657  -14.3045  -48.5050 N.am      5 UNK        -0.5000 
     50 C          -1.3930  -14.1232  -48.1253 C.2       4 UNK         0.5000 
     51 O          -0.7733  -14.9113  -47.4087 O.2       4 UNK        -0.5000 
     52 CA         -0.6868  -12.8353  -48.5865 C.3       4 UNK         0.1400 
     53 CB         -1.5538  -11.8981  -49.4576 C.3       4 UNK        -0.1800 
     54 N          -0.1256  -12.1153  -47.4429 N.am      4 UNK        -0.5000 
     55 C          -0.7909  -11.6069  -46.3932 C.2       3 UNK         0.5000 
     56 O          -2.0153  -11.6718  -46.2707 O.2       3 UNK        -0.5000 
     57 CA          0.0397  -10.9308  -45.2796 C.3       3 UNK         0.1400 
     58 CB         -0.3750  -11.4359  -43.8871 C.3       3 UNK        -0.1800 
     59 N           1.4851  -11.1152  -45.4495 N.am      3 UNK        -0.5000 
     60 C           2.2695  -10.3295  -46.2002 C.2       2 UNK         0.5000 
     61 O           1.8651   -9.3282  -46.7919 O.2       2 UNK        -0.5000 
     62 CA          3.7480  -10.7415  -46.3414 C.3       2 UNK         0.1400 
     63 CB          4.6124   -9.9976  -45.3123 C.3       2 UNK        -0.1800 
     64 N           4.0030  -12.1808  -46.2210 N.am      2 UNK        -0.5000 
     65 C           3.5201  -13.1402  -47.0223 C.2       1 UNK         0.5000 
     66 O           2.7066  -12.9270  -47.9221 O.2       1 UNK        -0.5000 
     67 C           1.5175  -24.7181  -46.1599 C.2       11 UNK         0.5000 
     68 O           0.3408  -25.0304  -45.9560 O.2       11 UNK        -0.5000 
     69 N           2.4542  -25.5831  -46.5716 N.am      12 UNK        -0.5000 
     70 CA          2.2604  -27.0257  -46.7349 C.3       12 UNK         0.1400 
     71 CB          3.6373  -27.6938  -46.8730 C.3       12 UNK        -0.1800 
     72 C           1.3516  -27.4274  -47.9131 C.2       12 UNK         0.5000 
     73 O           0.8642  -28.5589  -47.9301 O.2       12 UNK        -0.5000 
     74 N           1.1221  -26.5173  -48.8708 N.am      13 UNK        -0.5000 
     75 CA          0.2879  -26.7245  -50.0594 C.3       13 UNK         0.1400 
     76 CB          0.7053  -25.7178  -51.1459 C.3       13 UNK        -0.1800 
     77 C          -1.2198  -26.6501  -49.7337 C.2       13 UNK         0.5000 
     78 O          -1.9393  -25.8284  -50.3049 O.2       13 UNK        -0.5000 
     79 N          -1.6621  -27.4928  -48.7898 N.am      14 UNK        -0.5000 
     80 CA         -3.0283  -27.6195  -48.2718 C.3       14 UNK         0.1400 
     81 CB         -3.9459  -28.2522  -49.3391 C.3       14 UNK        -0.1800 
     82 C          -3.5802  -26.2879  -47.7219 C.2       14 UNK         0.5000 
     83 O          -4.7132  -25.9165  -48.0337 O.2       14 UNK        -0.5000 
     84 N          -2.7445  -25.5695  -46.9536 N.am      15 UNK        -0.5000 
     85 CA         -2.9974  -24.2258  -46.4190 C.3       15 UNK         0.1400 
     86 CB         -4.1460  -24.2606  -45.3850 C.3       15 UNK        -0.1800 
     87 C          -3.2331  -23.1947  -47.5417 C.2       15 UNK         0.5000 
     88 O          -4.1641  -22.3959  -47.4525 O.2       15 UNK        -0.5000 
     89 N          -2.4221  -23.2776  -48.6068 N.am      16 UNK        -0.5000 
     90 CA         -2.5311  -22.5197  -49.8587 C.3       16 UNK         0.1400 
     91 CB         -2.2156  -21.0325  -49.6187 C.3       16 UNK        -0.1800 
     92 C          -3.8856  -22.7587  -50.5554 C.2       16 UNK         0.5000 
     93 O          -4.5750  -21.8082  -50.9321 O.2       16 UNK        -0.5000 
     94 N          -4.2514  -24.0445  -50.6657 N.am      17 UNK        -0.5000 
     95 CA         -5.5337  -24.5640  -51.1503 C.3       17 UNK         0.1400 
     96 CB         -5.6460  -24.3662  -52.6761 C.3       17 UNK        -0.1800 
     97 C          -6.7313  -23.9807  -50.3685 C.2       17 UNK         0.5000 
     98 O          -7.6745  -23.4687  -50.9713 O.2       17 UNK        -0.5000 
     99 N          -6.6397  -24.0348  -49.0315 N.am      18 UNK        -0.5000 
    100 CA        -7.5553  -23.4338  -48.0540 C.3       18 UNK         0.1400 
    101 CB        -8.9155  -24.1617  -48.0616 C.3       18 UNK        -0.1800 
    102 C         -7.6803  -21.9025  -48.2242 C.2       18 UNK         0.5000 
    103 O         -8.7884  -21.3638  -48.2575 O.2       18 UNK        -0.5000 
    104 N         -6.5206  -21.2418  -48.3431 N.am      19 UNK        -0.5000 
    105 CA        -6.3024  -19.8060  -48.5394 C.3       19 UNK         0.1400 
    106 CB        -6.7245  -19.0201  -47.2810 C.3       19 UNK        -0.1800 
    107 C         -6.9136  -19.2418  -49.8413 C.2       19 UNK         0.5000 
    108 O         -7.2124  -18.0479  -49.9077 O.2       19 UNK        -0.5000 
    109 N         -7.0847  -20.0970  -50.8591 N.am      20 UNK        -0.5000 
    110 CA        -7.5272  -19.7034  -52.1964 C.3       20 UNK         0.1400 
    111 CB        -8.1527  -20.9081  -52.9130 C.3       20 UNK        -0.1800 
    112 C         -6.3694  -19.1214  -53.0245 C.2       20 UNK         0.5000 
    113 O         -6.5856  -18.1819  -53.7914 O.2       20 UNK        -0.5000 
    114 N         -5.1632  -19.6752  -52.8454 N.am      21 UNK        -0.5000 
    115 CA        -3.9192  -19.1413  -53.3921 C.3       21 UNK         0.1400 
    116 CB        -2.9366  -20.3085  -53.5985 C.3       21 UNK        -0.1800 
    117 C         -3.3463  -18.0701  -52.4368 C.2       21 UNK         0.5000 
    118 O         -3.6686  -18.0840  -51.2480 O.2       21 UNK        -0.5000 
    119 N         -2.4971  -17.1435  -52.8963 N.am      22 UNK        -0.5000 
    120 CA        -1.9633  -16.9733  -54.2608 C.3       22 UNK         0.1400 
    121 C         -2.7433  -15.9171  -55.0988 C.2       22 UNK         0.5000 
    122 N         -3.7934  -15.2942  -54.5779 N.am      22 UNK        -0.7600 
    123 O         -2.4038  -15.6730  -56.2530 O.2       22 UNK        -0.5000 
    124 C124       -0.4444  -16.6553  -54.2203 C.3       23 UNK        -0.0398 
    125 S125        0.5663  -18.0344  -53.5704 S.3       23 UNK        -0.2404 
    126 C126        0.5253  -17.6986  -51.7819 C.3       23 UNK        -0.0205 
    127 H127        8.3925  -13.3578  -46.9387 H         1 UNK         0.0600 
    128 H128        8.5083  -14.9556  -46.1930 H         1 UNK         0.0600 
    129 H129        7.9324  -14.7962  -47.8546 H         1 UNK         0.0600 
    130 H130        5.7220  -14.9923  -48.0277 H         1 UNK         0.3000 
    131 H131        3.9672  -14.7646  -45.7182 H         1 UNK         0.0600 
    132 H132        2.2012  -15.5812  -47.3038 H         1 UNK         0.0800 
    133 H133        3.3434  -15.5055  -48.6148 H         1 UNK         0.0800 
    134 H134        4.9446  -17.1574  -49.2289 H         1 UNK         0.0800 
    135 H135        5.2905  -18.6669  -48.4325 H         1 UNK         0.0800 
    136 H136        2.6454  -16.8376  -50.3257 H         1 UNK         0.1150 
    137 H137        0.5870  -20.4152  -51.4733 H         1 UNK         0.1150 
    138 H138        3.9523  -20.6295  -48.8235 H         1 UNK         0.1150 
    139 H139        1.6601  -22.5624  -51.0171 H         1 UNK         0.0800 
    140 H140        3.1092  -22.6749  -50.0591 H         1 UNK         0.0800 
    141 H141        2.2743  -21.4046  -47.0781 H         1 UNK         0.0800 
    142 H142        3.2589  -22.7193  -47.6298 H         1 UNK         0.0800 
    143 H143        2.9759  -23.3390  -45.4780 H         1 UNK         0.0600 
    144 H144        0.5106  -21.8497  -45.4345 H         1 UNK         0.3000 
    145 H145       -0.1743  -22.3547  -42.0709 H         1 UNK         0.0600 
    146 H146        1.9015  -20.1831  -42.6620 H         1 UNK         0.0600 
    147 H147        0.7297  -20.1397  -41.3450 H         1 UNK         0.0600 
    148 H148        1.9797  -21.3732  -41.3695 H         1 UNK         0.0600 
    149 H149       -0.2505  -20.0183  -43.8651 H         1 UNK         0.3000 
    150 H150       -3.1916  -21.0037  -45.4820 H         1 UNK         0.0600 
    151 H151       -4.3426  -20.3203  -43.3686 H         1 UNK         0.0600 
    152 H152       -4.3848  -19.0403  -44.5698 H         1 UNK         0.0600 
    153 H153       -3.2554  -18.9434  -43.2188 H         1 UNK         0.0600 
    154 H154       -2.1646  -18.4257  -45.4264 H         1 UNK         0.3000 
    155 H155        0.9696  -18.7960  -47.0051 H         1 UNK         0.0600 
    156 H156       -0.3700  -18.9034  -49.0200 H         1 UNK         0.0600 
    157 H157       -0.0964  -17.2065  -48.6898 H         1 UNK         0.0600 
    158 H158       -1.6579  -17.9515  -48.3167 H         1 UNK         0.0600 
    159 H159       -0.4617  -16.4500  -46.5002 H         1 UNK         0.3000 
    160 H160        0.1569  -16.0895  -43.0015 H         1 UNK         0.0600 
    161 H161        1.1906  -14.5313  -45.4168 H         1 UNK         0.0600 
    162 H162        2.2353  -15.4275  -44.3117 H         1 UNK         0.0600 
    163 H163        1.2867  -14.0864  -43.7122 H         1 UNK         0.0600 
    164 H164       -1.1921  -14.7675  -45.3017 H         1 UNK         0.3000 
    165 H165       -4.4202  -15.5881  -44.1242 H         1 UNK         0.0600 
    166 H166       -4.8302  -13.1469  -44.0927 H         1 UNK         0.0600 
    167 H167       -3.9311  -13.6229  -42.6603 H         1 UNK         0.0600 
    168 H168       -3.1003  -12.8272  -43.9908 H         1 UNK         0.0600 
    169 H169       -3.4563  -13.8443  -46.2015 H         1 UNK         0.3000 
    170 H170       -3.0700  -16.3243  -48.7085 H         1 UNK         0.0600 
    171 H171       -5.3903  -14.3676  -48.3527 H         1 UNK         0.0600 
    172 H172       -4.8597  -15.1041  -49.8671 H         1 UNK         0.0600 
    173 H173       -5.5484  -16.1025  -48.6022 H         1 UNK         0.0600 
    174 H174       -3.0969  -13.5835  -49.0645 H         1 UNK         0.3000 
    175 H175        0.1614  -13.1580  -49.1917 H         1 UNK         0.0600 
    176 H176       -1.8810  -12.3975  -50.3704 H         1 UNK         0.0600 
    177 H177       -2.4415  -11.5447  -48.9319 H         1 UNK         0.0600 
    178 H178       -0.9845  -11.0203  -49.7639 H         1 UNK         0.0600 
    179 H179        0.8872  -12.0770  -47.4312 H         1 UNK         0.3000 
    180 H180       -0.1868   -9.8634  -45.3193 H         1 UNK         0.0600 
    181 H181        0.2778  -11.0419  -43.1080 H         1 UNK         0.0600 
    182 H182       -0.3594  -12.5227  -43.8262 H         1 UNK         0.0600 
    183 H183       -1.3889  -11.1144  -43.6473 H         1 UNK         0.0600 
    184 H184        1.9004  -11.9171  -44.9992 H         1 UNK         0.3000 
    185 H185        4.0716  -10.4379  -47.3390 H         1 UNK         0.0600 
    186 H186        4.3596  -10.2872  -44.2916 H         1 UNK         0.0600 
    187 H187        5.6723  -10.2013  -45.4662 H         1 UNK         0.0600 
    188 H188        4.4754   -8.9183  -45.3916 H         1 UNK         0.0600 
    189 H189        4.7105  -12.4578  -45.5479 H         1 UNK         0.3000 
    190 H190        3.3928  -25.2465  -46.7317 H         1 UNK         0.3000 
    191 H191        1.7896  -27.4045  -45.8252 H         1 UNK         0.0600 
    192 H192        4.1693  -27.3398  -47.7570 H         1 UNK         0.0600 
    193 H193        3.5411  -28.7770  -46.9601 H         1 UNK         0.0600 
    194 H194        4.2621  -27.4956  -46.0018 H         1 UNK         0.0600 
    195 H195        1.5262  -25.5988  -48.7603 H         1 UNK         0.3000 
    196 H196        0.4823  -27.7258  -50.4494 H         1 UNK         0.0600 
    197 H197        0.1797  -25.9155  -52.0809 H         1 UNK         0.0600 
    198 H198        1.7734  -25.7776  -51.3553 H         1 UNK         0.0600 
    199 H199        0.4748  -24.6936  -50.8555 H         1 UNK         0.0600 
    200 H200       -0.9673  -28.1022  -48.3669 H         1 UNK         0.3000 
    201 H201       -2.9804  -28.3052  -47.4249 H         1 UNK         0.0600 
    202 H202       -3.5495  -29.2079  -49.6817 H         1 UNK         0.0600 
    203 H203       -4.0601  -27.6062  -50.2101 H         1 UNK         0.0600 
    204 H204       -4.9424  -28.4407  -48.9378 H         1 UNK         0.0600 
    205 H205       -1.8192  -25.9360  -46.7711 H         1 UNK         0.3000 
    206 H206       -2.0916  -23.9095  -45.9006 H         1 UNK         0.0600 
    207 H207       -3.9131  -24.9393  -44.5649 H         1 UNK         0.0600 
    208 H208       -4.3158  -23.2759  -44.9500 H         1 UNK         0.0600 
    209 H209       -5.0903  -24.5782  -45.8262 H         1 UNK         0.0600 
    210 H210       -1.7075  -23.9907  -48.5992 H         1 UNK         0.3000 
    211 H211       -1.7660  -22.9140  -50.5290 H         1 UNK         0.0600 
    212 H212       -2.9279  -20.5603  -48.9426 H         1 UNK         0.0600 
    213 H213       -2.2163  -20.4610  -50.5448 H         1 UNK         0.0600 
    214 H214       -1.2236  -20.9349  -49.1849 H         1 UNK         0.0600 
    215 H215       -3.5870  -24.7441  -50.3461 H         1 UNK         0.3000 
    216 H216       -5.5306  -25.6367  -50.9526 H         1 UNK         0.0600 
    217 H217       -6.5698  -24.7993  -53.0611 H         1 UNK         0.0600 
    218 H218       -4.8194  -24.8513  -53.1951 H         1 UNK         0.0600 
    219 H219       -5.6375  -23.3114  -52.9507 H         1 UNK         0.0600 
    220 H220       -5.8362  -24.5196  -48.6372 H         1 UNK         0.3000 
    221 H221       -7.1021  -23.5948  -47.0750 H         1 UNK         0.0600 
    222 H222       -9.4500  -24.0152  -49.0006 H         1 UNK         0.0600 
    223 H223       -8.7885  -25.2338  -47.9115 H         1 UNK         0.0600 
    224 H224       -9.5576  -23.7957  -47.2597 H         1 UNK         0.0600 
    225 H225       -5.6618  -21.7819  -48.2429 H         1 UNK         0.3000 
    226 H226       -5.2236  -19.6862  -48.6490 H         1 UNK         0.0600 
    227 H227       -7.8046  -19.0410  -47.1347 H         1 UNK         0.0600 
    228 H228       -6.2543  -19.4297  -46.3869 H         1 UNK         0.0600 
    229 H229       -6.4221  -17.9751  -47.3494 H         1 UNK         0.0600 
    230 H230       -6.7870  -21.0571  -50.7362 H         1 UNK         0.3000 
    231 H231       -8.2965  -18.9340  -52.1031 H         1 UNK         0.0600 
    232 H232       -8.5368  -20.6225  -53.8929 H         1 UNK         0.0600 
    233 H233       -8.9863  -21.3175  -52.3420 H         1 UNK         0.0600 
    234 H234       -7.4269  -21.7067  -53.0658 H         1 UNK         0.0600 
    235 H235       -5.0594  -20.4014  -52.1407 H         1 UNK         0.3000 
    236 H236       -4.1296  -18.6839  -54.3601 H         1 UNK         0.0600 
    237 H237       -2.7657  -20.8645  -52.6798 H         1 UNK         0.0600 
    238 H238       -3.3189  -21.0112  -54.3388 H         1 UNK         0.0600 
    239 H239       -1.9628  -19.9680  -53.9486 H         1 UNK         0.0600 
    240 H240       -2.1764  -16.4499  -52.2390 H         1 UNK         0.3000 
    241 H241       -2.0671  -17.8985  -54.8241 H         1 UNK         0.0600 
    242 H242       -4.2952  -14.6201  -55.1348 H         1 UNK         0.3800 
    243 H243       -4.0981  -15.4916  -53.6380 H         1 UNK         0.3800 
    244 H244       -0.0720  -16.4496  -55.2254 H         1 UNK         0.0800 
    245 H245       -0.2518  -15.7501  -53.6424 H         1 UNK         0.0800 
    246 H246        0.7043  -16.6363  -51.6097 H         1 UNK         0.0800 
    247 H247       -0.4688  -17.9124  -51.3915 H         1 UNK         0.0800 
@<TRIPOS>BOND
     1    1    2 1    
     2    1  127 1    
     3    1  128 1    
     4    1  129 1    
     5    2    3 2    
     6    2    4 am   BACKBONE|DICT|INTERRES
     7    4    5 1    
     8    4  130 1    
     9    5    6 1    
    10    5   65 1    
    11    5  131 1    
    12    6    7 1    
    13    6  132 1    
    14    6  133 1    
    15    7    8 1    
    16    8    9 1    
    17    8  134 1    
    18    8  135 1    
    19    9   10 ar   
    20    9   14 ar   
    21   10   11 ar   
    22   10  136 1    
    23   11   12 ar   
    24   11  126 1    
    25   12   13 ar   
    26   12  137 1    
    27   13   14 ar   
    28   13   15 1    
    29   14  138 1    
    30   15   16 1    
    31   15  139 1    
    32   15  140 1    
    33   16   17 1    
    34   17   18 1    
    35   17  141 1    
    36   17  142 1    
    37   18   19 1    
    38   18   67 1    
    39   18  143 1    
    40   19   20 am   BACKBONE|DICT|INTERRES
    41   19  144 1    
    42   20   21 2    
    43   20   22 1    
    44   22   23 1    
    45   22   24 1    
    46   22  145 1    
    47   23  146 1    
    48   23  147 1    
    49   23  148 1    
    50   24   25 am   BACKBONE|DICT|INTERRES
    51   24  149 1    
    52   25   26 2    
    53   25   27 1    
    54   27   28 1    
    55   27   29 1    
    56   27  150 1    
    57   28  151 1    
    58   28  152 1    
    59   28  153 1    
    60   29   30 am   BACKBONE|DICT|INTERRES
    61   29  154 1    
    62   30   31 2    
    63   30   32 1    
    64   32   33 1    
    65   32   34 1    
    66   32  155 1    
    67   33  156 1    
    68   33  157 1    
    69   33  158 1    
    70   34   35 am   BACKBONE|DICT|INTERRES
    71   34  159 1    
    72   35   36 2    
    73   35   37 1    
    74   37   38 1    
    75   37   39 1    
    76   37  160 1    
    77   38  161 1    
    78   38  162 1    
    79   38  163 1    
    80   39   40 am   BACKBONE|DICT|INTERRES
    81   39  164 1    
    82   40   41 2    
    83   40   42 1    
    84   42   43 1    
    85   42   44 1    
    86   42  165 1    
    87   43  166 1    
    88   43  167 1    
    89   43  168 1    
    90   44   45 am   BACKBONE|DICT|INTERRES
    91   44  169 1    
    92   45   46 2    
    93   45   47 1    
    94   47   48 1    
    95   47   49 1    
    96   47  170 1    
    97   48  171 1    
    98   48  172 1    
    99   48  173 1    
   100   49   50 am   BACKBONE|DICT|INTERRES
   101   49  174 1    
   102   50   51 2    
   103   50   52 1    
   104   52   53 1    
   105   52   54 1    
   106   52  175 1    
   107   53  176 1    
   108   53  177 1    
   109   53  178 1    
   110   54   55 am   BACKBONE|DICT|INTERRES
   111   54  179 1    
   112   55   56 2    
   113   55   57 1    
   114   57   58 1    
   115   57   59 1    
   116   57  180 1    
   117   58  181 1    
   118   58  182 1    
   119   58  183 1    
   120   59   60 am   BACKBONE|DICT|INTERRES
   121   59  184 1    
   122   60   61 2    
   123   60   62 1    
   124   62   63 1    
   125   62   64 1    
   126   62  185 1    
   127   63  186 1    
   128   63  187 1    
   129   63  188 1    
   130   64   65 am   BACKBONE|DICT|INTERRES
   131   64  189 1    
   132   65   66 2    
   133   67   68 2    
   134   67   69 am   BACKBONE|DICT|INTERRES
   135   69   70 1    
   136   69  190 1    
   137   70   71 1    
   138   70   72 1    
   139   70  191 1    
   140   71  192 1    
   141   71  193 1    
   142   71  194 1    
   143   72   73 2    
   144   72   74 am   BACKBONE|DICT|INTERRES
   145   74   75 1    
   146   74  195 1    
   147   75   76 1    
   148   75   77 1    
   149   75  196 1    
   150   76  197 1    
   151   76  198 1    
   152   76  199 1    
   153   77   78 2    
   154   77   79 am   BACKBONE|DICT|INTERRES
   155   79   80 1    
   156   79  200 1    
   157   80   81 1    
   158   80   82 1    
   159   80  201 1    
   160   81  202 1    
   161   81  203 1    
   162   81  204 1    
   163   82   83 2    
   164   82   84 am   BACKBONE|DICT|INTERRES
   165   84   85 1    
   166   84  205 1    
   167   85   86 1    
   168   85   87 1    
   169   85  206 1    
   170   86  207 1    
   171   86  208 1    
   172   86  209 1    
   173   87   88 2    
   174   87   89 am   BACKBONE|DICT|INTERRES
   175   89   90 1    
   176   89  210 1    
   177   90   91 1    
   178   90   92 1    
   179   90  211 1    
   180   91  212 1    
   181   91  213 1    
   182   91  214 1    
   183   92   93 2    
   184   92   94 am   BACKBONE|DICT|INTERRES
   185   94   95 1    
   186   94  215 1    
   187   95   96 1    
   188   95   97 1    
   189   95  216 1    
   190   96  217 1    
   191   96  218 1    
   192   96  219 1    
   193   97   98 2    
   194   97   99 am   BACKBONE|DICT|INTERRES
   195   99  100 1    
   196   99  220 1    
   197  100  101 1    
   198  100  102 1    
   199  100  221 1    
   200  101  222 1    
   201  101  223 1    
   202  101  224 1    
   203  102  103 2    
   204  102  104 am   BACKBONE|DICT|INTERRES
   205  104  105 1    
   206  104  225 1    
   207  105  106 1    
   208  105  107 1    
   209  105  226 1    
   210  106  227 1    
   211  106  228 1    
   212  106  229 1    
   213  107  108 2    
   214  107  109 am   BACKBONE|DICT|INTERRES
   215  109  110 1    
   216  109  230 1    
   217  110  111 1    
   218  110  112 1    
   219  110  231 1    
   220  111  232 1    
   221  111  233 1    
   222  111  234 1    
   223  112  113 2    
   224  112  114 am   BACKBONE|DICT|INTERRES
   225  114  115 1    
   226  114  235 1    
   227  115  116 1    
   228  115  117 1    
   229  115  236 1    
   230  116  237 1    
   231  116  238 1    
   232  116  239 1    
   233  117  118 2    
   234  117  119 am   BACKBONE|DICT|INTERRES
   235  119  120 1    
   236  119  240 1    
   237  120  121 1    
   238  120  124 1    
   239  120  241 1    
   240  121  122 am   BACKBONE|DICT|INTERRES
   241  121  123 2    
   242  122  242 1    
   243  122  243 1    
   244  124  125 1    
   245  124  244 1    
   246  124  245 1    
   247  125  126 1    
   248  126  246 1    
   249  126  247 1    
@<TRIPOS>SUBSTRUCTURE
     1 UNK         1 GROUP             0       ****    0 ROOT    
