@<TRIPOS>MOLECULE
3R540
247   249    1
SMALL
USER_CHARGES


@<TRIPOS>ATOM
      1 CA          1.6773  -16.9000  -49.8590 C.3       0 UNK        -0.1800 
      2 C           0.4564  -16.6425  -48.9918 C.2       0 UNK         0.5000 
      3 O           0.5394  -15.8973  -48.0181 O.2       0 UNK        -0.5000 
      4 N          -0.6822  -17.2457  -49.3412 N.am      1 UNK        -0.5000 
      5 CA         -1.9728  -17.0209  -48.6946 C.3       1 UNK         0.1400 
      6 C6         -2.9404  -18.2074  -48.9053 C.3       23 UNK        -0.0398 
      7 S7         -2.2759  -19.7873  -48.2961 S.3       23 UNK        -0.2404 
      8 C8         -3.6834  -20.8905  -48.6223 C.3       23 UNK        -0.0205 
      9 C9         -3.1917  -22.2644  -49.0346 C.ar      23 UNK        -0.0193 
     10 C10        -2.7667  -22.4771  -50.3481 C.ar      23 UNK        -0.1150 
     11 C11        -2.2681  -23.7229  -50.7469 C.ar      23 UNK        -0.0193 
     12 C12        -2.2000  -24.7554  -49.8061 C.ar      23 UNK        -0.1150 
     13 C13        -2.6034  -24.5504  -48.4820 C.ar      23 UNK        -0.0193 
     14 C14        -3.1100  -23.3035  -48.1036 C.ar      23 UNK        -0.1150 
     15 C15        -2.4711  -25.6715  -47.4612 C.3       23 UNK        -0.0205 
     16 S16        -0.7196  -26.0433  -47.1026 S.3       23 UNK        -0.2404 
     17 C17        -0.6014  -25.8670  -45.2865 C.3       23 UNK        -0.0398 
     18 CA          0.2207  -24.6205  -44.8510 C.3       11 UNK         0.1400 
     19 N          -0.2204  -24.0700  -43.5655 N.am      11 UNK        -0.5000 
     20 C          -0.1647  -24.6895  -42.3769 C.2       10 UNK         0.5000 
     21 O           0.2136  -25.8526  -42.2335 O.2       10 UNK        -0.5000 
     22 CA         -0.5692  -23.8782  -41.1292 C.3       10 UNK         0.1400 
     23 CB          0.6770  -23.5598  -40.2875 C.3       10 UNK        -0.1800 
     24 N          -1.2636  -22.6260  -41.4380 N.am      10 UNK        -0.5000 
     25 C          -2.5291  -22.5377  -41.8696 C.2       9 UNK         0.5000 
     26 O          -3.2748  -23.5086  -42.0023 O.2       9 UNK        -0.5000 
     27 CA         -3.0332  -21.1330  -42.2550 C.3       9 UNK         0.1400 
     28 CB         -3.5271  -20.3737  -41.0146 C.3       9 UNK        -0.1800 
     29 N          -2.0317  -20.3211  -42.9520 N.am      9 UNK        -0.5000 
     30 C          -1.4597  -20.6375  -44.1231 C.2       8 UNK         0.5000 
     31 O          -1.6929  -21.6739  -44.7429 O.2       8 UNK        -0.5000 
     32 CA         -0.4022  -19.6563  -44.6546 C.3       8 UNK         0.1400 
     33 CB         -1.0508  -18.3808  -45.2218 C.3       8 UNK        -0.1800 
     34 N           0.5632  -19.3222  -43.6071 N.am      8 UNK        -0.5000 
     35 C           1.5118  -20.1641  -43.1731 C.2       7 UNK         0.5000 
     36 O           1.7761  -21.2317  -43.7279 O.2       7 UNK        -0.5000 
     37 CA          2.2680  -19.7839  -41.8865 C.3       7 UNK         0.1400 
     38 CB          3.6455  -19.1876  -42.1993 C.3       7 UNK        -0.1800 
     39 N           1.5137  -18.8601  -41.0386 N.am      7 UNK        -0.5000 
     40 C           0.4968  -19.2413  -40.2524 C.2       6 UNK         0.5000 
     41 O           0.1001  -20.4024  -40.1729 O.2       6 UNK        -0.5000 
     42 CA         -0.2337  -18.1421  -39.4598 C.3       6 UNK         0.1400 
     43 CB          0.4666  -17.8893  -38.1169 C.3       6 UNK        -0.1800 
     44 N          -0.3494  -16.8802  -40.1906 N.am      6 UNK        -0.5000 
     45 C          -0.9805  -16.7282  -41.3621 C.2       5 UNK         0.5000 
     46 O          -1.5481  -17.6502  -41.9490 O.2       5 UNK        -0.5000 
     47 CA         -0.9526  -15.3290  -42.0065 C.3       5 UNK         0.1400 
     48 CB         -0.5468  -14.1989  -41.0348 C.3       5 UNK        -0.1800 
     49 N          -0.1120  -15.2800  -43.2058 N.am      5 UNK        -0.5000 
     50 C           1.1858  -15.6078  -43.3177 C.2       4 UNK         0.5000 
     51 O           1.8350  -16.1319  -42.4107 O.2       4 UNK        -0.5000 
     52 CA          1.8946  -15.2910  -44.6544 C.3       4 UNK         0.1400 
     53 CB          2.4404  -16.5622  -45.3243 C.3       4 UNK        -0.1800 
     54 N           1.0627  -14.5573  -45.6128 N.am      4 UNK        -0.5000 
     55 C           0.7733  -13.2522  -45.5293 C.2       3 UNK         0.5000 
     56 O           1.1961  -12.5173  -44.6359 O.2       3 UNK        -0.5000 
     57 CA         -0.1591  -12.6640  -46.6076 C.3       3 UNK         0.1400 
     58 CB          0.6567  -12.2147  -47.8299 C.3       3 UNK        -0.1800 
     59 N          -1.2475  -13.5376  -47.0621 N.am      3 UNK        -0.5000 
     60 C          -2.1552  -14.1626  -46.2977 C.2       2 UNK         0.5000 
     61 O          -2.1134  -14.1838  -45.0680 O.2       2 UNK        -0.5000 
     62 CA         -3.3302  -14.8599  -47.0186 C.3       2 UNK         0.1400 
     63 CB         -4.6533  -14.1677  -46.6539 C.3       2 UNK        -0.1800 
     64 N          -3.2011  -14.8419  -48.4812 N.am      2 UNK        -0.5000 
     65 C          -2.5976  -15.7351  -49.2781 C.2       1 UNK         0.5000 
     66 O          -2.5573  -15.5691  -50.4975 O.2       1 UNK        -0.5000 
     67 C           1.7584  -24.8243  -44.8890 C.2       11 UNK         0.5000 
     68 O           2.2506  -25.7714  -45.5039 O.2       11 UNK        -0.5000 
     69 N           2.4926  -23.9350  -44.2057 N.am      12 UNK        -0.5000 
     70 CA          3.9467  -23.9775  -44.0541 C.3       12 UNK         0.1400 
     71 CB          4.3091  -23.5364  -42.6268 C.3       12 UNK        -0.1800 
     72 C           4.6525  -23.0843  -45.0877 C.2       12 UNK         0.5000 
     73 O           5.6988  -23.4718  -45.6085 O.2       12 UNK        -0.5000 
     74 N           4.0624  -21.9170  -45.3726 N.am      13 UNK        -0.5000 
     75 CA          4.5450  -20.9320  -46.3463 C.3       13 UNK         0.1400 
     76 CB          5.1099  -19.7132  -45.5963 C.3       13 UNK        -0.1800 
     77 C           3.4240  -20.5361  -47.3256 C.2       13 UNK         0.5000 
     78 O           3.4613  -19.4494  -47.9021 O.2       13 UNK        -0.5000 
     79 N           2.4303  -21.4178  -47.4716 N.am      14 UNK        -0.5000 
     80 CA          1.2556  -21.2434  -48.3155 C.3       14 UNK         0.1400 
     81 CB          0.2492  -22.3346  -47.9452 C.3       14 UNK        -0.1800 
     82 C           1.5599  -21.3058  -49.8227 C.2       14 UNK         0.5000 
     83 O           2.4715  -22.0218  -50.2434 O.2       14 UNK        -0.5000 
     84 N           0.7304  -20.5987  -50.5950 N.am      15 UNK        -0.5000 
     85 CA          0.6733  -20.5450  -52.0532 C.3       15 UNK         0.1400 
     86 CB          1.9841  -19.9966  -52.6530 C.3       15 UNK        -0.1800 
     87 C          -0.5054  -19.6346  -52.4274 C.2       15 UNK         0.5000 
     88 O          -0.9421  -18.8324  -51.5974 O.2       15 UNK        -0.5000 
     89 N          -0.9857  -19.7302  -53.6709 N.am      16 UNK        -0.5000 
     90 CA         -2.0509  -18.8851  -54.2152 C.3       16 UNK         0.1400 
     91 CB         -2.7372  -19.6210  -55.3797 C.3       16 UNK        -0.1800 
     92 C          -1.5196  -17.4956  -54.6239 C.2       16 UNK         0.5000 
     93 O          -1.5325  -17.1513  -55.8071 O.2       16 UNK        -0.5000 
     94 N          -1.0300  -16.7304  -53.6394 N.am      17 UNK        -0.5000 
     95 CA         -0.5785  -15.3501  -53.8168 C.3       17 UNK         0.1400 
     96 CB          0.2586  -14.9096  -52.6062 C.3       17 UNK        -0.1800 
     97 C          -1.7689  -14.4079  -54.0640 C.2       17 UNK         0.5000 
     98 O          -1.7402  -13.6251  -55.0147 O.2       17 UNK        -0.5000 
     99 N          -2.8122  -14.5426  -53.2369 N.am      18 UNK        -0.5000 
    100 CA        -4.1224  -13.9439  -53.4562 C.3       18 UNK         0.1400 
    101 CB        -4.7398  -13.5712  -52.0991 C.3       18 UNK        -0.1800 
    102 C         -5.0212  -14.9487  -54.1946 C.2       18 UNK         0.5000 
    103 O         -5.0744  -16.1180  -53.8013 O.2       18 UNK        -0.5000 
    104 N         -5.7354  -14.4567  -55.2178 N.am      19 UNK        -0.5000 
    105 CA        -6.7758  -15.1415  -55.9943 C.3       19 UNK         0.1400 
    106 CB        -8.0935  -15.1384  -55.1857 C.3       19 UNK        -0.1800 
    107 C         -6.3457  -16.5420  -56.4896 C.2       19 UNK         0.5000 
    108 O         -5.3923  -16.6450  -57.2630 O.2       19 UNK        -0.5000 
    109 N         -7.0434  -17.5814  -56.0216 N.am      20 UNK        -0.5000 
    110 CA        -6.7409  -18.9924  -56.2318 C.3       20 UNK         0.1400 
    111 CB        -7.6546  -19.5570  -57.3350 C.3       20 UNK        -0.1800 
    112 C         -6.8937  -19.7156  -54.8826 C.2       20 UNK         0.5000 
    113 O         -7.6158  -20.7098  -54.7875 O.2       20 UNK        -0.5000 
    114 N         -6.2421  -19.1670  -53.8447 N.am      21 UNK        -0.5000 
    115 CA        -6.3885  -19.5461  -52.4331 C.3       21 UNK         0.1400 
    116 CB        -5.5254  -18.6114  -51.5740 C.3       21 UNK        -0.1800 
    117 C         -6.1040  -21.0228  -52.0819 C.2       21 UNK         0.5000 
    118 O         -6.5627  -21.4784  -51.0336 O.2       21 UNK        -0.5000 
    119 N         -5.3896  -21.7497  -52.9518 N.am      22 UNK        -0.5000 
    120 CA        -5.2256  -23.2119  -52.8616 C.3       22 UNK         0.1400 
    121 C         -6.5246  -24.0216  -53.1584 C.2       22 UNK         0.5000 
    122 N         -7.5559  -23.4414  -53.7628 N.am      22 UNK        -0.7600 
    123 O         -6.5978  -25.2031  -52.8319 O.2       22 UNK        -0.5000 
    124 C124       -4.0655  -23.7410  -53.7450 C.3       23 UNK        -0.0398 
    125 S125       -2.4629  -22.9193  -53.4580 S.3       23 UNK        -0.2404 
    126 C126       -1.7269  -23.9661  -52.1554 C.3       23 UNK        -0.0205 
    127 H127        1.4146  -17.4444  -50.7644 H         1 UNK         0.0600 
    128 H128        2.1357  -15.9553  -50.1507 H         1 UNK         0.0600 
    129 H129        2.4142  -17.4815  -49.3076 H         1 UNK         0.0600 
    130 H130       -0.7235  -17.8147  -50.1844 H         1 UNK         0.3000 
    131 H131       -1.7877  -16.9127  -47.6283 H         1 UNK         0.0600 
    132 H132       -3.8931  -18.0193  -48.4067 H         1 UNK         0.0800 
    133 H133       -3.1573  -18.3288  -49.9665 H         1 UNK         0.0800 
    134 H134       -4.3099  -20.4862  -49.4171 H         1 UNK         0.0800 
    135 H135       -4.3109  -20.9517  -47.7321 H         1 UNK         0.0800 
    136 H136       -2.8040  -21.6537  -51.0467 H         1 UNK         0.1150 
    137 H137       -1.7974  -25.7168  -50.0932 H         1 UNK         0.1150 
    138 H138       -3.4097  -23.1296  -47.0794 H         1 UNK         0.1150 
    139 H139       -3.0116  -25.4157  -46.5495 H         1 UNK         0.0800 
    140 H140       -2.9485  -26.5705  -47.8532 H         1 UNK         0.0800 
    141 H141       -0.1756  -26.7814  -44.8700 H         1 UNK         0.0800 
    142 H142       -1.6085  -25.8103  -44.8733 H         1 UNK         0.0800 
    143 H143        0.0105  -23.8251  -45.5619 H         1 UNK         0.0600 
    144 H144       -0.5887  -23.1274  -43.6033 H         1 UNK         0.3000 
    145 H145       -1.2346  -24.5049  -40.5320 H         1 UNK         0.0600 
    146 H146        0.4092  -23.0451  -39.3647 H         1 UNK         0.0600 
    147 H147        1.2066  -24.4710  -40.0067 H         1 UNK         0.0600 
    148 H148        1.3785  -22.9283  -40.8338 H         1 UNK         0.0600 
    149 H149       -0.7454  -21.7691  -41.2664 H         1 UNK         0.3000 
    150 H150       -3.8784  -21.2617  -42.9342 H         1 UNK         0.0600 
    151 H151       -4.3106  -20.9320  -40.5009 H         1 UNK         0.0600 
    152 H152       -3.9422  -19.4026  -41.2852 H         1 UNK         0.0600 
    153 H153       -2.7214  -20.2053  -40.2999 H         1 UNK         0.0600 
    154 H154       -1.7974  -19.4282  -42.5249 H         1 UNK         0.3000 
    155 H155        0.1201  -20.1540  -45.4746 H         1 UNK         0.0600 
    156 H156       -0.4201  -17.9313  -45.9863 H         1 UNK         0.0600 
    157 H157       -2.0107  -18.5968  -45.6904 H         1 UNK         0.0600 
    158 H158       -1.2370  -17.6274  -44.4600 H         1 UNK         0.0600 
    159 H159        0.3769  -18.4903  -43.0651 H         1 UNK         0.3000 
    160 H160        2.4337  -20.7073  -41.3277 H         1 UNK         0.0600 
    161 H161        3.5674  -18.2625  -42.7683 H         1 UNK         0.0600 
    162 H162        4.2501  -19.8879  -42.7758 H         1 UNK         0.0600 
    163 H163        4.1948  -18.9689  -41.2835 H         1 UNK         0.0600 
    164 H164        1.7434  -17.8753  -41.1142 H         1 UNK         0.3000 
    165 H165       -1.2446  -18.4997  -39.2549 H         1 UNK         0.0600 
    166 H166       -0.0905  -17.1762  -37.5091 H         1 UNK         0.0600 
    167 H167        0.5489  -18.8116  -37.5402 H         1 UNK         0.0600 
    168 H168        1.4751  -17.4976  -38.2559 H         1 UNK         0.0600 
    169 H169        0.1168  -16.0793  -39.7901 H         1 UNK         0.3000 
    170 H170       -1.9726  -15.1286  -42.3373 H         1 UNK         0.0600 
    171 H171       -0.6509  -13.2248  -41.5133 H         1 UNK         0.0600 
    172 H172       -1.1850  -14.1895  -40.1502 H         1 UNK         0.0600 
    173 H173        0.4880  -14.2893  -40.7026 H         1 UNK         0.0600 
    174 H174       -0.5733  -14.8876  -44.0207 H         1 UNK         0.3000 
    175 H175        2.7527  -14.6625  -44.4078 H         1 UNK         0.0600 
    176 H176        1.6556  -17.2843  -45.5369 H         1 UNK         0.0600 
    177 H177        2.9405  -16.3308  -46.2651 H         1 UNK         0.0600 
    178 H178        3.1732  -17.0532  -44.6862 H         1 UNK         0.0600 
    179 H179        0.7265  -15.0777  -46.4227 H         1 UNK         0.3000 
    180 H180       -0.6283  -11.7796  -46.1725 H         1 UNK         0.0600 
    181 H181        1.1058  -13.0650  -48.3452 H         1 UNK         0.0600 
    182 H182        1.4652  -11.5434  -47.5372 H         1 UNK         0.0600 
    183 H183        0.0344  -11.6782  -48.5461 H         1 UNK         0.0600 
    184 H184       -1.3531  -13.6168  -48.0624 H         1 UNK         0.3000 
    185 H185       -3.3985  -15.8829  -46.6475 H         1 UNK         0.0600 
    186 H186       -4.8246  -14.1884  -45.5767 H         1 UNK         0.0600 
    187 H187       -4.6623  -13.1228  -46.9671 H         1 UNK         0.0600 
    188 H188       -5.5016  -14.6659  -47.1238 H         1 UNK         0.0600 
    189 H189       -3.6097  -14.0340  -48.9272 H         1 UNK         0.3000 
    190 H190        2.0228  -23.1386  -43.7860 H         1 UNK         0.3000 
    191 H191        4.3050  -25.0001  -44.1906 H         1 UNK         0.0600 
    192 H192        3.9845  -22.5158  -42.4225 H         1 UNK         0.0600 
    193 H193        5.3875  -23.5761  -42.4679 H         1 UNK         0.0600 
    194 H194        3.8465  -24.1881  -41.8853 H         1 UNK         0.0600 
    195 H195        3.2040  -21.6756  -44.8836 H         1 UNK         0.3000 
    196 H196        5.3443  -21.3605  -46.9539 H         1 UNK         0.0600 
    197 H197        5.5804  -19.0116  -46.2861 H         1 UNK         0.0600 
    198 H198        5.8661  -20.0095  -44.8693 H         1 UNK         0.0600 
    199 H199        4.3238  -19.1743  -45.0687 H         1 UNK         0.0600 
    200 H200        2.5158  -22.3028  -46.9964 H         1 UNK         0.3000 
    201 H201        0.8154  -20.2684  -48.0936 H         1 UNK         0.0600 
    202 H202       -0.2316  -22.1163  -46.9935 H         1 UNK         0.0600 
    203 H203        0.7117  -23.3204  -47.8902 H         1 UNK         0.0600 
    204 H204       -0.5366  -22.3976  -48.6918 H         1 UNK         0.0600 
    205 H205       -0.0118  -20.0644  -50.1590 H         1 UNK         0.3000 
    206 H206        0.4781  -21.5484  -52.4347 H         1 UNK         0.0600 
    207 H207        2.8218  -20.6695  -52.4734 H         1 UNK         0.0600 
    208 H208        1.9029  -19.8783  -53.7341 H         1 UNK         0.0600 
    209 H209        2.2448  -19.0237  -52.2377 H         1 UNK         0.0600 
    210 H210       -0.5706  -20.3920  -54.3105 H         1 UNK         0.3000 
    211 H211       -2.8069  -18.7213  -53.4458 H         1 UNK         0.0600 
    212 H212       -2.0256  -19.8974  -56.1584 H         1 UNK         0.0600 
    213 H213       -3.4982  -18.9911  -55.8402 H         1 UNK         0.0600 
    214 H214       -3.2331  -20.5284  -55.0386 H         1 UNK         0.0600 
    215 H215       -1.0396  -17.1031  -52.6970 H         1 UNK         0.3000 
    216 H216        0.0661  -15.3101  -54.6976 H         1 UNK         0.0600 
    217 H217        0.5879  -13.8757  -52.7160 H         1 UNK         0.0600 
    218 H218        1.1523  -15.5251  -52.5067 H         1 UNK         0.0600 
    219 H219       -0.3009  -14.9772  -51.6741 H         1 UNK         0.0600 
    220 H220       -2.7475  -15.1908  -52.4579 H         1 UNK         0.3000 
    221 H221       -4.0253  -13.0318  -54.0489 H         1 UNK         0.0600 
    222 H222       -4.9016  -14.4507  -51.4744 H         1 UNK         0.0600 
    223 H223       -4.0967  -12.8841  -51.5491 H         1 UNK         0.0600 
    224 H224       -5.7052  -13.0815  -52.2318 H         1 UNK         0.0600 
    225 H225       -5.5783  -13.4937  -55.4795 H         1 UNK         0.3000 
    226 H226       -6.9390  -14.5431  -56.8917 H         1 UNK         0.0600 
    227 H227       -8.9116  -15.5819  -55.7549 H         1 UNK         0.0600 
    228 H228       -7.9994  -15.6833  -54.2453 H         1 UNK         0.0600 
    229 H229       -8.3953  -14.1196  -54.9422 H         1 UNK         0.0600 
    230 H230       -7.7916  -17.3929  -55.3687 H         1 UNK         0.3000 
    231 H231       -5.7043  -19.1171  -56.5473 H         1 UNK         0.0600 
    232 H232       -7.5082  -19.0262  -58.2757 H         1 UNK         0.0600 
    233 H233       -8.7083  -19.4759  -57.0654 H         1 UNK         0.0600 
    234 H234       -7.4403  -20.6103  -57.5199 H         1 UNK         0.0600 
    235 H235       -5.7102  -18.3209  -54.0134 H         1 UNK         0.3000 
    236 H236       -7.4327  -19.3661  -52.1699 H         1 UNK         0.0600 
    237 H237       -5.6371  -18.8371  -50.5134 H         1 UNK         0.0600 
    238 H238       -4.4701  -18.7027  -51.8268 H         1 UNK         0.0600 
    239 H239       -5.8156  -17.5695  -51.7067 H         1 UNK         0.0600 
    240 H240       -5.0464  -21.3072  -53.7895 H         1 UNK         0.3000 
    241 H241       -4.9722  -23.4423  -51.8258 H         1 UNK         0.0600 
    242 H242       -7.5179  -22.4687  -54.0569 H         1 UNK         0.3800 
    243 H243       -8.3878  -23.9798  -53.9443 H         1 UNK         0.3800 
    244 H244       -4.3134  -23.6098  -54.7996 H         1 UNK         0.0800 
    245 H245       -3.9348  -24.8150  -53.6018 H         1 UNK         0.0800 
    246 H246       -0.6530  -23.7784  -52.1348 H         1 UNK         0.0800 
    247 H247       -1.8465  -25.0146  -52.4318 H         1 UNK         0.0800 
@<TRIPOS>BOND
     1    1    2 1    
     2    1  127 1    
     3    1  128 1    
     4    1  129 1    
     5    2    3 2    
     6    2    4 am   BACKBONE|DICT|INTERRES
     7    4    5 1    
     8    4  130 1    
     9    5    6 1    
    10    5   65 1    
    11    5  131 1    
    12    6    7 1    
    13    6  132 1    
    14    6  133 1    
    15    7    8 1    
    16    8    9 1    
    17    8  134 1    
    18    8  135 1    
    19    9   10 ar   
    20    9   14 ar   
    21   10   11 ar   
    22   10  136 1    
    23   11   12 ar   
    24   11  126 1    
    25   12   13 ar   
    26   12  137 1    
    27   13   14 ar   
    28   13   15 1    
    29   14  138 1    
    30   15   16 1    
    31   15  139 1    
    32   15  140 1    
    33   16   17 1    
    34   17   18 1    
    35   17  141 1    
    36   17  142 1    
    37   18   19 1    
    38   18   67 1    
    39   18  143 1    
    40   19   20 am   BACKBONE|DICT|INTERRES
    41   19  144 1    
    42   20   21 2    
    43   20   22 1    
    44   22   23 1    
    45   22   24 1    
    46   22  145 1    
    47   23  146 1    
    48   23  147 1    
    49   23  148 1    
    50   24   25 am   BACKBONE|DICT|INTERRES
    51   24  149 1    
    52   25   26 2    
    53   25   27 1    
    54   27   28 1    
    55   27   29 1    
    56   27  150 1    
    57   28  151 1    
    58   28  152 1    
    59   28  153 1    
    60   29   30 am   BACKBONE|DICT|INTERRES
    61   29  154 1    
    62   30   31 2    
    63   30   32 1    
    64   32   33 1    
    65   32   34 1    
    66   32  155 1    
    67   33  156 1    
    68   33  157 1    
    69   33  158 1    
    70   34   35 am   BACKBONE|DICT|INTERRES
    71   34  159 1    
    72   35   36 2    
    73   35   37 1    
    74   37   38 1    
    75   37   39 1    
    76   37  160 1    
    77   38  161 1    
    78   38  162 1    
    79   38  163 1    
    80   39   40 am   BACKBONE|DICT|INTERRES
    81   39  164 1    
    82   40   41 2    
    83   40   42 1    
    84   42   43 1    
    85   42   44 1    
    86   42  165 1    
    87   43  166 1    
    88   43  167 1    
    89   43  168 1    
    90   44   45 am   BACKBONE|DICT|INTERRES
    91   44  169 1    
    92   45   46 2    
    93   45   47 1    
    94   47   48 1    
    95   47   49 1    
    96   47  170 1    
    97   48  171 1    
    98   48  172 1    
    99   48  173 1    
   100   49   50 am   BACKBONE|DICT|INTERRES
   101   49  174 1    
   102   50   51 2    
   103   50   52 1    
   104   52   53 1    
   105   52   54 1    
   106   52  175 1    
   107   53  176 1    
   108   53  177 1    
   109   53  178 1    
   110   54   55 am   BACKBONE|DICT|INTERRES
   111   54  179 1    
   112   55   56 2    
   113   55   57 1    
   114   57   58 1    
   115   57   59 1    
   116   57  180 1    
   117   58  181 1    
   118   58  182 1    
   119   58  183 1    
   120   59   60 am   BACKBONE|DICT|INTERRES
   121   59  184 1    
   122   60   61 2    
   123   60   62 1    
   124   62   63 1    
   125   62   64 1    
   126   62  185 1    
   127   63  186 1    
   128   63  187 1    
   129   63  188 1    
   130   64   65 am   BACKBONE|DICT|INTERRES
   131   64  189 1    
   132   65   66 2    
   133   67   68 2    
   134   67   69 am   BACKBONE|DICT|INTERRES
   135   69   70 1    
   136   69  190 1    
   137   70   71 1    
   138   70   72 1    
   139   70  191 1    
   140   71  192 1    
   141   71  193 1    
   142   71  194 1    
   143   72   73 2    
   144   72   74 am   BACKBONE|DICT|INTERRES
   145   74   75 1    
   146   74  195 1    
   147   75   76 1    
   148   75   77 1    
   149   75  196 1    
   150   76  197 1    
   151   76  198 1    
   152   76  199 1    
   153   77   78 2    
   154   77   79 am   BACKBONE|DICT|INTERRES
   155   79   80 1    
   156   79  200 1    
   157   80   81 1    
   158   80   82 1    
   159   80  201 1    
   160   81  202 1    
   161   81  203 1    
   162   81  204 1    
   163   82   83 2    
   164   82   84 am   BACKBONE|DICT|INTERRES
   165   84   85 1    
   166   84  205 1    
   167   85   86 1    
   168   85   87 1    
   169   85  206 1    
   170   86  207 1    
   171   86  208 1    
   172   86  209 1    
   173   87   88 2    
   174   87   89 am   BACKBONE|DICT|INTERRES
   175   89   90 1    
   176   89  210 1    
   177   90   91 1    
   178   90   92 1    
   179   90  211 1    
   180   91  212 1    
   181   91  213 1    
   182   91  214 1    
   183   92   93 2    
   184   92   94 am   BACKBONE|DICT|INTERRES
   185   94   95 1    
   186   94  215 1    
   187   95   96 1    
   188   95   97 1    
   189   95  216 1    
   190   96  217 1    
   191   96  218 1    
   192   96  219 1    
   193   97   98 2    
   194   97   99 am   BACKBONE|DICT|INTERRES
   195   99  100 1    
   196   99  220 1    
   197  100  101 1    
   198  100  102 1    
   199  100  221 1    
   200  101  222 1    
   201  101  223 1    
   202  101  224 1    
   203  102  103 2    
   204  102  104 am   BACKBONE|DICT|INTERRES
   205  104  105 1    
   206  104  225 1    
   207  105  106 1    
   208  105  107 1    
   209  105  226 1    
   210  106  227 1    
   211  106  228 1    
   212  106  229 1    
   213  107  108 2    
   214  107  109 am   BACKBONE|DICT|INTERRES
   215  109  110 1    
   216  109  230 1    
   217  110  111 1    
   218  110  112 1    
   219  110  231 1    
   220  111  232 1    
   221  111  233 1    
   222  111  234 1    
   223  112  113 2    
   224  112  114 am   BACKBONE|DICT|INTERRES
   225  114  115 1    
   226  114  235 1    
   227  115  116 1    
   228  115  117 1    
   229  115  236 1    
   230  116  237 1    
   231  116  238 1    
   232  116  239 1    
   233  117  118 2    
   234  117  119 am   BACKBONE|DICT|INTERRES
   235  119  120 1    
   236  119  240 1    
   237  120  121 1    
   238  120  124 1    
   239  120  241 1    
   240  121  122 am   BACKBONE|DICT|INTERRES
   241  121  123 2    
   242  122  242 1    
   243  122  243 1    
   244  124  125 1    
   245  124  244 1    
   246  124  245 1    
   247  125  126 1    
   248  126  246 1    
   249  126  247 1    
@<TRIPOS>SUBSTRUCTURE
     1 UNK         1 GROUP             0       ****    0 ROOT    
