@<TRIPOS>MOLECULE
3R540
247   249    1
SMALL
USER_CHARGES


@<TRIPOS>ATOM
      1 CA         -2.9359  -14.5349  -50.6701 C.3       0 UNK        -0.1800 
      2 C          -1.5333  -13.9561  -50.5420 C.2       0 UNK         0.5000 
      3 O          -1.1535  -13.0821  -51.3219 O.2       0 UNK        -0.5000 
      4 N          -0.7674  -14.4262  -49.5517 N.am      1 UNK        -0.5000 
      5 CA          0.5982  -13.9978  -49.2208 C.3       1 UNK         0.1400 
      6 C6          1.3463  -15.1042  -48.4320 C.3       23 UNK        -0.0398 
      7 S7          1.9479  -16.4277  -49.5315 S.3       23 UNK        -0.2404 
      8 C8          0.7371  -17.7622  -49.2869 C.3       23 UNK        -0.0205 
      9 C9          1.2975  -19.0658  -49.8349 C.ar      23 UNK        -0.0193 
     10 C10         0.9921  -19.4813  -51.1325 C.ar      23 UNK        -0.1150 
     11 C11         1.5593  -20.6463  -51.6562 C.ar      23 UNK        -0.0193 
     12 C12         2.4211  -21.4100  -50.8643 C.ar      23 UNK        -0.1150 
     13 C13         2.7182  -21.0223  -49.5514 C.ar      23 UNK        -0.0193 
     14 C14         2.1606  -19.8401  -49.0545 C.ar      23 UNK        -0.1150 
     15 C15         3.6484  -21.8246  -48.6397 C.3       23 UNK        -0.0205 
     16 S16         3.9136  -23.5759  -49.0930 S.3       23 UNK        -0.2404 
     17 C17         2.2463  -24.2962  -48.9032 C.3       23 UNK        -0.0398 
     18 CA          2.0497  -25.0168  -47.5444 C.3       11 UNK         0.1400 
     19 N           2.1498  -24.0947  -46.4056 N.am      11 UNK        -0.5000 
     20 C           2.9830  -24.2365  -45.3672 C.2       10 UNK         0.5000 
     21 O           3.8141  -25.1401  -45.2712 O.2       10 UNK        -0.5000 
     22 CA          2.8497  -23.2123  -44.2207 C.3       10 UNK         0.1400 
     23 CB          3.8583  -22.0686  -44.4085 C.3       10 UNK        -0.1800 
     24 N           1.5035  -22.6505  -44.0416 N.am      10 UNK        -0.5000 
     25 C           0.3973  -23.3642  -43.7749 C.2       9 UNK         0.5000 
     26 O           0.3921  -24.5940  -43.7060 O.2       9 UNK        -0.5000 
     27 CA         -0.9157  -22.5766  -43.5693 C.3       9 UNK         0.1400 
     28 CB         -2.0309  -23.4164  -42.9134 C.3       9 UNK        -0.1800 
     29 N          -0.7194  -21.3126  -42.8554 N.am      9 UNK        -0.5000 
     30 C          -0.2315  -21.1416  -41.6148 C.2       8 UNK         0.5000 
     31 O           0.0429  -22.0723  -40.8555 O.2       8 UNK        -0.5000 
     32 CA         -0.0027  -19.6826  -41.1479 C.3       8 UNK         0.1400 
     33 CB          1.1447  -19.5641  -40.1230 C.3       8 UNK        -0.1800 
     34 N           0.1953  -18.7288  -42.2483 N.am      8 UNK        -0.5000 
     35 C           1.1358  -18.7830  -43.2048 C.2       7 UNK         0.5000 
     36 O           2.0177  -19.6410  -43.2421 O.2       7 UNK        -0.5000 
     37 CA          1.0225  -17.7436  -44.3416 C.3       7 UNK         0.1400 
     38 CB          1.7716  -18.1842  -45.6127 C.3       7 UNK        -0.1800 
     39 N          -0.3589  -17.3657  -44.6768 N.am      7 UNK        -0.5000 
     40 C          -1.3875  -18.1798  -44.9673 C.2       6 UNK         0.5000 
     41 O          -1.3034  -19.4083  -44.9631 O.2       6 UNK        -0.5000 
     42 CA         -2.7588  -17.5342  -45.2466 C.3       6 UNK         0.1400 
     43 CB         -3.7689  -17.9201  -44.1540 C.3       6 UNK        -0.1800 
     44 N          -2.7188  -16.0753  -45.3557 N.am      6 UNK        -0.5000 
     45 C          -2.4287  -15.4142  -46.4827 C.2       5 UNK         0.5000 
     46 O          -2.1444  -15.9604  -47.5491 O.2       5 UNK        -0.5000 
     47 CA         -2.4327  -13.8771  -46.4018 C.3       5 UNK         0.1400 
     48 CB         -3.8615  -13.3304  -46.5227 C.3       5 UNK        -0.1800 
     49 N          -1.7975  -13.2969  -45.2168 N.am      5 UNK        -0.5000 
     50 C          -0.5802  -13.5862  -44.7355 C.2       4 UNK         0.5000 
     51 O           0.0787  -14.5705  -45.0698 O.2       4 UNK        -0.5000 
     52 CA          0.0113  -12.5550  -43.7590 C.3       4 UNK         0.1400 
     53 CB          1.4479  -12.9015  -43.3276 C.3       4 UNK        -0.1800 
     54 N           0.0170  -11.2453  -44.4098 N.am      4 UNK        -0.5000 
     55 C          -0.9071  -10.2914  -44.2411 C.2       3 UNK         0.5000 
     56 O          -1.8440  -10.3835  -43.4477 O.2       3 UNK        -0.5000 
     57 CA         -0.7888   -9.0406  -45.1334 C.3       3 UNK         0.1400 
     58 CB          0.0322   -7.9519  -44.4258 C.3       3 UNK        -0.1800 
     59 N          -0.1947   -9.3116  -46.4457 N.am      3 UNK        -0.5000 
     60 C          -0.7716  -10.0327  -47.4179 C.2       2 UNK         0.5000 
     61 O          -1.8848  -10.5489  -47.3100 O.2       2 UNK        -0.5000 
     62 CA          0.0041  -10.1963  -48.7440 C.3       2 UNK         0.1400 
     63 CB          1.4123   -9.5581  -48.7419 C.3       2 UNK        -0.1800 
     64 N           0.0805  -11.5963  -49.1722 N.am      2 UNK        -0.5000 
     65 C           0.6195  -12.6243  -48.5026 C.2       1 UNK         0.5000 
     66 O           1.1213  -12.5109  -47.3830 O.2       1 UNK        -0.5000 
     67 C           0.7177  -25.8007  -47.4895 C.2       11 UNK         0.5000 
     68 O           0.2531  -26.2872  -48.5216 O.2       11 UNK        -0.5000 
     69 N           0.1158  -25.9110  -46.2939 N.am      12 UNK        -0.5000 
     70 CA         -1.1657  -26.5589  -46.0069 C.3       12 UNK         0.1400 
     71 CB         -1.0421  -28.0923  -46.1558 C.3       12 UNK        -0.1800 
     72 C          -2.3077  -25.9257  -46.8272 C.2       12 UNK         0.5000 
     73 O          -2.4125  -24.6975  -46.8612 O.2       12 UNK        -0.5000 
     74 N          -3.1193  -26.7534  -47.4975 N.am      13 UNK        -0.5000 
     75 CA         -4.2656  -26.3584  -48.3214 C.3       13 UNK         0.1400 
     76 CB         -4.9841  -27.6282  -48.8035 C.3       13 UNK        -0.1800 
     77 C          -3.9271  -25.4439  -49.5177 C.2       13 UNK         0.5000 
     78 O          -4.8287  -24.7868  -50.0363 O.2       13 UNK        -0.5000 
     79 N          -2.6505  -25.4005  -49.9264 N.am      14 UNK        -0.5000 
     80 CA         -2.1465  -24.5022  -50.9664 C.3       14 UNK         0.1400 
     81 CB         -0.8746  -25.1075  -51.5830 C.3       14 UNK        -0.1800 
     82 C          -1.8773  -23.0694  -50.4628 C.2       14 UNK         0.5000 
     83 O          -1.5522  -22.2148  -51.2872 O.2       14 UNK        -0.5000 
     84 N          -1.9909  -22.8361  -49.1470 N.am      15 UNK        -0.5000 
     85 CA         -1.8073  -21.5360  -48.5034 C.3       15 UNK         0.1400 
     86 CB         -0.5287  -21.5773  -47.6541 C.3       15 UNK        -0.1800 
     87 C          -3.0067  -21.1545  -47.6211 C.2       15 UNK         0.5000 
     88 O          -3.3992  -19.9875  -47.6226 O.2       15 UNK        -0.5000 
     89 N          -3.5439  -22.1299  -46.8691 N.am      16 UNK        -0.5000 
     90 CA         -4.5885  -21.9780  -45.8514 C.3       16 UNK         0.1400 
     91 CB         -5.0016  -23.3681  -45.3451 C.3       16 UNK        -0.1800 
     92 C          -5.8345  -21.2075  -46.3237 C.2       16 UNK         0.5000 
     93 O          -6.2539  -21.3559  -47.4723 O.2       16 UNK        -0.5000 
     94 N          -6.3943  -20.3889  -45.4200 N.am      17 UNK        -0.5000 
     95 CA         -7.5567  -19.5111  -45.6278 C.3       17 UNK         0.1400 
     96 CB         -8.8383  -20.3478  -45.8243 C.3       17 UNK        -0.1800 
     97 C          -7.3552  -18.4647  -46.7489 C.2       17 UNK         0.5000 
     98 O          -8.3336  -17.9857  -47.3234 O.2       17 UNK        -0.5000 
     99 N          -6.0844  -18.1456  -47.0403 N.am      18 UNK        -0.5000 
    100 CA        -5.5966  -17.2813  -48.1187 C.3       18 UNK         0.1400 
    101 CB        -6.1187  -15.8393  -47.9628 C.3       18 UNK        -0.1800 
    102 C         -5.8387  -17.8497  -49.5320 C.2       18 UNK         0.5000 
    103 O         -5.7450  -17.1031  -50.5085 O.2       18 UNK        -0.5000 
    104 N         -6.1023  -19.1599  -49.6432 N.am      19 UNK        -0.5000 
    105 CA        -6.2730  -19.8753  -50.9070 C.3       19 UNK         0.1400 
    106 CB        -7.1535  -21.1157  -50.6710 C.3       19 UNK        -0.1800 
    107 C         -4.9027  -20.2216  -51.5214 C.2       19 UNK         0.5000 
    108 O         -4.5729  -21.3974  -51.6703 O.2       19 UNK        -0.5000 
    109 N         -4.1260  -19.1757  -51.8358 N.am      20 UNK        -0.5000 
    110 CA        -2.7901  -19.2160  -52.4263 C.3       20 UNK         0.1400 
    111 CB        -2.2368  -17.7815  -52.4841 C.3       20 UNK        -0.1800 
    112 C         -2.8013  -19.8787  -53.8165 C.2       20 UNK         0.5000 
    113 O         -3.0929  -19.2157  -54.8135 O.2       20 UNK        -0.5000 
    114 N         -2.5045  -21.1808  -53.8569 N.am      21 UNK        -0.5000 
    115 CA        -2.5296  -22.0204  -55.0549 C.3       21 UNK         0.1400 
    116 CB        -2.9448  -23.4450  -54.6476 C.3       21 UNK        -0.1800 
    117 C         -1.1828  -21.9863  -55.8060 C.2       21 UNK         0.5000 
    118 O         -0.6468  -23.0363  -56.1652 O.2       21 UNK        -0.5000 
    119 N         -0.6460  -20.7819  -56.0191 N.am      22 UNK        -0.5000 
    120 CA         0.6287  -20.5225  -56.6957 C.3       22 UNK         0.1400 
    121 C          0.7063  -19.0635  -57.2235 C.2       22 UNK         0.5000 
    122 N          1.6805  -18.7535  -58.0686 N.am      22 UNK        -0.7600 
    123 O         -0.1064  -18.2067  -56.8807 O.2       22 UNK        -0.5000 
    124 C124        1.8597  -20.9402  -55.8408 C.3       23 UNK        -0.0398 
    125 S125        2.0825  -19.9999  -54.2885 S.3       23 UNK        -0.2404 
    126 C126        1.2496  -21.0762  -53.0804 C.3       23 UNK        -0.0205 
    127 H127       -3.6764  -13.7927  -50.3725 H         1 UNK         0.0600 
    128 H128       -3.0706  -15.4190  -50.0465 H         1 UNK         0.0600 
    129 H129       -3.1337  -14.8196  -51.7033 H         1 UNK         0.0600 
    130 H130       -1.1659  -15.1195  -48.9233 H         1 UNK         0.3000 
    131 H131        1.1375  -13.8379  -50.1571 H         1 UNK         0.0600 
    132 H132        2.2363  -14.7075  -47.9406 H         1 UNK         0.0800 
    133 H133        0.7236  -15.5126  -47.6344 H         1 UNK         0.0800 
    134 H134       -0.1965  -17.5019  -49.7873 H         1 UNK         0.0800 
    135 H135        0.4961  -17.8767  -48.2302 H         1 UNK         0.0800 
    136 H136        0.3405  -18.8820  -51.7495 H         1 UNK         0.1150 
    137 H137        2.8598  -22.3045  -51.2807 H         1 UNK         0.1150 
    138 H138        2.4098  -19.5135  -48.0560 H         1 UNK         0.1150 
    139 H139        4.6189  -21.3275  -48.6242 H         1 UNK         0.0800 
    140 H140        3.2714  -21.7902  -47.6176 H         1 UNK         0.0800 
    141 H141        2.1314  -25.0033  -49.7262 H         1 UNK         0.0800 
    142 H142        1.4829  -23.5360  -49.0600 H         1 UNK         0.0800 
    143 H143        2.8275  -25.7795  -47.4731 H         1 UNK         0.0600 
    144 H144        1.4950  -23.3278  -46.3900 H         1 UNK         0.3000 
    145 H145        3.1054  -23.7373  -43.2981 H         1 UNK         0.0600 
    146 H146        3.9413  -21.4686  -43.5025 H         1 UNK         0.0600 
    147 H147        4.8557  -22.4510  -44.6301 H         1 UNK         0.0600 
    148 H148        3.5699  -21.4049  -45.2240 H         1 UNK         0.0600 
    149 H149        1.4459  -21.6392  -44.0135 H         1 UNK         0.3000 
    150 H150       -1.2627  -22.3060  -44.5671 H         1 UNK         0.0600 
    151 H151       -2.2574  -24.2991  -43.5118 H         1 UNK         0.0600 
    152 H152       -2.9526  -22.8423  -42.8197 H         1 UNK         0.0600 
    153 H153       -1.7481  -23.7633  -41.9194 H         1 UNK         0.0600 
    154 H154       -0.8951  -20.4846  -43.4187 H         1 UNK         0.3000 
    155 H155       -0.9241  -19.3820  -40.6475 H         1 UNK         0.0600 
    156 H156        2.0912  -19.9173  -40.5334 H         1 UNK         0.0600 
    157 H157        1.2824  -18.5314  -39.8028 H         1 UNK         0.0600 
    158 H158        0.9361  -20.1532  -39.2292 H         1 UNK         0.0600 
    159 H159       -0.4963  -17.9964  -42.3204 H         1 UNK         0.3000 
    160 H160        1.5073  -16.8400  -43.9698 H         1 UNK         0.0600 
    161 H161        1.3152  -19.0699  -46.0543 H         1 UNK         0.0600 
    162 H162        2.8151  -18.4202  -45.4013 H         1 UNK         0.0600 
    163 H163        1.7733  -17.3892  -46.3566 H         1 UNK         0.0600 
    164 H164       -0.5077  -16.3628  -44.7465 H         1 UNK         0.3000 
    165 H165       -3.1136  -17.9445  -46.1904 H         1 UNK         0.0600 
    166 H166       -4.7602  -17.5240  -44.3749 H         1 UNK         0.0600 
    167 H167       -3.8633  -19.0034  -44.0709 H         1 UNK         0.0600 
    168 H168       -3.4675  -17.5420  -43.1765 H         1 UNK         0.0600 
    169 H169       -2.9169  -15.5451  -44.5194 H         1 UNK         0.3000 
    170 H170       -1.8703  -13.5030  -47.2558 H         1 UNK         0.0600 
    171 H171       -4.5058  -13.6966  -45.7226 H         1 UNK         0.0600 
    172 H172       -3.8746  -12.2410  -46.4895 H         1 UNK         0.0600 
    173 H173       -4.3061  -13.6216  -47.4735 H         1 UNK         0.0600 
    174 H174       -2.2387  -12.4610  -44.8595 H         1 UNK         0.3000 
    175 H175       -0.6168  -12.5429  -42.8659 H         1 UNK         0.0600 
    176 H176        1.8397  -12.1584  -42.6330 H         1 UNK         0.0600 
    177 H177        2.1240  -12.9502  -44.1825 H         1 UNK         0.0600 
    178 H178        1.4830  -13.8681  -42.8236 H         1 UNK         0.0600 
    179 H179        0.6999  -11.1232  -45.1454 H         1 UNK         0.3000 
    180 H180       -1.7981   -8.6556  -45.2938 H         1 UNK         0.0600 
    181 H181        1.0620   -8.2693  -44.2574 H         1 UNK         0.0600 
    182 H182       -0.3990   -7.7072  -43.4541 H         1 UNK         0.0600 
    183 H183        0.0548   -7.0319  -45.0103 H         1 UNK         0.0600 
    184 H184        0.7210   -8.9218  -46.6157 H         1 UNK         0.3000 
    185 H185       -0.5878   -9.6801  -49.5009 H         1 UNK         0.0600 
    186 H186        1.3619   -8.4851  -48.5531 H         1 UNK         0.0600 
    187 H187        2.0651  -10.0019  -47.9892 H         1 UNK         0.0600 
    188 H188        1.8963   -9.6850  -49.7104 H         1 UNK         0.0600 
    189 H189       -0.3569  -11.8126  -50.0635 H         1 UNK         0.3000 
    190 H190        0.5427  -25.4578  -45.4926 H         1 UNK         0.3000 
    191 H191       -1.3923  -26.3454  -44.9617 H         1 UNK         0.0600 
    192 H192       -1.9491  -28.5980  -45.8222 H         1 UNK         0.0600 
    193 H193       -0.8484  -28.3934  -47.1860 H         1 UNK         0.0600 
    194 H194       -0.2248  -28.4749  -45.5442 H         1 UNK         0.0600 
    195 H195       -2.9394  -27.7450  -47.4356 H         1 UNK         0.3000 
    196 H196       -4.9521  -25.8025  -47.6806 H         1 UNK         0.0600 
    197 H197       -5.8675  -27.3793  -49.3932 H         1 UNK         0.0600 
    198 H198       -5.3189  -28.2367  -47.9632 H         1 UNK         0.0600 
    199 H199       -4.3353  -28.2435  -49.4283 H         1 UNK         0.0600 
    200 H200       -1.9606  -25.9586  -49.4395 H         1 UNK         0.3000 
    201 H201       -2.8983  -24.4258  -51.7541 H         1 UNK         0.0600 
    202 H202       -0.0704  -25.1827  -50.8530 H         1 UNK         0.0600 
    203 H203       -1.0633  -26.1042  -51.9816 H         1 UNK         0.0600 
    204 H204       -0.5039  -24.4937  -52.4047 H         1 UNK         0.0600 
    205 H205       -2.2527  -23.6053  -48.5418 H         1 UNK         0.3000 
    206 H206       -1.6960  -20.7504  -49.2542 H         1 UNK         0.0600 
    207 H207        0.3378  -21.7776  -48.2771 H         1 UNK         0.0600 
    208 H208       -0.3560  -20.6220  -47.1582 H         1 UNK         0.0600 
    209 H209       -0.5764  -22.3506  -46.8876 H         1 UNK         0.0600 
    210 H210       -3.1378  -23.0601  -46.9243 H         1 UNK         0.3000 
    211 H211       -4.1356  -21.4297  -45.0231 H         1 UNK         0.0600 
    212 H212       -5.4302  -23.9712  -46.1459 H         1 UNK         0.0600 
    213 H213       -5.7491  -23.2934  -44.5543 H         1 UNK         0.0600 
    214 H214       -4.1529  -23.9128  -44.9349 H         1 UNK         0.0600 
    215 H215       -5.9893  -20.3478  -44.4952 H         1 UNK         0.3000 
    216 H216       -7.6753  -18.9404  -44.7057 H         1 UNK         0.0600 
    217 H217       -9.7255  -19.7135  -45.8229 H         1 UNK         0.0600 
    218 H218       -8.9614  -21.0754  -45.0222 H         1 UNK         0.0600 
    219 H219       -8.8270  -20.8900  -46.7704 H         1 UNK         0.0600 
    220 H220       -5.3625  -18.6510  -46.5467 H         1 UNK         0.3000 
    221 H221       -4.5132  -17.2490  -48.0062 H         1 UNK         0.0600 
    222 H222       -7.1884  -15.7690  -48.1595 H         1 UNK         0.0600 
    223 H223       -5.9366  -15.4618  -46.9571 H         1 UNK         0.0600 
    224 H224       -5.6196  -15.1687  -48.6627 H         1 UNK         0.0600 
    225 H225       -6.1098  -19.7336  -48.8062 H         1 UNK         0.3000 
    226 H226       -6.7991  -19.2314  -51.6148 H         1 UNK         0.0600 
    227 H227       -8.1044  -20.8452  -50.2117 H         1 UNK         0.0600 
    228 H228       -7.3763  -21.6179  -51.6130 H         1 UNK         0.0600 
    229 H229       -6.6632  -21.8434  -50.0234 H         1 UNK         0.0600 
    230 H230       -4.5069  -18.2540  -51.6522 H         1 UNK         0.3000 
    231 H231       -2.1422  -19.7920  -51.7656 H         1 UNK         0.0600 
    232 H232       -2.9084  -17.1116  -53.0225 H         1 UNK         0.0600 
    233 H233       -1.2727  -17.7503  -52.9927 H         1 UNK         0.0600 
    234 H234       -2.0915  -17.3767  -51.4827 H         1 UNK         0.0600 
    235 H235       -2.2724  -21.6432  -52.9803 H         1 UNK         0.3000 
    236 H236       -3.2894  -21.6425  -55.7420 H         1 UNK         0.0600 
    237 H237       -3.8833  -23.4403  -54.0925 H         1 UNK         0.0600 
    238 H238       -3.0891  -24.0767  -55.5248 H         1 UNK         0.0600 
    239 H239       -2.1874  -23.9182  -54.0240 H         1 UNK         0.0600 
    240 H240       -1.1568  -19.9511  -55.7418 H         1 UNK         0.3000 
    241 H241        0.6276  -21.1445  -57.5931 H         1 UNK         0.0600 
    242 H242        2.3571  -19.4353  -58.3755 H         1 UNK         0.3800 
    243 H243        1.7408  -17.8092  -58.4171 H         1 UNK         0.3800 
    244 H244        1.8111  -22.0048  -55.6109 H         1 UNK         0.0800 
    245 H245        2.7722  -20.8243  -56.4270 H         1 UNK         0.0800 
    246 H246        0.1734  -21.0383  -53.2392 H         1 UNK         0.0800 
    247 H247        1.5497  -22.1131  -53.2382 H         1 UNK         0.0800 
@<TRIPOS>BOND
     1    1    2 1    
     2    1  127 1    
     3    1  128 1    
     4    1  129 1    
     5    2    3 2    
     6    2    4 am   BACKBONE|DICT|INTERRES
     7    4    5 1    
     8    4  130 1    
     9    5    6 1    
    10    5   65 1    
    11    5  131 1    
    12    6    7 1    
    13    6  132 1    
    14    6  133 1    
    15    7    8 1    
    16    8    9 1    
    17    8  134 1    
    18    8  135 1    
    19    9   10 ar   
    20    9   14 ar   
    21   10   11 ar   
    22   10  136 1    
    23   11   12 ar   
    24   11  126 1    
    25   12   13 ar   
    26   12  137 1    
    27   13   14 ar   
    28   13   15 1    
    29   14  138 1    
    30   15   16 1    
    31   15  139 1    
    32   15  140 1    
    33   16   17 1    
    34   17   18 1    
    35   17  141 1    
    36   17  142 1    
    37   18   19 1    
    38   18   67 1    
    39   18  143 1    
    40   19   20 am   BACKBONE|DICT|INTERRES
    41   19  144 1    
    42   20   21 2    
    43   20   22 1    
    44   22   23 1    
    45   22   24 1    
    46   22  145 1    
    47   23  146 1    
    48   23  147 1    
    49   23  148 1    
    50   24   25 am   BACKBONE|DICT|INTERRES
    51   24  149 1    
    52   25   26 2    
    53   25   27 1    
    54   27   28 1    
    55   27   29 1    
    56   27  150 1    
    57   28  151 1    
    58   28  152 1    
    59   28  153 1    
    60   29   30 am   BACKBONE|DICT|INTERRES
    61   29  154 1    
    62   30   31 2    
    63   30   32 1    
    64   32   33 1    
    65   32   34 1    
    66   32  155 1    
    67   33  156 1    
    68   33  157 1    
    69   33  158 1    
    70   34   35 am   BACKBONE|DICT|INTERRES
    71   34  159 1    
    72   35   36 2    
    73   35   37 1    
    74   37   38 1    
    75   37   39 1    
    76   37  160 1    
    77   38  161 1    
    78   38  162 1    
    79   38  163 1    
    80   39   40 am   BACKBONE|DICT|INTERRES
    81   39  164 1    
    82   40   41 2    
    83   40   42 1    
    84   42   43 1    
    85   42   44 1    
    86   42  165 1    
    87   43  166 1    
    88   43  167 1    
    89   43  168 1    
    90   44   45 am   BACKBONE|DICT|INTERRES
    91   44  169 1    
    92   45   46 2    
    93   45   47 1    
    94   47   48 1    
    95   47   49 1    
    96   47  170 1    
    97   48  171 1    
    98   48  172 1    
    99   48  173 1    
   100   49   50 am   BACKBONE|DICT|INTERRES
   101   49  174 1    
   102   50   51 2    
   103   50   52 1    
   104   52   53 1    
   105   52   54 1    
   106   52  175 1    
   107   53  176 1    
   108   53  177 1    
   109   53  178 1    
   110   54   55 am   BACKBONE|DICT|INTERRES
   111   54  179 1    
   112   55   56 2    
   113   55   57 1    
   114   57   58 1    
   115   57   59 1    
   116   57  180 1    
   117   58  181 1    
   118   58  182 1    
   119   58  183 1    
   120   59   60 am   BACKBONE|DICT|INTERRES
   121   59  184 1    
   122   60   61 2    
   123   60   62 1    
   124   62   63 1    
   125   62   64 1    
   126   62  185 1    
   127   63  186 1    
   128   63  187 1    
   129   63  188 1    
   130   64   65 am   BACKBONE|DICT|INTERRES
   131   64  189 1    
   132   65   66 2    
   133   67   68 2    
   134   67   69 am   BACKBONE|DICT|INTERRES
   135   69   70 1    
   136   69  190 1    
   137   70   71 1    
   138   70   72 1    
   139   70  191 1    
   140   71  192 1    
   141   71  193 1    
   142   71  194 1    
   143   72   73 2    
   144   72   74 am   BACKBONE|DICT|INTERRES
   145   74   75 1    
   146   74  195 1    
   147   75   76 1    
   148   75   77 1    
   149   75  196 1    
   150   76  197 1    
   151   76  198 1    
   152   76  199 1    
   153   77   78 2    
   154   77   79 am   BACKBONE|DICT|INTERRES
   155   79   80 1    
   156   79  200 1    
   157   80   81 1    
   158   80   82 1    
   159   80  201 1    
   160   81  202 1    
   161   81  203 1    
   162   81  204 1    
   163   82   83 2    
   164   82   84 am   BACKBONE|DICT|INTERRES
   165   84   85 1    
   166   84  205 1    
   167   85   86 1    
   168   85   87 1    
   169   85  206 1    
   170   86  207 1    
   171   86  208 1    
   172   86  209 1    
   173   87   88 2    
   174   87   89 am   BACKBONE|DICT|INTERRES
   175   89   90 1    
   176   89  210 1    
   177   90   91 1    
   178   90   92 1    
   179   90  211 1    
   180   91  212 1    
   181   91  213 1    
   182   91  214 1    
   183   92   93 2    
   184   92   94 am   BACKBONE|DICT|INTERRES
   185   94   95 1    
   186   94  215 1    
   187   95   96 1    
   188   95   97 1    
   189   95  216 1    
   190   96  217 1    
   191   96  218 1    
   192   96  219 1    
   193   97   98 2    
   194   97   99 am   BACKBONE|DICT|INTERRES
   195   99  100 1    
   196   99  220 1    
   197  100  101 1    
   198  100  102 1    
   199  100  221 1    
   200  101  222 1    
   201  101  223 1    
   202  101  224 1    
   203  102  103 2    
   204  102  104 am   BACKBONE|DICT|INTERRES
   205  104  105 1    
   206  104  225 1    
   207  105  106 1    
   208  105  107 1    
   209  105  226 1    
   210  106  227 1    
   211  106  228 1    
   212  106  229 1    
   213  107  108 2    
   214  107  109 am   BACKBONE|DICT|INTERRES
   215  109  110 1    
   216  109  230 1    
   217  110  111 1    
   218  110  112 1    
   219  110  231 1    
   220  111  232 1    
   221  111  233 1    
   222  111  234 1    
   223  112  113 2    
   224  112  114 am   BACKBONE|DICT|INTERRES
   225  114  115 1    
   226  114  235 1    
   227  115  116 1    
   228  115  117 1    
   229  115  236 1    
   230  116  237 1    
   231  116  238 1    
   232  116  239 1    
   233  117  118 2    
   234  117  119 am   BACKBONE|DICT|INTERRES
   235  119  120 1    
   236  119  240 1    
   237  120  121 1    
   238  120  124 1    
   239  120  241 1    
   240  121  122 am   BACKBONE|DICT|INTERRES
   241  121  123 2    
   242  122  242 1    
   243  122  243 1    
   244  124  125 1    
   245  124  244 1    
   246  124  245 1    
   247  125  126 1    
   248  126  246 1    
   249  126  247 1    
@<TRIPOS>SUBSTRUCTURE
     1 UNK         1 GROUP             0       ****    0 ROOT    
