@<TRIPOS>MOLECULE
3R540
247   249    1
SMALL
USER_CHARGES


@<TRIPOS>ATOM
      1 CA         -4.0179  -14.3674  -47.4049 C.3       0 UNK        -0.1800 
      2 C          -2.5640  -14.1373  -47.7929 C.2       0 UNK         0.5000 
      3 O          -2.1257  -12.9891  -47.8716 O.2       0 UNK        -0.5000 
      4 N          -1.8218  -15.2219  -48.0438 N.am      1 UNK        -0.5000 
      5 CA         -0.3931  -15.2083  -48.3735 C.3       1 UNK         0.1400 
      6 C6          0.0923  -16.5930  -48.8665 C.3       23 UNK        -0.0398 
      7 S7         -0.6411  -17.0745  -50.4622 S.3       23 UNK        -0.2404 
      8 C8         -1.4792  -18.6272  -50.0257 C.3       23 UNK        -0.0205 
      9 C9         -2.8444  -18.3806  -49.4070 C.ar      23 UNK        -0.0193 
     10 C10        -3.9253  -18.0598  -50.2305 C.ar      23 UNK        -0.1150 
     11 C11        -5.1989  -17.8560  -49.6933 C.ar      23 UNK        -0.0193 
     12 C12        -5.3806  -17.9683  -48.3116 C.ar      23 UNK        -0.1150 
     13 C13        -4.3032  -18.2718  -47.4723 C.ar      23 UNK        -0.0193 
     14 C14        -3.0356  -18.4795  -48.0258 C.ar      23 UNK        -0.1150 
     15 C15        -4.5111  -18.3459  -45.9673 C.3       23 UNK        -0.0205 
     16 S16        -4.9752  -20.0266  -45.4424 S.3       23 UNK        -0.2404 
     17 C17        -3.5573  -20.4762  -44.3947 C.3       23 UNK        -0.0398 
     18 CA         -2.3248  -20.9591  -45.2116 C.3       11 UNK         0.1400 
     19 N          -1.1164  -20.2001  -44.8710 N.am      11 UNK        -0.5000 
     20 C           0.0670  -20.2858  -45.4945 C.2       10 UNK         0.5000 
     21 O           0.2691  -20.9798  -46.4886 O.2       10 UNK        -0.5000 
     22 CA          1.2393  -19.5128  -44.8602 C.3       10 UNK         0.1400 
     23 CB          1.2482  -18.0489  -45.3172 C.3       10 UNK        -0.1800 
     24 N           1.2125  -19.5715  -43.3985 N.am      10 UNK        -0.5000 
     25 C           1.3618  -20.6982  -42.6873 C.2       9 UNK         0.5000 
     26 O           1.5984  -21.7948  -43.1915 O.2       9 UNK        -0.5000 
     27 CA          1.1423  -20.5955  -41.1686 C.3       9 UNK         0.1400 
     28 CB          2.4231  -20.1503  -40.4462 C.3       9 UNK        -0.1800 
     29 N           0.0430  -19.6879  -40.8392 N.am      9 UNK        -0.5000 
     30 C          -1.2487  -19.9433  -41.0944 C.2       8 UNK         0.5000 
     31 O          -1.6532  -20.9933  -41.5943 O.2       8 UNK        -0.5000 
     32 CA         -2.2472  -18.8126  -40.7834 C.3       8 UNK         0.1400 
     33 CB         -2.6283  -18.8205  -39.2957 C.3       8 UNK        -0.1800 
     34 N          -1.7289  -17.4915  -41.1449 N.am      8 UNK        -0.5000 
     35 C          -1.4686  -17.0930  -42.3988 C.2       7 UNK         0.5000 
     36 O          -1.6863  -17.7840  -43.3911 O.2       7 UNK        -0.5000 
     37 CA         -0.7996  -15.7173  -42.5690 C.3       7 UNK         0.1400 
     38 CB         -1.8564  -14.6122  -42.7073 C.3       7 UNK        -0.1800 
     39 N           0.1190  -15.3905  -41.4748 N.am      7 UNK        -0.5000 
     40 C           1.2405  -16.0723  -41.2105 C.2       6 UNK         0.5000 
     41 O           1.6133  -17.0567  -41.8559 O.2       6 UNK        -0.5000 
     42 CA          2.0487  -15.6155  -39.9914 C.3       6 UNK         0.1400 
     43 CB          1.5682  -16.3359  -38.7210 C.3       6 UNK        -0.1800 
     44 N           3.4487  -15.9375  -40.2291 N.am      6 UNK        -0.5000 
     45 C           4.4905  -15.1543  -39.9319 C.2       5 UNK         0.5000 
     46 O           4.3917  -14.0966  -39.3078 O.2       5 UNK        -0.5000 
     47 CA          5.8830  -15.6176  -40.4123 C.3       5 UNK         0.1400 
     48 CB          6.7018  -16.1609  -39.2305 C.3       5 UNK        -0.1800 
     49 N           5.8641  -16.6309  -41.4741 N.am      5 UNK        -0.5000 
     50 C           5.3892  -16.4499  -42.7134 C.2       4 UNK         0.5000 
     51 O           4.8739  -15.3981  -43.1034 O.2       4 UNK        -0.5000 
     52 CA          5.4976  -17.6543  -43.6629 C.3       4 UNK         0.1400 
     53 CB          4.7155  -18.8681  -43.1321 C.3       4 UNK        -0.1800 
     54 N           4.9583  -17.2735  -44.9614 N.am      4 UNK        -0.5000 
     55 C           5.4202  -17.6549  -46.1553 C.2       3 UNK         0.5000 
     56 O           6.3610  -18.4361  -46.3026 O.2       3 UNK        -0.5000 
     57 CA          4.7095  -17.0826  -47.4007 C.3       3 UNK         0.1400 
     58 CB          4.0338  -18.2093  -48.2019 C.3       3 UNK        -0.1800 
     59 N           3.7023  -16.0605  -47.0938 N.am      3 UNK        -0.5000 
     60 C           3.9554  -14.7826  -46.7759 C.2       2 UNK         0.5000 
     61 O           5.0928  -14.3181  -46.6933 O.2       2 UNK        -0.5000 
     62 CA          2.7223  -13.8855  -46.5391 C.3       2 UNK         0.1400 
     63 CB          3.0448  -12.3862  -46.6731 C.3       2 UNK        -0.1800 
     64 N           1.6637  -14.2332  -47.4906 N.am      2 UNK        -0.5000 
     65 C           0.4737  -14.7588  -47.1772 C.2       1 UNK         0.5000 
     66 O           0.0929  -14.9571  -46.0223 O.2       1 UNK        -0.5000 
     67 C          -2.1289  -22.4837  -45.0715 C.2       11 UNK         0.5000 
     68 O          -2.6663  -23.2400  -45.8784 O.2       11 UNK        -0.5000 
     69 N          -1.3683  -22.9047  -44.0515 N.am      12 UNK        -0.5000 
     70 CA         -1.0130  -24.3031  -43.8154 C.3       12 UNK         0.1400 
     71 CB         -0.5716  -24.4754  -42.3537 C.3       12 UNK        -0.1800 
     72 C           0.0762  -24.8059  -44.7823 C.2       12 UNK         0.5000 
     73 O           0.0274  -25.9653  -45.1950 O.2       12 UNK        -0.5000 
     74 N           1.0434  -23.9381  -45.1110 N.am      13 UNK        -0.5000 
     75 CA          2.1519  -24.2294  -46.0201 C.3       13 UNK         0.1400 
     76 CB          3.2359  -23.1507  -45.8628 C.3       13 UNK        -0.1800 
     77 C           1.7072  -24.3449  -47.4899 C.2       13 UNK         0.5000 
     78 O           2.1286  -25.2733  -48.1821 O.2       13 UNK        -0.5000 
     79 N           0.8768  -23.3973  -47.9403 N.am      14 UNK        -0.5000 
     80 CA          0.3092  -23.3507  -49.2866 C.3       14 UNK         0.1400 
     81 CB         -0.1055  -21.9001  -49.5828 C.3       14 UNK        -0.1800 
     82 C          -0.8994  -24.2933  -49.4428 C.2       14 UNK         0.5000 
     83 O          -1.3902  -24.8564  -48.4625 O.2       14 UNK        -0.5000 
     84 N          -1.3880  -24.4161  -50.6852 N.am      15 UNK        -0.5000 
     85 CA         -2.6502  -25.0907  -51.0038 C.3       15 UNK         0.1400 
     86 CB         -2.7444  -25.3082  -52.5222 C.3       15 UNK        -0.1800 
     87 C          -3.8757  -24.3057  -50.4932 C.2       15 UNK         0.5000 
     88 O          -4.8513  -24.9214  -50.0631 O.2       15 UNK        -0.5000 
     89 N          -3.7800  -22.9658  -50.5443 N.am      16 UNK        -0.5000 
     90 CA         -4.7467  -21.9776  -50.0470 C.3       16 UNK         0.1400 
     91 CB         -4.7334  -21.9533  -48.5087 C.3       16 UNK        -0.1800 
     92 C          -6.1669  -22.1288  -50.6345 C.2       16 UNK         0.5000 
     93 O          -7.1587  -21.8929  -49.9415 O.2       16 UNK        -0.5000 
     94 N          -6.2363  -22.5185  -51.9105 N.am      17 UNK        -0.5000 
     95 CA         -7.4572  -22.6648  -52.6881 C.3       17 UNK         0.1400 
     96 CB         -8.0797  -24.0486  -52.4340 C.3       17 UNK        -0.1800 
     97 C          -7.1052  -22.4791  -54.1677 C.2       17 UNK         0.5000 
     98 O          -5.9854  -22.8090  -54.5699 O.2       17 UNK        -0.5000 
     99 N          -8.0779  -21.9713  -54.9368 N.am      18 UNK        -0.5000 
    100 CA        -8.0108  -21.6190  -56.3603 C.3       18 UNK         0.1400 
    101 CB        -7.6678  -22.8543  -57.2204 C.3       18 UNK        -0.1800 
    102 C         -7.0593  -20.4413  -56.6577 C.2       18 UNK         0.5000 
    103 O         -6.2979  -20.0002  -55.7927 O.2       18 UNK        -0.5000 
    104 N         -7.1113  -19.9511  -57.9036 N.am      19 UNK        -0.5000 
    105 CA        -6.3054  -18.8318  -58.4053 C.3       19 UNK         0.1400 
    106 CB        -6.7632  -18.4843  -59.8297 C.3       19 UNK        -0.1800 
    107 C         -4.7847  -19.0874  -58.3753 C.2       19 UNK         0.5000 
    108 O         -4.0119  -18.1309  -58.3171 O.2       19 UNK        -0.5000 
    109 N         -4.3853  -20.3669  -58.3768 N.am      20 UNK        -0.5000 
    110 CA        -3.0018  -20.8224  -58.2405 C.3       20 UNK         0.1400 
    111 CB        -2.9584  -22.3443  -58.4470 C.3       20 UNK        -0.1800 
    112 C         -2.3540  -20.4445  -56.8926 C.2       20 UNK         0.5000 
    113 O         -1.1374  -20.2564  -56.8495 O.2       20 UNK        -0.5000 
    114 N         -3.1659  -20.3336  -55.8317 N.am      21 UNK        -0.5000 
    115 CA        -2.7317  -19.9123  -54.5011 C.3       21 UNK         0.1400 
    116 CB        -3.2317  -20.9232  -53.4563 C.3       21 UNK        -0.1800 
    117 C         -3.2549  -18.5069  -54.1739 C.2       21 UNK         0.5000 
    118 O         -2.4826  -17.6641  -53.7189 O.2       21 UNK        -0.5000 
    119 N         -4.5565  -18.2878  -54.3901 N.am      22 UNK        -0.5000 
    120 CA        -5.2909  -17.0895  -53.9567 C.3       22 UNK         0.1400 
    121 C         -5.3843  -15.9662  -55.0289 C.2       22 UNK         0.5000 
    122 N         -4.8145  -16.1157  -56.2176 N.am      22 UNK        -0.7600 
    123 O         -5.9735  -14.9201  -54.7714 O.2       22 UNK        -0.5000 
    124 C124       -6.6898  -17.4636  -53.3973 C.3       23 UNK        -0.0398 
    125 S125       -6.6003  -18.6228  -51.9860 S.3       23 UNK        -0.2404 
    126 C126       -6.3636  -17.4647  -50.5951 C.3       23 UNK        -0.0205 
    127 H127       -4.2305  -15.4230  -47.2416 H         1 UNK         0.0600 
    128 H128       -4.6791  -14.0041  -48.1914 H         1 UNK         0.0600 
    129 H129       -4.2509  -13.8314  -46.4849 H         1 UNK         0.0600 
    130 H130       -2.2468  -16.1356  -47.9822 H         1 UNK         0.3000 
    131 H131       -0.2481  -14.4838  -49.1780 H         1 UNK         0.0600 
    132 H132       -0.1138  -17.3562  -48.1151 H         1 UNK         0.0800 
    133 H133        1.1735  -16.5989  -49.0149 H         1 UNK         0.0800 
    134 H134       -0.8486  -19.2098  -49.3544 H         1 UNK         0.0800 
    135 H135       -1.5959  -19.2247  -50.9304 H         1 UNK         0.0800 
    136 H136       -3.7721  -17.9663  -51.2955 H         1 UNK         0.1150 
    137 H137       -6.3592  -17.8033  -47.8832 H         1 UNK         0.1150 
    138 H138       -2.2003  -18.7167  -47.3823 H         1 UNK         0.1150 
    139 H139       -3.6088  -18.0114  -45.4528 H         1 UNK         0.0800 
    140 H140       -5.2994  -17.6543  -45.6667 H         1 UNK         0.0800 
    141 H141       -3.8996  -21.2285  -43.6809 H         1 UNK         0.0800 
    142 H142       -3.3200  -19.6161  -43.7733 H         1 UNK         0.0800 
    143 H143       -2.5011  -20.7753  -46.2724 H         1 UNK         0.0600 
    144 H144       -1.2042  -19.5359  -44.1081 H         1 UNK         0.3000 
    145 H145        2.1699  -19.9761  -45.1940 H         1 UNK         0.0600 
    146 H146        2.0525  -17.4881  -44.8417 H         1 UNK         0.0600 
    147 H147        1.3911  -17.9843  -46.3942 H         1 UNK         0.0600 
    148 H148        0.3103  -17.5467  -45.0843 H         1 UNK         0.0600 
    149 H149        1.0718  -18.6972  -42.9030 H         1 UNK         0.3000 
    150 H150        0.8812  -21.5921  -40.8059 H         1 UNK         0.0600 
    151 H151        3.2542  -20.8161  -40.6821 H         1 UNK         0.0600 
    152 H152        2.2898  -20.1685  -39.3645 H         1 UNK         0.0600 
    153 H153        2.7230  -19.1417  -40.7270 H         1 UNK         0.0600 
    154 H154        0.2962  -18.7812  -40.4773 H         1 UNK         0.3000 
    155 H155       -3.1515  -18.9947  -41.3676 H         1 UNK         0.0600 
    156 H156       -3.3925  -18.0733  -39.0808 H         1 UNK         0.0600 
    157 H157       -3.0322  -19.7903  -39.0019 H         1 UNK         0.0600 
    158 H158       -1.7686  -18.6154  -38.6564 H         1 UNK         0.0600 
    159 H159       -1.5245  -16.8574  -40.3872 H         1 UNK         0.3000 
    160 H160       -0.2179  -15.7484  -43.4918 H         1 UNK         0.0600 
    161 H161       -2.4597  -14.5132  -41.8042 H         1 UNK         0.0600 
    162 H162       -2.5339  -14.8249  -43.5358 H         1 UNK         0.0600 
    163 H163       -1.3919  -13.6474  -42.9116 H         1 UNK         0.0600 
    164 H164       -0.1275  -14.5988  -40.8983 H         1 UNK         0.3000 
    165 H165        1.9201  -14.5373  -39.8741 H         1 UNK         0.0600 
    166 H166        2.1370  -16.0125  -37.8491 H         1 UNK         0.0600 
    167 H167        0.5177  -16.1223  -38.5203 H         1 UNK         0.0600 
    168 H168        1.6758  -17.4181  -38.8056 H         1 UNK         0.0600 
    169 H169        3.5995  -16.7530  -40.8071 H         1 UNK         0.3000 
    170 H170        6.3947  -14.7366  -40.8051 H         1 UNK         0.0600 
    171 H171        7.7199  -16.4060  -39.5338 H         1 UNK         0.0600 
    172 H172        6.2498  -17.0595  -38.8085 H         1 UNK         0.0600 
    173 H173        6.7730  -15.4230  -38.4302 H         1 UNK         0.0600 
    174 H174        6.2657  -17.5261  -41.2351 H         1 UNK         0.3000 
    175 H175        6.5547  -17.9106  -43.7582 H         1 UNK         0.0600 
    176 H176        5.1489  -19.2524  -42.2086 H         1 UNK         0.0600 
    177 H177        3.6806  -18.6017  -42.9250 H         1 UNK         0.0600 
    178 H178        4.7120  -19.6869  -43.8519 H         1 UNK         0.0600 
    179 H179        4.2533  -16.5505  -44.9216 H         1 UNK         0.3000 
    180 H180        5.4776  -16.6309  -48.0319 H         1 UNK         0.0600 
    181 H181        3.2878  -18.7390  -47.6093 H         1 UNK         0.0600 
    182 H182        4.7672  -18.9464  -48.5315 H         1 UNK         0.0600 
    183 H183        3.5441  -17.8229  -49.0959 H         1 UNK         0.0600 
    184 H184        2.7399  -16.3553  -47.1308 H         1 UNK         0.3000 
    185 H185        2.3958  -14.0693  -45.5134 H         1 UNK         0.0600 
    186 H186        3.7941  -12.0783  -45.9427 H         1 UNK         0.0600 
    187 H187        3.4296  -12.1439  -47.6644 H         1 UNK         0.0600 
    188 H188        2.1570  -11.7775  -46.5004 H         1 UNK         0.0600 
    189 H189        1.9063  -14.1204  -48.4658 H         1 UNK         0.3000 
    190 H190       -1.0022  -22.2213  -43.4008 H         1 UNK         0.3000 
    191 H191       -1.9034  -24.9164  -43.9697 H         1 UNK         0.0600 
    192 H192        0.3263  -23.8994  -42.1299 H         1 UNK         0.0600 
    193 H193       -0.3524  -25.5211  -42.1345 H         1 UNK         0.0600 
    194 H194       -1.3540  -24.1550  -41.6653 H         1 UNK         0.0600 
    195 H195        1.0503  -23.0283  -44.6619 H         1 UNK         0.3000 
    196 H196        2.5865  -25.1873  -45.7269 H         1 UNK         0.0600 
    197 H197        4.0916  -23.3604  -46.5057 H         1 UNK         0.0600 
    198 H198        3.6021  -23.1058  -44.8370 H         1 UNK         0.0600 
    199 H199        2.8615  -22.1614  -46.1270 H         1 UNK         0.0600 
    200 H200        0.5789  -22.6621  -47.3044 H         1 UNK         0.3000 
    201 H201        1.0755  -23.6497  -50.0047 H         1 UNK         0.0600 
    202 H202        0.7259  -21.2126  -49.4238 H         1 UNK         0.0600 
    203 H203       -0.9279  -21.5854  -48.9382 H         1 UNK         0.0600 
    204 H204       -0.4301  -21.7777  -50.6164 H         1 UNK         0.0600 
    205 H205       -0.9131  -23.9585  -51.4497 H         1 UNK         0.3000 
    206 H206       -2.6520  -26.0690  -50.5180 H         1 UNK         0.0600 
    207 H207       -1.9192  -25.9213  -52.8847 H         1 UNK         0.0600 
    208 H208       -3.6699  -25.8225  -52.7851 H         1 UNK         0.0600 
    209 H209       -2.7284  -24.3652  -53.0696 H         1 UNK         0.0600 
    210 H210       -2.9280  -22.5830  -50.9238 H         1 UNK         0.3000 
    211 H211       -4.3920  -21.0038  -50.3871 H         1 UNK         0.0600 
    212 H212       -5.0879  -22.8924  -48.0832 H         1 UNK         0.0600 
    213 H213       -5.3725  -21.1560  -48.1296 H         1 UNK         0.0600 
    214 H214       -3.7288  -21.7703  -48.1287 H         1 UNK         0.0600 
    215 H215       -5.3879  -22.6794  -52.4375 H         1 UNK         0.3000 
    216 H216       -8.1639  -21.8841  -52.3980 H         1 UNK         0.0600 
    217 H217       -7.3906  -24.8515  -52.6991 H         1 UNK         0.0600 
    218 H218       -8.9876  -24.1844  -53.0228 H         1 UNK         0.0600 
    219 H219       -8.3504  -24.1743  -51.3855 H         1 UNK         0.0600 
    220 H220       -8.9481  -21.7264  -54.4860 H         1 UNK         0.3000 
    221 H221       -9.0144  -21.2883  -56.6314 H         1 UNK         0.0600 
    222 H222       -8.3088  -23.6993  -56.9688 H         1 UNK         0.0600 
    223 H223       -6.6324  -23.1701  -57.0896 H         1 UNK         0.0600 
    224 H224       -7.8110  -22.6500  -58.2818 H         1 UNK         0.0600 
    225 H225       -7.7599  -20.3599  -58.5609 H         1 UNK         0.3000 
    226 H226       -6.5020  -17.9706  -57.7636 H         1 UNK         0.0600 
    227 H227       -7.8187  -18.2125  -59.8503 H         1 UNK         0.0600 
    228 H228       -6.2035  -17.6349  -60.2238 H         1 UNK         0.0600 
    229 H229       -6.6167  -19.3204  -60.5146 H         1 UNK         0.0600 
    230 H230       -5.0935  -21.0835  -58.4284 H         1 UNK         0.3000 
    231 H231       -2.4156  -20.3505  -59.0317 H         1 UNK         0.0600 
    232 H232       -3.5525  -22.8685  -57.6970 H         1 UNK         0.0600 
    233 H233       -1.9364  -22.7191  -58.3770 H         1 UNK         0.0600 
    234 H234       -3.3378  -22.6209  -59.4308 H         1 UNK         0.0600 
    235 H235       -4.1596  -20.4831  -55.9585 H         1 UNK         0.3000 
    236 H236       -1.6418  -19.8838  -54.4392 H         1 UNK         0.0600 
    237 H237       -4.3205  -20.9644  -53.4290 H         1 UNK         0.0600 
    238 H238       -2.8628  -21.9260  -53.6703 H         1 UNK         0.0600 
    239 H239       -2.8890  -20.6513  -52.4581 H         1 UNK         0.0600 
    240 H240       -5.1323  -19.0177  -54.8035 H         1 UNK         0.3000 
    241 H241       -4.7403  -16.6318  -53.1331 H         1 UNK         0.0600 
    242 H242       -4.3201  -16.9610  -56.4657 H         1 UNK         0.3800 
    243 H243       -4.8772  -15.3667  -56.8884 H         1 UNK         0.3800 
    244 H244       -7.2922  -17.9290  -54.1790 H         1 UNK         0.0800 
    245 H245       -7.2413  -16.5755  -53.0842 H         1 UNK         0.0800 
    246 H246       -6.1775  -16.4557  -50.9647 H         1 UNK         0.0800 
    247 H247       -7.2939  -17.4158  -50.0274 H         1 UNK         0.0800 
@<TRIPOS>BOND
     1    1    2 1    
     2    1  127 1    
     3    1  128 1    
     4    1  129 1    
     5    2    3 2    
     6    2    4 am   BACKBONE|DICT|INTERRES
     7    4    5 1    
     8    4  130 1    
     9    5    6 1    
    10    5   65 1    
    11    5  131 1    
    12    6    7 1    
    13    6  132 1    
    14    6  133 1    
    15    7    8 1    
    16    8    9 1    
    17    8  134 1    
    18    8  135 1    
    19    9   10 ar   
    20    9   14 ar   
    21   10   11 ar   
    22   10  136 1    
    23   11   12 ar   
    24   11  126 1    
    25   12   13 ar   
    26   12  137 1    
    27   13   14 ar   
    28   13   15 1    
    29   14  138 1    
    30   15   16 1    
    31   15  139 1    
    32   15  140 1    
    33   16   17 1    
    34   17   18 1    
    35   17  141 1    
    36   17  142 1    
    37   18   19 1    
    38   18   67 1    
    39   18  143 1    
    40   19   20 am   BACKBONE|DICT|INTERRES
    41   19  144 1    
    42   20   21 2    
    43   20   22 1    
    44   22   23 1    
    45   22   24 1    
    46   22  145 1    
    47   23  146 1    
    48   23  147 1    
    49   23  148 1    
    50   24   25 am   BACKBONE|DICT|INTERRES
    51   24  149 1    
    52   25   26 2    
    53   25   27 1    
    54   27   28 1    
    55   27   29 1    
    56   27  150 1    
    57   28  151 1    
    58   28  152 1    
    59   28  153 1    
    60   29   30 am   BACKBONE|DICT|INTERRES
    61   29  154 1    
    62   30   31 2    
    63   30   32 1    
    64   32   33 1    
    65   32   34 1    
    66   32  155 1    
    67   33  156 1    
    68   33  157 1    
    69   33  158 1    
    70   34   35 am   BACKBONE|DICT|INTERRES
    71   34  159 1    
    72   35   36 2    
    73   35   37 1    
    74   37   38 1    
    75   37   39 1    
    76   37  160 1    
    77   38  161 1    
    78   38  162 1    
    79   38  163 1    
    80   39   40 am   BACKBONE|DICT|INTERRES
    81   39  164 1    
    82   40   41 2    
    83   40   42 1    
    84   42   43 1    
    85   42   44 1    
    86   42  165 1    
    87   43  166 1    
    88   43  167 1    
    89   43  168 1    
    90   44   45 am   BACKBONE|DICT|INTERRES
    91   44  169 1    
    92   45   46 2    
    93   45   47 1    
    94   47   48 1    
    95   47   49 1    
    96   47  170 1    
    97   48  171 1    
    98   48  172 1    
    99   48  173 1    
   100   49   50 am   BACKBONE|DICT|INTERRES
   101   49  174 1    
   102   50   51 2    
   103   50   52 1    
   104   52   53 1    
   105   52   54 1    
   106   52  175 1    
   107   53  176 1    
   108   53  177 1    
   109   53  178 1    
   110   54   55 am   BACKBONE|DICT|INTERRES
   111   54  179 1    
   112   55   56 2    
   113   55   57 1    
   114   57   58 1    
   115   57   59 1    
   116   57  180 1    
   117   58  181 1    
   118   58  182 1    
   119   58  183 1    
   120   59   60 am   BACKBONE|DICT|INTERRES
   121   59  184 1    
   122   60   61 2    
   123   60   62 1    
   124   62   63 1    
   125   62   64 1    
   126   62  185 1    
   127   63  186 1    
   128   63  187 1    
   129   63  188 1    
   130   64   65 am   BACKBONE|DICT|INTERRES
   131   64  189 1    
   132   65   66 2    
   133   67   68 2    
   134   67   69 am   BACKBONE|DICT|INTERRES
   135   69   70 1    
   136   69  190 1    
   137   70   71 1    
   138   70   72 1    
   139   70  191 1    
   140   71  192 1    
   141   71  193 1    
   142   71  194 1    
   143   72   73 2    
   144   72   74 am   BACKBONE|DICT|INTERRES
   145   74   75 1    
   146   74  195 1    
   147   75   76 1    
   148   75   77 1    
   149   75  196 1    
   150   76  197 1    
   151   76  198 1    
   152   76  199 1    
   153   77   78 2    
   154   77   79 am   BACKBONE|DICT|INTERRES
   155   79   80 1    
   156   79  200 1    
   157   80   81 1    
   158   80   82 1    
   159   80  201 1    
   160   81  202 1    
   161   81  203 1    
   162   81  204 1    
   163   82   83 2    
   164   82   84 am   BACKBONE|DICT|INTERRES
   165   84   85 1    
   166   84  205 1    
   167   85   86 1    
   168   85   87 1    
   169   85  206 1    
   170   86  207 1    
   171   86  208 1    
   172   86  209 1    
   173   87   88 2    
   174   87   89 am   BACKBONE|DICT|INTERRES
   175   89   90 1    
   176   89  210 1    
   177   90   91 1    
   178   90   92 1    
   179   90  211 1    
   180   91  212 1    
   181   91  213 1    
   182   91  214 1    
   183   92   93 2    
   184   92   94 am   BACKBONE|DICT|INTERRES
   185   94   95 1    
   186   94  215 1    
   187   95   96 1    
   188   95   97 1    
   189   95  216 1    
   190   96  217 1    
   191   96  218 1    
   192   96  219 1    
   193   97   98 2    
   194   97   99 am   BACKBONE|DICT|INTERRES
   195   99  100 1    
   196   99  220 1    
   197  100  101 1    
   198  100  102 1    
   199  100  221 1    
   200  101  222 1    
   201  101  223 1    
   202  101  224 1    
   203  102  103 2    
   204  102  104 am   BACKBONE|DICT|INTERRES
   205  104  105 1    
   206  104  225 1    
   207  105  106 1    
   208  105  107 1    
   209  105  226 1    
   210  106  227 1    
   211  106  228 1    
   212  106  229 1    
   213  107  108 2    
   214  107  109 am   BACKBONE|DICT|INTERRES
   215  109  110 1    
   216  109  230 1    
   217  110  111 1    
   218  110  112 1    
   219  110  231 1    
   220  111  232 1    
   221  111  233 1    
   222  111  234 1    
   223  112  113 2    
   224  112  114 am   BACKBONE|DICT|INTERRES
   225  114  115 1    
   226  114  235 1    
   227  115  116 1    
   228  115  117 1    
   229  115  236 1    
   230  116  237 1    
   231  116  238 1    
   232  116  239 1    
   233  117  118 2    
   234  117  119 am   BACKBONE|DICT|INTERRES
   235  119  120 1    
   236  119  240 1    
   237  120  121 1    
   238  120  124 1    
   239  120  241 1    
   240  121  122 am   BACKBONE|DICT|INTERRES
   241  121  123 2    
   242  122  242 1    
   243  122  243 1    
   244  124  125 1    
   245  124  244 1    
   246  124  245 1    
   247  125  126 1    
   248  126  246 1    
   249  126  247 1    
@<TRIPOS>SUBSTRUCTURE
     1 UNK         1 GROUP             0       ****    0 ROOT    
