@<TRIPOS>MOLECULE
3R540
247   249    1
SMALL
USER_CHARGES


@<TRIPOS>ATOM
      1 CA         -7.2115  -16.1926  -50.3036 C.3       0 UNK        -0.1800 
      2 C          -6.1311  -15.2205  -49.8561 C.2       0 UNK         0.5000 
      3 O          -6.4252  -14.0408  -49.6587 O.2       0 UNK        -0.5000 
      4 N          -4.8896  -15.6984  -49.6939 N.am      1 UNK        -0.5000 
      5 CA         -3.7902  -14.9191  -49.1091 C.3       1 UNK         0.1400 
      6 C6         -2.3849  -15.4161  -49.5385 C.3       23 UNK        -0.0398 
      7 S7         -2.0700  -17.2019  -49.3272 S.3       23 UNK        -0.2404 
      8 C8         -1.2887  -17.5900  -50.9238 C.3       23 UNK        -0.0205 
      9 C9         -0.8373  -19.0392  -50.9947 C.ar      23 UNK        -0.0193 
     10 C10        -1.6341  -20.0001  -51.6237 C.ar      23 UNK        -0.1150 
     11 C11        -1.2081  -21.3286  -51.7117 C.ar      23 UNK        -0.0193 
     12 C12         0.0093  -21.6987  -51.1385 C.ar      23 UNK        -0.1150 
     13 C13         0.8123  -20.7515  -50.4981 C.ar      23 UNK        -0.0193 
     14 C14         0.3929  -19.4174  -50.4496 C.ar      23 UNK        -0.1150 
     15 C15         2.1087  -21.1950  -49.8286 C.3       23 UNK        -0.0205 
     16 S16         2.2878  -20.6279  -48.0996 S.3       23 UNK        -0.2404 
     17 C17         0.6514  -20.9667  -47.3625 C.3       23 UNK        -0.0398 
     18 CA          0.5989  -22.2420  -46.4897 C.3       11 UNK         0.1400 
     19 N           1.5057  -22.1513  -45.3433 N.am      11 UNK        -0.5000 
     20 C           2.1857  -23.1613  -44.7907 C.2       10 UNK         0.5000 
     21 O           2.1426  -24.3206  -45.2051 O.2       10 UNK        -0.5000 
     22 CA          3.0335  -22.7996  -43.5498 C.3       10 UNK         0.1400 
     23 CB          4.1058  -23.8558  -43.2101 C.3       10 UNK        -0.1800 
     24 N           3.6108  -21.4516  -43.6298 N.am      10 UNK        -0.5000 
     25 C           4.5319  -21.0027  -44.4961 C.2       9 UNK         0.5000 
     26 O           5.1088  -21.7168  -45.3169 O.2       9 UNK        -0.5000 
     27 CA          4.8610  -19.4951  -44.4580 C.3       9 UNK         0.1400 
     28 CB          4.2968  -18.7906  -45.7005 C.3       9 UNK        -0.1800 
     29 N           4.3559  -18.8057  -43.2690 N.am      9 UNK        -0.5000 
     30 C           4.9199  -18.8536  -42.0553 C.2       8 UNK         0.5000 
     31 O           5.9419  -19.4912  -41.7996 O.2       8 UNK        -0.5000 
     32 CA          4.2080  -18.0715  -40.9350 C.3       8 UNK         0.1400 
     33 CB          4.5900  -16.5839  -40.9750 C.3       8 UNK        -0.1800 
     34 N           2.7514  -18.2013  -40.9978 N.am      8 UNK        -0.5000 
     35 C           2.0815  -19.3326  -40.7360 C.2       7 UNK         0.5000 
     36 O           2.6198  -20.3832  -40.3869 O.2       7 UNK        -0.5000 
     37 CA          0.5559  -19.2954  -40.9325 C.3       7 UNK         0.1400 
     38 CB         -0.1357  -18.6877  -39.7035 C.3       7 UNK        -0.1800 
     39 N           0.1630  -18.5602  -42.1350 N.am      7 UNK        -0.5000 
     40 C           0.4531  -18.9484  -43.3834 C.2       6 UNK         0.5000 
     41 O           1.0237  -20.0037  -43.6508 O.2       6 UNK        -0.5000 
     42 CA          0.0699  -18.0015  -44.5307 C.3       6 UNK         0.1400 
     43 CB         -1.3863  -18.2304  -44.9476 C.3       6 UNK        -0.1800 
     44 N           0.2778  -16.5925  -44.2141 N.am      6 UNK        -0.5000 
     45 C           1.4667  -16.0392  -43.9407 C.2       5 UNK         0.5000 
     46 O           2.5263  -16.6644  -43.9209 O.2       5 UNK        -0.5000 
     47 CA          1.4586  -14.5456  -43.5817 C.3       5 UNK         0.1400 
     48 CB          1.3333  -13.6764  -44.8424 C.3       5 UNK        -0.1800 
     49 N           0.3748  -14.2274  -42.6543 N.am      5 UNK        -0.5000 
     50 C           0.3431  -14.6127  -41.3711 C.2       4 UNK         0.5000 
     51 O           1.2498  -15.2365  -40.8177 O.2       4 UNK        -0.5000 
     52 CA         -0.9403  -14.2748  -40.5909 C.3       4 UNK         0.1400 
     53 CB         -0.9111  -12.8204  -40.0972 C.3       4 UNK        -0.1800 
     54 N          -2.1543  -14.4973  -41.3803 N.am      4 UNK        -0.5000 
     55 C          -2.5741  -15.7035  -41.7864 C.2       3 UNK         0.5000 
     56 O          -1.9821  -16.7516  -41.5371 O.2       3 UNK        -0.5000 
     57 CA         -3.8525  -15.7489  -42.6404 C.3       3 UNK         0.1400 
     58 CB         -5.0987  -15.7560  -41.7425 C.3       3 UNK        -0.1800 
     59 N          -3.9641  -14.6627  -43.6164 N.am      3 UNK        -0.5000 
     60 C          -3.0930  -14.4172  -44.6042 C.2       2 UNK         0.5000 
     61 O          -2.0111  -14.9921  -44.7334 O.2       2 UNK        -0.5000 
     62 CA         -3.4924  -13.3194  -45.6055 C.3       2 UNK         0.1400 
     63 CB         -2.6485  -12.0565  -45.3721 C.3       2 UNK        -0.1800 
     64 N          -3.3618  -13.7307  -47.0068 N.am      2 UNK        -0.5000 
     65 C          -3.9531  -14.7931  -47.5757 C.2       1 UNK         0.5000 
     66 O          -4.6340  -15.6156  -46.9561 O.2       1 UNK        -0.5000 
     67 C          -0.8624  -22.4512  -46.0439 C.2       11 UNK         0.5000 
     68 O          -1.7012  -22.7537  -46.8920 O.2       11 UNK        -0.5000 
     69 N          -1.1603  -22.2356  -44.7525 N.am      12 UNK        -0.5000 
     70 CA         -2.4997  -22.0840  -44.1653 C.3       12 UNK         0.1400 
     71 CB         -2.3526  -21.9216  -42.6449 C.3       12 UNK        -0.1800 
     72 C          -3.5386  -23.1761  -44.4980 C.2       12 UNK         0.5000 
     73 O          -4.7359  -22.8911  -44.4696 O.2       12 UNK        -0.5000 
     74 N          -3.0762  -24.3881  -44.8282 N.am      13 UNK        -0.5000 
     75 CA         -3.9115  -25.5026  -45.2772 C.3       13 UNK         0.1400 
     76 CB         -3.0830  -26.7952  -45.2157 C.3       13 UNK        -0.1800 
     77 C          -4.5033  -25.3137  -46.6914 C.2       13 UNK         0.5000 
     78 O          -5.5449  -25.9044  -46.9807 O.2       13 UNK        -0.5000 
     79 N          -3.8354  -24.5249  -47.5457 N.am      14 UNK        -0.5000 
     80 CA         -4.1940  -24.3193  -48.9536 C.3       14 UNK         0.1400 
     81 CB         -3.0784  -24.9090  -49.8307 C.3       14 UNK        -0.1800 
     82 C          -4.4225  -22.8398  -49.3146 C.2       14 UNK         0.5000 
     83 O          -4.9947  -22.5704  -50.3709 O.2       14 UNK        -0.5000 
     84 N          -3.9804  -21.9154  -48.4486 N.am      15 UNK        -0.5000 
     85 CA         -3.9314  -20.4573  -48.6260 C.3       15 UNK         0.1400 
     86 CB         -3.5460  -19.8227  -47.2843 C.3       15 UNK        -0.1800 
     87 C          -5.1985  -19.7801  -49.1806 C.2       15 UNK         0.5000 
     88 O          -5.0882  -18.7800  -49.8920 O.2       15 UNK        -0.5000 
     89 N          -6.3700  -20.3575  -48.8814 N.am      16 UNK        -0.5000 
     90 CA         -7.6863  -19.9430  -49.3711 C.3       16 UNK         0.1400 
     91 CB         -8.7555  -20.8327  -48.7190 C.3       16 UNK        -0.1800 
     92 C          -7.8374  -19.9595  -50.9081 C.2       16 UNK         0.5000 
     93 O          -8.7121  -19.2667  -51.4287 O.2       16 UNK        -0.5000 
     94 N          -6.9877  -20.7245  -51.6097 N.am      17 UNK        -0.5000 
     95 CA         -6.9230  -20.7650  -53.0722 C.3       17 UNK         0.1400 
     96 CB         -6.1271  -22.0059  -53.5028 C.3       17 UNK        -0.1800 
     97 C          -6.3182  -19.4924  -53.7042 C.2       17 UNK         0.5000 
     98 O          -6.5428  -19.2609  -54.8935 O.2       17 UNK        -0.5000 
     99 N          -5.5793  -18.6974  -52.9117 N.am      18 UNK        -0.5000 
    100 CA        -4.8609  -17.4783  -53.3020 C.3       18 UNK         0.1400 
    101 CB        -5.8501  -16.3804  -53.7559 C.3       18 UNK        -0.1800 
    102 C         -3.7466  -17.7503  -54.3394 C.2       18 UNK         0.5000 
    103 O         -3.2454  -18.8721  -54.4215 O.2       18 UNK        -0.5000 
    104 N         -3.3433  -16.7089  -55.0827 N.am      19 UNK        -0.5000 
    105 CA        -2.3677  -16.6736  -56.1863 C.3       19 UNK         0.1400 
    106 CB        -2.8120  -17.5875  -57.3451 C.3       19 UNK        -0.1800 
    107 C         -0.8990  -16.9593  -55.8060 C.2       19 UNK         0.5000 
    108 O         -0.0038  -16.3747  -56.4155 O.2       19 UNK        -0.5000 
    109 N         -0.6751  -17.8527  -54.8344 N.am      20 UNK        -0.5000 
    110 CA         0.6068  -18.3227  -54.2918 C.3       20 UNK         0.1400 
    111 CB         1.4579  -17.1584  -53.7470 C.3       20 UNK        -0.1800 
    112 C          1.4126  -19.2400  -55.2333 C.2       20 UNK         0.5000 
    113 O          2.4611  -19.7425  -54.8263 O.2       20 UNK        -0.5000 
    114 N          0.8964  -19.5120  -56.4409 N.am      21 UNK        -0.5000 
    115 CA         1.4553  -20.4698  -57.4027 C.3       21 UNK         0.1400 
    116 CB         0.6806  -20.3583  -58.7245 C.3       21 UNK        -0.1800 
    117 C          1.4349  -21.9213  -56.8798 C.2       21 UNK         0.5000 
    118 O          2.2908  -22.7242  -57.2525 O.2       21 UNK        -0.5000 
    119 N          0.4723  -22.2059  -55.9970 N.am      22 UNK        -0.5000 
    120 CA         0.3542  -23.4217  -55.1837 C.3       22 UNK         0.1400 
    121 C          1.3387  -23.5032  -53.9775 C.2       22 UNK         0.5000 
    122 N          2.1758  -22.5067  -53.7114 N.am      22 UNK        -0.7600 
    123 O          1.3597  -24.5096  -53.2744 O.2       22 UNK        -0.5000 
    124 C124       -1.1214  -23.6764  -54.7656 C.3       23 UNK        -0.0398 
    125 S125       -2.0340  -22.1875  -54.2103 S.3       23 UNK        -0.2404 
    126 C126       -2.0767  -22.3666  -52.4010 C.3       23 UNK        -0.0205 
    127 H127       -6.7881  -17.0700  -50.7879 H         1 UNK         0.0600 
    128 H128       -7.7977  -16.5191  -49.4453 H         1 UNK         0.0600 
    129 H129       -7.8859  -15.7121  -51.0122 H         1 UNK         0.0600 
    130 H130       -4.7219  -16.6948  -49.7913 H         1 UNK         0.3000 
    131 H131       -3.8757  -13.9031  -49.5016 H         1 UNK         0.0600 
    132 H132       -1.6022  -14.8691  -49.0102 H         1 UNK         0.0800 
    133 H133       -2.2456  -15.1636  -50.5904 H         1 UNK         0.0800 
    134 H134       -0.4292  -16.9345  -51.0695 H         1 UNK         0.0800 
    135 H135       -1.9845  -17.3726  -51.7343 H         1 UNK         0.0800 
    136 H136       -2.5863  -19.7176  -52.0491 H         1 UNK         0.1150 
    137 H137        0.3283  -22.7304  -51.1851 H         1 UNK         0.1150 
    138 H138        1.0099  -18.6786  -49.9579 H         1 UNK         0.1150 
    139 H139        2.1893  -22.2831  -49.8364 H         1 UNK         0.0800 
    140 H140        2.9509  -20.8205  -50.4114 H         1 UNK         0.0800 
    141 H141       -0.1051  -21.0166  -48.1450 H         1 UNK         0.0800 
    142 H142        0.3828  -20.0934  -46.7684 H         1 UNK         0.0800 
    143 H143        0.8756  -23.0959  -47.1115 H         1 UNK         0.0600 
    144 H144        1.5625  -21.2438  -44.8871 H         1 UNK         0.3000 
    145 H145        2.3346  -22.7690  -42.7127 H         1 UNK         0.0600 
    146 H146        4.6837  -23.5624  -42.3337 H         1 UNK         0.0600 
    147 H147        3.6460  -24.8191  -42.9871 H         1 UNK         0.0600 
    148 H148        4.8010  -24.0118  -44.0351 H         1 UNK         0.0600 
    149 H149        3.1752  -20.7630  -43.0304 H         1 UNK         0.3000 
    150 H150        5.9484  -19.3993  -44.4795 H         1 UNK         0.0600 
    151 H151        4.6762  -19.2447  -46.6167 H         1 UNK         0.0600 
    152 H152        4.5780  -17.7376  -45.7198 H         1 UNK         0.0600 
    153 H153        3.2080  -18.8461  -45.7303 H         1 UNK         0.0600 
    154 H154        3.5540  -18.1960  -43.4082 H         1 UNK         0.3000 
    155 H155        4.5435  -18.4801  -39.9794 H         1 UNK         0.0600 
    156 H156        4.2673  -16.1074  -41.9011 H         1 UNK         0.0600 
    157 H157        5.6705  -16.4562  -40.8989 H         1 UNK         0.0600 
    158 H158        4.1381  -16.0391  -40.1458 H         1 UNK         0.0600 
    159 H159        2.2315  -17.3790  -41.2768 H         1 UNK         0.3000 
    160 H160        0.2121  -20.3262  -41.0393 H         1 UNK         0.0600 
    161 H161        0.1560  -19.2089  -38.7909 H         1 UNK         0.0600 
    162 H162       -1.2200  -18.7623  -39.7869 H         1 UNK         0.0600 
    163 H163        0.1185  -17.6343  -39.5785 H         1 UNK         0.0600 
    164 H164       -0.3897  -17.7190  -41.9940 H         1 UNK         0.3000 
    165 H165        0.7114  -18.2398  -45.3807 H         1 UNK         0.0600 
    166 H166       -1.6369  -17.6641  -45.8453 H         1 UNK         0.0600 
    167 H167       -1.5595  -19.2830  -45.1603 H         1 UNK         0.0600 
    168 H168       -2.0804  -17.9393  -44.1602 H         1 UNK         0.0600 
    169 H169       -0.5451  -15.9943  -44.2512 H         1 UNK         0.3000 
    170 H170        2.4087  -14.3099  -43.0973 H         1 UNK         0.0600 
    171 H171        2.1535  -13.8750  -45.5334 H         1 UNK         0.0600 
    172 H172        0.4023  -13.8674  -45.3771 H         1 UNK         0.0600 
    173 H173        1.3663  -12.6154  -44.5949 H         1 UNK         0.0600 
    174 H174       -0.4374  -13.7721  -43.0434 H         1 UNK         0.3000 
    175 H175       -0.9791  -14.9301  -39.7179 H         1 UNK         0.0600 
    176 H176       -1.7779  -12.5983  -39.4745 H         1 UNK         0.0600 
    177 H177       -0.0220  -12.6315  -39.4939 H         1 UNK         0.0600 
    178 H178       -0.9022  -12.1117  -40.9262 H         1 UNK         0.0600 
    179 H179       -2.6973  -13.6848  -41.6324 H         1 UNK         0.3000 
    180 H180       -3.8388  -16.6859  -43.1998 H         1 UNK         0.0600 
    181 H181       -5.2005  -14.8237  -41.1857 H         1 UNK         0.0600 
    182 H182       -5.0521  -16.5688  -41.0162 H         1 UNK         0.0600 
    183 H183       -6.0068  -15.8988  -42.3285 H         1 UNK         0.0600 
    184 H184       -4.8191  -14.1267  -43.5830 H         1 UNK         0.3000 
    185 H185       -4.5413  -13.0636  -45.4432 H         1 UNK         0.0600 
    186 H186       -1.5911  -12.2368  -45.5701 H         1 UNK         0.0600 
    187 H187       -2.9753  -11.2380  -46.0137 H         1 UNK         0.0600 
    188 H188       -2.7348  -11.7121  -44.3406 H         1 UNK         0.0600 
    189 H189       -2.8091  -13.1178  -47.5876 H         1 UNK         0.3000 
    190 H190       -0.3903  -21.9985  -44.1431 H         1 UNK         0.3000 
    191 H191       -2.9086  -21.1519  -44.5573 H         1 UNK         0.0600 
    192 H192       -1.7608  -21.0402  -42.3987 H         1 UNK         0.0600 
    193 H193       -1.8702  -22.7895  -42.1939 H         1 UNK         0.0600 
    194 H194       -3.3246  -21.7987  -42.1652 H         1 UNK         0.0600 
    195 H195       -2.0773  -24.5326  -44.8374 H         1 UNK         0.3000 
    196 H196       -4.7483  -25.6028  -44.5826 H         1 UNK         0.0600 
    197 H197       -3.6805  -27.6575  -45.5147 H         1 UNK         0.0600 
    198 H198       -2.7232  -26.9861  -44.2045 H         1 UNK         0.0600 
    199 H199       -2.2176  -26.7499  -45.8783 H         1 UNK         0.0600 
    200 H200       -2.9919  -24.0568  -47.2239 H         1 UNK         0.3000 
    201 H201       -5.1225  -24.8413  -49.1926 H         1 UNK         0.0600 
    202 H202       -2.9241  -25.9661  -49.6140 H         1 UNK         0.0600 
    203 H203       -2.1300  -24.3924  -49.6751 H         1 UNK         0.0600 
    204 H204       -3.3311  -24.8303  -50.8887 H         1 UNK         0.0600 
    205 H205       -3.4615  -22.2586  -47.6496 H         1 UNK         0.3000 
    206 H206       -3.1309  -20.2524  -49.3363 H         1 UNK         0.0600 
    207 H207       -2.5262  -20.0945  -47.0208 H         1 UNK         0.0600 
    208 H208       -3.5907  -18.7336  -47.3244 H         1 UNK         0.0600 
    209 H209       -4.2074  -20.1459  -46.4799 H         1 UNK         0.0600 
    210 H210       -6.3462  -21.1898  -48.3112 H         1 UNK         0.3000 
    211 H211       -7.8485  -18.9162  -49.0401 H         1 UNK         0.0600 
    212 H212       -8.6239  -21.8811  -48.9899 H         1 UNK         0.0600 
    213 H213       -9.7571  -20.5355  -49.0325 H         1 UNK         0.0600 
    214 H214       -8.7223  -20.7588  -47.6318 H         1 UNK         0.0600 
    215 H215       -6.3030  -21.2860  -51.1102 H         1 UNK         0.3000 
    216 H216       -7.9408  -20.8680  -53.4542 H         1 UNK         0.0600 
    217 H217       -6.1236  -22.1118  -54.5882 H         1 UNK         0.0600 
    218 H218       -6.5548  -22.9179  -53.0861 H         1 UNK         0.0600 
    219 H219       -5.0891  -21.9429  -53.1791 H         1 UNK         0.0600 
    220 H220       -5.4527  -18.9793  -51.9461 H         1 UNK         0.3000 
    221 H221       -4.3649  -17.1273  -52.3964 H         1 UNK         0.0600 
    222 H222       -6.2253  -16.5642  -54.7636 H         1 UNK         0.0600 
    223 H223       -6.7139  -16.3229  -53.0961 H         1 UNK         0.0600 
    224 H224       -5.3807  -15.3964  -53.7511 H         1 UNK         0.0600 
    225 H225       -3.7915  -15.8218  -54.9016 H         1 UNK         0.3000 
    226 H226       -2.3896  -15.6477  -56.5573 H         1 UNK         0.0600 
    227 H227       -3.8191  -17.3381  -57.6791 H         1 UNK         0.0600 
    228 H228       -2.8050  -18.6404  -57.0613 H         1 UNK         0.0600 
    229 H229       -2.1490  -17.4785  -58.2044 H         1 UNK         0.0600 
    230 H230       -1.5014  -18.3274  -54.4744 H         1 UNK         0.3000 
    231 H231        0.3456  -18.9560  -53.4460 H         1 UNK         0.0600 
    232 H232        1.8636  -16.5408  -54.5484 H         1 UNK         0.0600 
    233 H233        2.3026  -17.5339  -53.1683 H         1 UNK         0.0600 
    234 H234        0.8753  -16.5146  -53.0890 H         1 UNK         0.0600 
    235 H235        0.0366  -19.0531  -56.7012 H         1 UNK         0.3000 
    236 H236        2.4965  -20.1972  -57.5864 H         1 UNK         0.0600 
    237 H237        0.7455  -19.3509  -59.1362 H         1 UNK         0.0600 
    238 H238        1.0853  -21.0411  -59.4728 H         1 UNK         0.0600 
    239 H239       -0.3748  -20.6012  -58.5945 H         1 UNK         0.0600 
    240 H240       -0.1854  -21.4774  -55.7592 H         1 UNK         0.3000 
    241 H241        0.6440  -24.2577  -55.8229 H         1 UNK         0.0600 
    242 H242        2.8097  -22.5995  -52.9353 H         1 UNK         0.3800 
    243 H243        2.1925  -21.6582  -54.2645 H         1 UNK         0.3800 
    244 H244       -1.6606  -24.0530  -55.6357 H         1 UNK         0.0800 
    245 H245       -1.2009  -24.4741  -54.0257 H         1 UNK         0.0800 
    246 H246       -1.7819  -23.3735  -52.1059 H         1 UNK         0.0800 
    247 H247       -3.1038  -22.2405  -52.0660 H         1 UNK         0.0800 
@<TRIPOS>BOND
     1    1    2 1    
     2    1  127 1    
     3    1  128 1    
     4    1  129 1    
     5    2    3 2    
     6    2    4 am   BACKBONE|DICT|INTERRES
     7    4    5 1    
     8    4  130 1    
     9    5    6 1    
    10    5   65 1    
    11    5  131 1    
    12    6    7 1    
    13    6  132 1    
    14    6  133 1    
    15    7    8 1    
    16    8    9 1    
    17    8  134 1    
    18    8  135 1    
    19    9   10 ar   
    20    9   14 ar   
    21   10   11 ar   
    22   10  136 1    
    23   11   12 ar   
    24   11  126 1    
    25   12   13 ar   
    26   12  137 1    
    27   13   14 ar   
    28   13   15 1    
    29   14  138 1    
    30   15   16 1    
    31   15  139 1    
    32   15  140 1    
    33   16   17 1    
    34   17   18 1    
    35   17  141 1    
    36   17  142 1    
    37   18   19 1    
    38   18   67 1    
    39   18  143 1    
    40   19   20 am   BACKBONE|DICT|INTERRES
    41   19  144 1    
    42   20   21 2    
    43   20   22 1    
    44   22   23 1    
    45   22   24 1    
    46   22  145 1    
    47   23  146 1    
    48   23  147 1    
    49   23  148 1    
    50   24   25 am   BACKBONE|DICT|INTERRES
    51   24  149 1    
    52   25   26 2    
    53   25   27 1    
    54   27   28 1    
    55   27   29 1    
    56   27  150 1    
    57   28  151 1    
    58   28  152 1    
    59   28  153 1    
    60   29   30 am   BACKBONE|DICT|INTERRES
    61   29  154 1    
    62   30   31 2    
    63   30   32 1    
    64   32   33 1    
    65   32   34 1    
    66   32  155 1    
    67   33  156 1    
    68   33  157 1    
    69   33  158 1    
    70   34   35 am   BACKBONE|DICT|INTERRES
    71   34  159 1    
    72   35   36 2    
    73   35   37 1    
    74   37   38 1    
    75   37   39 1    
    76   37  160 1    
    77   38  161 1    
    78   38  162 1    
    79   38  163 1    
    80   39   40 am   BACKBONE|DICT|INTERRES
    81   39  164 1    
    82   40   41 2    
    83   40   42 1    
    84   42   43 1    
    85   42   44 1    
    86   42  165 1    
    87   43  166 1    
    88   43  167 1    
    89   43  168 1    
    90   44   45 am   BACKBONE|DICT|INTERRES
    91   44  169 1    
    92   45   46 2    
    93   45   47 1    
    94   47   48 1    
    95   47   49 1    
    96   47  170 1    
    97   48  171 1    
    98   48  172 1    
    99   48  173 1    
   100   49   50 am   BACKBONE|DICT|INTERRES
   101   49  174 1    
   102   50   51 2    
   103   50   52 1    
   104   52   53 1    
   105   52   54 1    
   106   52  175 1    
   107   53  176 1    
   108   53  177 1    
   109   53  178 1    
   110   54   55 am   BACKBONE|DICT|INTERRES
   111   54  179 1    
   112   55   56 2    
   113   55   57 1    
   114   57   58 1    
   115   57   59 1    
   116   57  180 1    
   117   58  181 1    
   118   58  182 1    
   119   58  183 1    
   120   59   60 am   BACKBONE|DICT|INTERRES
   121   59  184 1    
   122   60   61 2    
   123   60   62 1    
   124   62   63 1    
   125   62   64 1    
   126   62  185 1    
   127   63  186 1    
   128   63  187 1    
   129   63  188 1    
   130   64   65 am   BACKBONE|DICT|INTERRES
   131   64  189 1    
   132   65   66 2    
   133   67   68 2    
   134   67   69 am   BACKBONE|DICT|INTERRES
   135   69   70 1    
   136   69  190 1    
   137   70   71 1    
   138   70   72 1    
   139   70  191 1    
   140   71  192 1    
   141   71  193 1    
   142   71  194 1    
   143   72   73 2    
   144   72   74 am   BACKBONE|DICT|INTERRES
   145   74   75 1    
   146   74  195 1    
   147   75   76 1    
   148   75   77 1    
   149   75  196 1    
   150   76  197 1    
   151   76  198 1    
   152   76  199 1    
   153   77   78 2    
   154   77   79 am   BACKBONE|DICT|INTERRES
   155   79   80 1    
   156   79  200 1    
   157   80   81 1    
   158   80   82 1    
   159   80  201 1    
   160   81  202 1    
   161   81  203 1    
   162   81  204 1    
   163   82   83 2    
   164   82   84 am   BACKBONE|DICT|INTERRES
   165   84   85 1    
   166   84  205 1    
   167   85   86 1    
   168   85   87 1    
   169   85  206 1    
   170   86  207 1    
   171   86  208 1    
   172   86  209 1    
   173   87   88 2    
   174   87   89 am   BACKBONE|DICT|INTERRES
   175   89   90 1    
   176   89  210 1    
   177   90   91 1    
   178   90   92 1    
   179   90  211 1    
   180   91  212 1    
   181   91  213 1    
   182   91  214 1    
   183   92   93 2    
   184   92   94 am   BACKBONE|DICT|INTERRES
   185   94   95 1    
   186   94  215 1    
   187   95   96 1    
   188   95   97 1    
   189   95  216 1    
   190   96  217 1    
   191   96  218 1    
   192   96  219 1    
   193   97   98 2    
   194   97   99 am   BACKBONE|DICT|INTERRES
   195   99  100 1    
   196   99  220 1    
   197  100  101 1    
   198  100  102 1    
   199  100  221 1    
   200  101  222 1    
   201  101  223 1    
   202  101  224 1    
   203  102  103 2    
   204  102  104 am   BACKBONE|DICT|INTERRES
   205  104  105 1    
   206  104  225 1    
   207  105  106 1    
   208  105  107 1    
   209  105  226 1    
   210  106  227 1    
   211  106  228 1    
   212  106  229 1    
   213  107  108 2    
   214  107  109 am   BACKBONE|DICT|INTERRES
   215  109  110 1    
   216  109  230 1    
   217  110  111 1    
   218  110  112 1    
   219  110  231 1    
   220  111  232 1    
   221  111  233 1    
   222  111  234 1    
   223  112  113 2    
   224  112  114 am   BACKBONE|DICT|INTERRES
   225  114  115 1    
   226  114  235 1    
   227  115  116 1    
   228  115  117 1    
   229  115  236 1    
   230  116  237 1    
   231  116  238 1    
   232  116  239 1    
   233  117  118 2    
   234  117  119 am   BACKBONE|DICT|INTERRES
   235  119  120 1    
   236  119  240 1    
   237  120  121 1    
   238  120  124 1    
   239  120  241 1    
   240  121  122 am   BACKBONE|DICT|INTERRES
   241  121  123 2    
   242  122  242 1    
   243  122  243 1    
   244  124  125 1    
   245  124  244 1    
   246  124  245 1    
   247  125  126 1    
   248  126  246 1    
   249  126  247 1    
@<TRIPOS>SUBSTRUCTURE
     1 UNK         1 GROUP             0       ****    0 ROOT    
