@<TRIPOS>MOLECULE
3R540
247   249    1
SMALL
USER_CHARGES


@<TRIPOS>ATOM
      1 CA          0.7808   -8.4088  -48.3115 C.3       0 UNK        -0.1800 
      2 C           1.4044   -9.7909  -48.4429 C.2       0 UNK         0.5000 
      3 O           2.6086   -9.9422  -48.2371 O.2       0 UNK        -0.5000 
      4 N           0.5896  -10.7987  -48.7811 N.am      1 UNK        -0.5000 
      5 CA          1.0073  -12.1955  -48.9703 C.3       1 UNK         0.1400 
      6 C6         -0.1081  -13.0561  -49.6110 C.3       23 UNK        -0.0398 
      7 S7         -0.7715  -12.4113  -51.1816 S.3       23 UNK        -0.2404 
      8 C8         -2.4621  -13.0945  -51.1296 C.3       23 UNK        -0.0205 
      9 C9         -2.4715  -14.6098  -51.2902 C.ar      23 UNK        -0.0193 
     10 C10        -2.6248  -15.1783  -52.5573 C.ar      23 UNK        -0.1150 
     11 C11        -2.6380  -16.5667  -52.7173 C.ar      23 UNK        -0.0193 
     12 C12        -2.4685  -17.3882  -51.5976 C.ar      23 UNK        -0.1150 
     13 C13        -2.3320  -16.8359  -50.3209 C.ar      23 UNK        -0.0193 
     14 C14        -2.3445  -15.4455  -50.1750 C.ar      23 UNK        -0.1150 
     15 C15        -2.1971  -17.7343  -49.0968 C.3       23 UNK        -0.0205 
     16 S16        -0.5994  -18.6094  -49.0680 S.3       23 UNK        -0.2404 
     17 C17        -0.4637  -19.0824  -47.3088 C.3       23 UNK        -0.0398 
     18 CA         -0.6894  -20.5885  -47.0202 C.3       11 UNK         0.1400 
     19 N          -0.2273  -20.9468  -45.6743 N.am      11 UNK        -0.5000 
     20 C          -0.2312  -22.1807  -45.1478 C.2       10 UNK         0.5000 
     21 O          -0.5790  -23.1874  -45.7624 O.2       10 UNK        -0.5000 
     22 CA          0.1709  -22.3083  -43.6672 C.3       10 UNK         0.1400 
     23 CB          1.6986  -22.3011  -43.5113 C.3       10 UNK        -0.1800 
     24 N          -0.4223  -21.2670  -42.8259 N.am      10 UNK        -0.5000 
     25 C          -1.7401  -21.1061  -42.6343 C.2       9 UNK         0.5000 
     26 O          -2.5962  -21.8434  -43.1196 O.2       9 UNK        -0.5000 
     27 CA         -2.1863  -19.8878  -41.8083 C.3       9 UNK         0.1400 
     28 CB         -2.0259  -20.1528  -40.3042 C.3       9 UNK        -0.1800 
     29 N          -1.4717  -18.6676  -42.1803 N.am      9 UNK        -0.5000 
     30 C          -1.5222  -18.0990  -43.3941 C.2       8 UNK         0.5000 
     31 O          -2.2172  -18.5182  -44.3212 O.2       8 UNK        -0.5000 
     32 CA         -0.5985  -16.8894  -43.6235 C.3       8 UNK         0.1400 
     33 CB         -1.1933  -15.6261  -42.9860 C.3       8 UNK        -0.1800 
     34 N           0.7498  -17.1135  -43.1007 N.am      8 UNK        -0.5000 
     35 C           1.5854  -18.0693  -43.5307 C.2       7 UNK         0.5000 
     36 O           1.3291  -18.8296  -44.4642 O.2       7 UNK        -0.5000 
     37 CA          2.8936  -18.2591  -42.7424 C.3       7 UNK         0.1400 
     38 CB          3.9798  -17.2698  -43.1871 C.3       7 UNK        -0.1800 
     39 N           2.6866  -18.1462  -41.2994 N.am      7 UNK        -0.5000 
     40 C           2.0290  -19.0483  -40.5586 C.2       6 UNK         0.5000 
     41 O           1.5536  -20.0887  -41.0120 O.2       6 UNK        -0.5000 
     42 CA          1.8432  -18.7139  -39.0677 C.3       6 UNK         0.1400 
     43 CB          3.0808  -19.1334  -38.2606 C.3       6 UNK        -0.1800 
     44 N           1.5742  -17.2933  -38.8406 N.am      6 UNK        -0.5000 
     45 C           0.4511  -16.6675  -39.2197 C.2       5 UNK         0.5000 
     46 O          -0.4901  -17.2301  -39.7791 O.2       5 UNK        -0.5000 
     47 CA          0.3969  -15.1469  -38.9775 C.3       5 UNK         0.1400 
     48 CB         -0.0479  -14.8421  -37.5394 C.3       5 UNK        -0.1800 
     49 N           1.6706  -14.4707  -39.2506 N.am      5 UNK        -0.5000 
     50 C           2.2605  -14.4429  -40.4521 C.2       4 UNK         0.5000 
     51 O           1.8024  -15.0151  -41.4434 O.2       4 UNK        -0.5000 
     52 CA          3.5931  -13.6890  -40.5599 C.3       4 UNK         0.1400 
     53 CB          4.7596  -14.5602  -40.0628 C.3       4 UNK        -0.1800 
     54 N           3.8024  -13.3363  -41.9584 N.am      4 UNK        -0.5000 
     55 C           4.5107  -12.3084  -42.4327 C.2       3 UNK         0.5000 
     56 O           5.1569  -11.5427  -41.7164 O.2       3 UNK        -0.5000 
     57 CA          4.4721  -12.0648  -43.9586 C.3       3 UNK         0.1400 
     58 CB          5.4986  -12.9502  -44.6914 C.3       3 UNK        -0.1800 
     59 N           3.1312  -12.1749  -44.5569 N.am      3 UNK        -0.5000 
     60 C           2.3594  -13.2644  -44.6801 C.2       2 UNK         0.5000 
     61 O           2.7102  -14.4003  -44.3686 O.2       2 UNK        -0.5000 
     62 CA          0.9350  -13.0377  -45.2083 C.3       2 UNK         0.1400 
     63 CB          0.1108  -12.1990  -44.2156 C.3       2 UNK        -0.1800 
     64 N           0.8714  -12.4155  -46.5293 N.am      2 UNK        -0.5000 
     65 C           1.4350  -12.8815  -47.6543 C.2       1 UNK         0.5000 
     66 O           2.2021  -13.8432  -47.7001 O.2       1 UNK        -0.5000 
     67 C          -2.1587  -21.0040  -47.2426 C.2       11 UNK         0.5000 
     68 O          -2.4597  -21.6643  -48.2396 O.2       11 UNK        -0.5000 
     69 N          -3.0293  -20.6483  -46.2870 N.am      12 UNK        -0.5000 
     70 CA         -4.4483  -20.9990  -46.2801 C.3       12 UNK         0.1400 
     71 CB         -5.1603  -20.2269  -45.1593 C.3       12 UNK        -0.1800 
     72 C          -4.6919  -22.5141  -46.1504 C.2       12 UNK         0.5000 
     73 O          -5.4638  -23.0695  -46.9331 O.2       12 UNK        -0.5000 
     74 N          -4.0078  -23.1623  -45.1957 N.am      13 UNK        -0.5000 
     75 CA         -4.0915  -24.6027  -44.9278 C.3       13 UNK         0.1400 
     76 CB         -3.2846  -24.9389  -43.6651 C.3       13 UNK        -0.1800 
     77 C          -3.6273  -25.4758  -46.1079 C.2       13 UNK         0.5000 
     78 O          -4.1764  -26.5573  -46.3188 O.2       13 UNK        -0.5000 
     79 N          -2.6596  -24.9694  -46.8815 N.am      14 UNK        -0.5000 
     80 CA         -2.1620  -25.5639  -48.1206 C.3       14 UNK         0.1400 
     81 CB         -0.7395  -25.0395  -48.3768 C.3       14 UNK        -0.1800 
     82 C          -3.0756  -25.3157  -49.3408 C.2       14 UNK         0.5000 
     83 O          -2.6584  -25.6200  -50.4567 O.2       14 UNK        -0.5000 
     84 N          -4.2799  -24.7587  -49.1373 N.am      15 UNK        -0.5000 
     85 CA         -5.2813  -24.4282  -50.1577 C.3       15 UNK         0.1400 
     86 CB         -5.8181  -25.7000  -50.8485 C.3       15 UNK        -0.1800 
     87 C          -4.7570  -23.3756  -51.1517 C.2       15 UNK         0.5000 
     88 O          -4.8500  -23.5614  -52.3681 O.2       15 UNK        -0.5000 
     89 N          -4.1989  -22.2940  -50.5904 N.am      16 UNK        -0.5000 
     90 CA         -3.5125  -21.1958  -51.2689 C.3       16 UNK         0.1400 
     91 CB         -4.4153  -20.5258  -52.3224 C.3       16 UNK        -0.1800 
     92 C          -2.1573  -21.6623  -51.8264 C.2       16 UNK         0.5000 
     93 O          -1.9356  -21.6218  -53.0362 O.2       16 UNK        -0.5000 
     94 N          -1.2861  -22.1230  -50.9169 N.am      17 UNK        -0.5000 
     95 CA          0.1061  -22.5303  -51.1588 C.3       17 UNK         0.1400 
     96 CB          0.9781  -21.2897  -51.4420 C.3       17 UNK        -0.1800 
     97 C           0.2635  -23.6236  -52.2400 C.2       17 UNK         0.5000 
     98 O           1.1820  -23.5566  -53.0585 O.2       17 UNK        -0.5000 
     99 N          -0.6541  -24.6011  -52.2309 N.am      18 UNK        -0.5000 
    100 CA        -0.7678  -25.7374  -53.1519 C.3       18 UNK         0.1400 
    101 CB         0.4827  -26.6391  -53.0848 C.3       18 UNK        -0.1800 
    102 C         -1.1495  -25.3596  -54.5993 C.2       18 UNK         0.5000 
    103 O         -1.1085  -26.2271  -55.4734 O.2       18 UNK        -0.5000 
    104 N         -1.5493  -24.1017  -54.8400 N.am      19 UNK        -0.5000 
    105 CA        -2.0125  -23.6265  -56.1461 C.3       19 UNK         0.1400 
    106 CB        -1.7894  -22.1108  -56.2415 C.3       19 UNK        -0.1800 
    107 C         -3.4878  -23.9780  -56.4245 C.2       19 UNK         0.5000 
    108 O         -3.9156  -23.8562  -57.5719 O.2       19 UNK        -0.5000 
    109 N         -4.2242  -24.4053  -55.3851 N.am      20 UNK        -0.5000 
    110 CA        -5.6478  -24.7535  -55.3749 C.3       20 UNK         0.1400 
    111 CB        -5.9529  -25.9313  -56.3249 C.3       20 UNK        -0.1800 
    112 C         -6.5186  -23.5106  -55.6334 C.2       20 UNK         0.5000 
    113 O         -7.1287  -23.3826  -56.6962 O.2       20 UNK        -0.5000 
    114 N         -6.5304  -22.6141  -54.6370 N.am      21 UNK        -0.5000 
    115 CA        -7.2241  -21.3188  -54.6164 C.3       21 UNK         0.1400 
    116 CB        -8.7517  -21.4893  -54.7628 C.3       21 UNK        -0.1800 
    117 C         -6.6183  -20.2964  -55.6040 C.2       21 UNK         0.5000 
    118 O         -7.3531  -19.5523  -56.2566 O.2       21 UNK        -0.5000 
    119 N         -5.2794  -20.2675  -55.6521 N.am      22 UNK        -0.5000 
    120 CA        -4.4235  -19.3708  -56.4501 C.3       22 UNK         0.1400 
    121 C         -4.4159  -19.6886  -57.9753 C.2       22 UNK         0.5000 
    122 N         -3.4766  -19.1226  -58.7223 N.am      22 UNK        -0.7600 
    123 O         -5.2335  -20.4399  -58.5000 O.2       22 UNK        -0.5000 
    124 C124       -4.6607  -17.8553  -56.1804 C.3       23 UNK        -0.0398 
    125 S125       -4.6394  -17.3924  -54.4137 S.3       23 UNK        -0.2404 
    126 C126       -2.8601  -17.1686  -54.0971 C.3       23 UNK        -0.0205 
    127 H127        1.2543   -7.7162  -49.0074 H         1 UNK         0.0600 
    128 H128        0.9223   -8.0278  -47.3001 H         1 UNK         0.0600 
    129 H129       -0.2888   -8.4244  -48.5227 H         1 UNK         0.0600 
    130 H130       -0.3850  -10.6070  -48.9658 H         1 UNK         0.3000 
    131 H131        1.8705  -12.1990  -49.6393 H         1 UNK         0.0600 
    132 H132       -0.9359  -13.1536  -48.9067 H         1 UNK         0.0800 
    133 H133        0.2551  -14.0683  -49.8018 H         1 UNK         0.0800 
    134 H134       -3.0486  -12.6347  -51.9265 H         1 UNK         0.0800 
    135 H135       -2.9505  -12.8094  -50.1965 H         1 UNK         0.0800 
    136 H136       -2.7460  -14.5389  -53.4206 H         1 UNK         0.1150 
    137 H137       -2.4457  -18.4598  -51.7124 H         1 UNK         0.1150 
    138 H138       -2.2516  -15.0142  -49.1891 H         1 UNK         0.1150 
    139 H139       -2.3035  -17.1397  -48.1884 H         1 UNK         0.0800 
    140 H140       -3.0100  -18.4612  -49.0831 H         1 UNK         0.0800 
    141 H141       -1.1218  -18.4625  -46.7002 H         1 UNK         0.0800 
    142 H142        0.5480  -18.8098  -47.0064 H         1 UNK         0.0800 
    143 H143       -0.0795  -21.1621  -47.7212 H         1 UNK         0.0600 
    144 H144        0.1279  -20.1836  -45.1043 H         1 UNK         0.3000 
    145 H145       -0.1978  -23.2708  -43.3076 H         1 UNK         0.0600 
    146 H146        1.9894  -22.4734  -42.4750 H         1 UNK         0.0600 
    147 H147        2.1556  -23.0880  -44.1125 H         1 UNK         0.0600 
    148 H148        2.1330  -21.3528  -43.8271 H         1 UNK         0.0600 
    149 H149        0.2235  -20.6463  -42.3473 H         1 UNK         0.3000 
    150 H150       -3.2467  -19.7230  -42.0102 H         1 UNK         0.0600 
    151 H151       -2.5703  -21.0496  -40.0060 H         1 UNK         0.0600 
    152 H152       -2.4175  -19.3237  -39.7147 H         1 UNK         0.0600 
    153 H153       -0.9816  -20.2953  -40.0274 H         1 UNK         0.0600 
    154 H154       -0.9101  -18.2305  -41.4561 H         1 UNK         0.3000 
    155 H155       -0.5147  -16.7250  -44.6996 H         1 UNK         0.0600 
    156 H156       -1.3445  -15.7454  -41.9131 H         1 UNK         0.0600 
    157 H157       -2.1586  -15.3811  -43.4303 H         1 UNK         0.0600 
    158 H158       -0.5377  -14.7705  -43.1308 H         1 UNK         0.0600 
    159 H159        1.0681  -16.4818  -42.3701 H         1 UNK         0.3000 
    160 H160        3.2574  -19.2663  -42.9558 H         1 UNK         0.0600 
    161 H161        3.7462  -16.2512  -42.8818 H         1 UNK         0.0600 
    162 H162        4.0935  -17.2702  -44.2719 H         1 UNK         0.0600 
    163 H163        4.9469  -17.5301  -42.7571 H         1 UNK         0.0600 
    164 H164        2.9973  -17.2931  -40.8608 H         1 UNK         0.3000 
    165 H165        0.9876  -19.2858  -38.7021 H         1 UNK         0.0600 
    166 H166        2.9292  -18.9703  -37.1934 H         1 UNK         0.0600 
    167 H167        3.2949  -20.1941  -38.3989 H         1 UNK         0.0600 
    168 H168        3.9687  -18.5768  -38.5631 H         1 UNK         0.0600 
    169 H169        2.2983  -16.7548  -38.3887 H         1 UNK         0.3000 
    170 H170       -0.3507  -14.7344  -39.6584 H         1 UNK         0.0600 
    171 H171       -1.0023  -15.3211  -37.3164 H         1 UNK         0.0600 
    172 H172        0.6777  -15.1991  -36.8075 H         1 UNK         0.0600 
    173 H173       -0.1805  -13.7709  -37.3864 H         1 UNK         0.0600 
    174 H174        2.1028  -13.9880  -38.4758 H         1 UNK         0.3000 
    175 H175        3.5262  -12.7788  -39.9605 H         1 UNK         0.0600 
    176 H176        4.8558  -15.4756  -40.6479 H         1 UNK         0.0600 
    177 H177        5.7066  -14.0240  -40.1264 H         1 UNK         0.0600 
    178 H178        4.6208  -14.8476  -39.0200 H         1 UNK         0.0600 
    179 H179        3.2794  -13.9076  -42.6209 H         1 UNK         0.3000 
    180 H180        4.7730  -11.0276  -44.1141 H         1 UNK         0.0600 
    181 H181        5.3027  -14.0129  -44.5461 H         1 UNK         0.0600 
    182 H182        6.5076  -12.7554  -44.3261 H         1 UNK         0.0600 
    183 H183        5.4959  -12.7520  -45.7632 H         1 UNK         0.0600 
    184 H184        2.7279  -11.2961  -44.8496 H         1 UNK         0.3000 
    185 H185        0.4652  -14.0199  -45.2911 H         1 UNK         0.0600 
    186 H186        0.2191  -12.5703  -43.1955 H         1 UNK         0.0600 
    187 H187        0.4212  -11.1536  -44.2120 H         1 UNK         0.0600 
    188 H188       -0.9507  -12.2311  -44.4615 H         1 UNK         0.0600 
    189 H189        0.2685  -11.6103  -46.6135 H         1 UNK         0.3000 
    190 H190       -2.6961  -20.0957  -45.5027 H         1 UNK         0.3000 
    191 H191       -4.8733  -20.6769  -47.2330 H         1 UNK         0.0600 
    192 H192       -4.7560  -20.4745  -44.1774 H         1 UNK         0.0600 
    193 H193       -6.2268  -20.4546  -45.1437 H         1 UNK         0.0600 
    194 H194       -5.0585  -19.1504  -45.2981 H         1 UNK         0.0600 
    195 H195       -3.4101  -22.6254  -44.5699 H         1 UNK         0.3000 
    196 H196       -5.1394  -24.8416  -44.7360 H         1 UNK         0.0600 
    197 H197       -3.3412  -26.0035  -43.4347 H         1 UNK         0.0600 
    198 H198       -3.6655  -24.3988  -42.7982 H         1 UNK         0.0600 
    199 H199       -2.2313  -24.6830  -43.7840 H         1 UNK         0.0600 
    200 H200       -2.2191  -24.1006  -46.5957 H         1 UNK         0.3000 
    201 H201       -2.1008  -26.6459  -47.9892 H         1 UNK         0.0600 
    202 H202       -0.0730  -25.3005  -47.5547 H         1 UNK         0.0600 
    203 H203       -0.7321  -23.9545  -48.4767 H         1 UNK         0.0600 
    204 H204       -0.3093  -25.4643  -49.2845 H         1 UNK         0.0600 
    205 H205       -4.5266  -24.4876  -48.1925 H         1 UNK         0.3000 
    206 H206       -6.1161  -23.9644  -49.6305 H         1 UNK         0.0600 
    207 H207       -6.6476  -25.4591  -51.5142 H         1 UNK         0.0600 
    208 H208       -6.1868  -26.4192  -50.1173 H         1 UNK         0.0600 
    209 H209       -5.0539  -26.1939  -51.4493 H         1 UNK         0.0600 
    210 H210       -4.1112  -22.2818  -49.5814 H         1 UNK         0.3000 
    211 H211       -3.2959  -20.4470  -50.5069 H         1 UNK         0.0600 
    212 H212       -3.9298  -19.6589  -52.7613 H         1 UNK         0.0600 
    213 H213       -5.3560  -20.1901  -51.8869 H         1 UNK         0.0600 
    214 H214       -4.6368  -21.1968  -53.1468 H         1 UNK         0.0600 
    215 H215       -1.5913  -22.1252  -49.9480 H         1 UNK         0.3000 
    216 H216        0.4689  -22.9726  -50.2313 H         1 UNK         0.0600 
    217 H217        2.0295  -21.5605  -51.5450 H         1 UNK         0.0600 
    218 H218        0.9149  -20.5706  -50.6271 H         1 UNK         0.0600 
    219 H219        0.6769  -20.7847  -52.3604 H         1 UNK         0.0600 
    220 H220       -1.3782  -24.5828  -51.5189 H         1 UNK         0.3000 
    221 H221       -1.6059  -26.3293  -52.7829 H         1 UNK         0.0600 
    222 H222        1.3574  -26.1568  -53.5213 H         1 UNK         0.0600 
    223 H223        0.7222  -26.9040  -52.0549 H         1 UNK         0.0600 
    224 H224        0.3224  -27.5710  -53.6279 H         1 UNK         0.0600 
    225 H225       -1.5543  -23.4249  -54.0840 H         1 UNK         0.3000 
    226 H226       -1.4114  -24.0981  -56.9264 H         1 UNK         0.0600 
    227 H227       -0.7522  -21.8474  -56.0332 H         1 UNK         0.0600 
    228 H228       -2.0264  -21.7428  -57.2405 H         1 UNK         0.0600 
    229 H229       -2.4207  -21.5741  -55.5361 H         1 UNK         0.0600 
    230 H230       -3.7783  -24.4186  -54.4777 H         1 UNK         0.3000 
    231 H231       -5.8749  -25.0965  -54.3643 H         1 UNK         0.0600 
    232 H232       -5.3285  -26.7943  -56.0939 H         1 UNK         0.0600 
    233 H233       -5.7928  -25.6728  -57.3717 H         1 UNK         0.0600 
    234 H234       -6.9924  -26.2458  -56.2259 H         1 UNK         0.0600 
    235 H235       -5.9813  -22.8366  -53.8101 H         1 UNK         0.3000 
    236 H236       -7.0530  -20.9055  -53.6220 H         1 UNK         0.0600 
    237 H237       -9.2666  -20.5460  -54.5773 H         1 UNK         0.0600 
    238 H238       -9.0332  -21.8194  -55.7628 H         1 UNK         0.0600 
    239 H239       -9.1385  -22.2147  -54.0471 H         1 UNK         0.0600 
    240 H240       -4.7838  -20.9504  -55.1007 H         1 UNK         0.3000 
    241 H241       -3.4125  -19.5900  -56.1093 H         1 UNK         0.0600 
    242 H242       -3.4594  -19.3214  -59.7108 H         1 UNK         0.3800 
    243 H243       -2.7753  -18.5121  -58.3329 H         1 UNK         0.3800 
    244 H244       -3.9166  -17.2492  -56.6986 H         1 UNK         0.0800 
    245 H245       -5.6238  -17.5478  -56.5901 H         1 UNK         0.0800 
    246 H246       -2.4276  -16.5189  -54.8594 H         1 UNK         0.0800 
    247 H247       -2.3497  -18.1297  -54.1783 H         1 UNK         0.0800 
@<TRIPOS>BOND
     1    1    2 1    
     2    1  127 1    
     3    1  128 1    
     4    1  129 1    
     5    2    3 2    
     6    2    4 am   BACKBONE|DICT|INTERRES
     7    4    5 1    
     8    4  130 1    
     9    5    6 1    
    10    5   65 1    
    11    5  131 1    
    12    6    7 1    
    13    6  132 1    
    14    6  133 1    
    15    7    8 1    
    16    8    9 1    
    17    8  134 1    
    18    8  135 1    
    19    9   10 ar   
    20    9   14 ar   
    21   10   11 ar   
    22   10  136 1    
    23   11   12 ar   
    24   11  126 1    
    25   12   13 ar   
    26   12  137 1    
    27   13   14 ar   
    28   13   15 1    
    29   14  138 1    
    30   15   16 1    
    31   15  139 1    
    32   15  140 1    
    33   16   17 1    
    34   17   18 1    
    35   17  141 1    
    36   17  142 1    
    37   18   19 1    
    38   18   67 1    
    39   18  143 1    
    40   19   20 am   BACKBONE|DICT|INTERRES
    41   19  144 1    
    42   20   21 2    
    43   20   22 1    
    44   22   23 1    
    45   22   24 1    
    46   22  145 1    
    47   23  146 1    
    48   23  147 1    
    49   23  148 1    
    50   24   25 am   BACKBONE|DICT|INTERRES
    51   24  149 1    
    52   25   26 2    
    53   25   27 1    
    54   27   28 1    
    55   27   29 1    
    56   27  150 1    
    57   28  151 1    
    58   28  152 1    
    59   28  153 1    
    60   29   30 am   BACKBONE|DICT|INTERRES
    61   29  154 1    
    62   30   31 2    
    63   30   32 1    
    64   32   33 1    
    65   32   34 1    
    66   32  155 1    
    67   33  156 1    
    68   33  157 1    
    69   33  158 1    
    70   34   35 am   BACKBONE|DICT|INTERRES
    71   34  159 1    
    72   35   36 2    
    73   35   37 1    
    74   37   38 1    
    75   37   39 1    
    76   37  160 1    
    77   38  161 1    
    78   38  162 1    
    79   38  163 1    
    80   39   40 am   BACKBONE|DICT|INTERRES
    81   39  164 1    
    82   40   41 2    
    83   40   42 1    
    84   42   43 1    
    85   42   44 1    
    86   42  165 1    
    87   43  166 1    
    88   43  167 1    
    89   43  168 1    
    90   44   45 am   BACKBONE|DICT|INTERRES
    91   44  169 1    
    92   45   46 2    
    93   45   47 1    
    94   47   48 1    
    95   47   49 1    
    96   47  170 1    
    97   48  171 1    
    98   48  172 1    
    99   48  173 1    
   100   49   50 am   BACKBONE|DICT|INTERRES
   101   49  174 1    
   102   50   51 2    
   103   50   52 1    
   104   52   53 1    
   105   52   54 1    
   106   52  175 1    
   107   53  176 1    
   108   53  177 1    
   109   53  178 1    
   110   54   55 am   BACKBONE|DICT|INTERRES
   111   54  179 1    
   112   55   56 2    
   113   55   57 1    
   114   57   58 1    
   115   57   59 1    
   116   57  180 1    
   117   58  181 1    
   118   58  182 1    
   119   58  183 1    
   120   59   60 am   BACKBONE|DICT|INTERRES
   121   59  184 1    
   122   60   61 2    
   123   60   62 1    
   124   62   63 1    
   125   62   64 1    
   126   62  185 1    
   127   63  186 1    
   128   63  187 1    
   129   63  188 1    
   130   64   65 am   BACKBONE|DICT|INTERRES
   131   64  189 1    
   132   65   66 2    
   133   67   68 2    
   134   67   69 am   BACKBONE|DICT|INTERRES
   135   69   70 1    
   136   69  190 1    
   137   70   71 1    
   138   70   72 1    
   139   70  191 1    
   140   71  192 1    
   141   71  193 1    
   142   71  194 1    
   143   72   73 2    
   144   72   74 am   BACKBONE|DICT|INTERRES
   145   74   75 1    
   146   74  195 1    
   147   75   76 1    
   148   75   77 1    
   149   75  196 1    
   150   76  197 1    
   151   76  198 1    
   152   76  199 1    
   153   77   78 2    
   154   77   79 am   BACKBONE|DICT|INTERRES
   155   79   80 1    
   156   79  200 1    
   157   80   81 1    
   158   80   82 1    
   159   80  201 1    
   160   81  202 1    
   161   81  203 1    
   162   81  204 1    
   163   82   83 2    
   164   82   84 am   BACKBONE|DICT|INTERRES
   165   84   85 1    
   166   84  205 1    
   167   85   86 1    
   168   85   87 1    
   169   85  206 1    
   170   86  207 1    
   171   86  208 1    
   172   86  209 1    
   173   87   88 2    
   174   87   89 am   BACKBONE|DICT|INTERRES
   175   89   90 1    
   176   89  210 1    
   177   90   91 1    
   178   90   92 1    
   179   90  211 1    
   180   91  212 1    
   181   91  213 1    
   182   91  214 1    
   183   92   93 2    
   184   92   94 am   BACKBONE|DICT|INTERRES
   185   94   95 1    
   186   94  215 1    
   187   95   96 1    
   188   95   97 1    
   189   95  216 1    
   190   96  217 1    
   191   96  218 1    
   192   96  219 1    
   193   97   98 2    
   194   97   99 am   BACKBONE|DICT|INTERRES
   195   99  100 1    
   196   99  220 1    
   197  100  101 1    
   198  100  102 1    
   199  100  221 1    
   200  101  222 1    
   201  101  223 1    
   202  101  224 1    
   203  102  103 2    
   204  102  104 am   BACKBONE|DICT|INTERRES
   205  104  105 1    
   206  104  225 1    
   207  105  106 1    
   208  105  107 1    
   209  105  226 1    
   210  106  227 1    
   211  106  228 1    
   212  106  229 1    
   213  107  108 2    
   214  107  109 am   BACKBONE|DICT|INTERRES
   215  109  110 1    
   216  109  230 1    
   217  110  111 1    
   218  110  112 1    
   219  110  231 1    
   220  111  232 1    
   221  111  233 1    
   222  111  234 1    
   223  112  113 2    
   224  112  114 am   BACKBONE|DICT|INTERRES
   225  114  115 1    
   226  114  235 1    
   227  115  116 1    
   228  115  117 1    
   229  115  236 1    
   230  116  237 1    
   231  116  238 1    
   232  116  239 1    
   233  117  118 2    
   234  117  119 am   BACKBONE|DICT|INTERRES
   235  119  120 1    
   236  119  240 1    
   237  120  121 1    
   238  120  124 1    
   239  120  241 1    
   240  121  122 am   BACKBONE|DICT|INTERRES
   241  121  123 2    
   242  122  242 1    
   243  122  243 1    
   244  124  125 1    
   245  124  244 1    
   246  124  245 1    
   247  125  126 1    
   248  126  246 1    
   249  126  247 1    
@<TRIPOS>SUBSTRUCTURE
     1 UNK         1 GROUP             0       ****    0 ROOT    
