@<TRIPOS>MOLECULE
3R540
247   249    1
SMALL
USER_CHARGES


@<TRIPOS>ATOM
      1 CA         -3.8470  -15.5735  -44.2222 C.3       0 UNK        -0.1800 
      2 C          -3.3471  -14.6235  -45.3006 C.2       0 UNK         0.5000 
      3 O          -4.1098  -13.7835  -45.7792 O.2       0 UNK        -0.5000 
      4 N          -2.0692  -14.7389  -45.6785 N.am      1 UNK        -0.5000 
      5 CA         -1.4224  -13.9229  -46.7121 C.3       1 UNK         0.1400 
      6 C6         -0.3500  -14.7184  -47.4956 C.3       23 UNK        -0.0398 
      7 S7         -1.1081  -16.0691  -48.4615 S.3       23 UNK        -0.2404 
      8 C8          0.0260  -16.1912  -49.8766 C.3       23 UNK        -0.0205 
      9 C9         -0.4588  -17.2435  -50.8606 C.ar      23 UNK        -0.0193 
     10 C10        -1.3348  -16.8839  -51.8884 C.ar      23 UNK        -0.1150 
     11 C11        -1.8035  -17.8421  -52.7900 C.ar      23 UNK        -0.0193 
     12 C12        -1.3985  -19.1717  -52.6490 C.ar      23 UNK        -0.1150 
     13 C13        -0.5158  -19.5459  -51.6317 C.ar      23 UNK        -0.0193 
     14 C14        -0.0429  -18.5741  -50.7430 C.ar      23 UNK        -0.1150 
     15 C15        -0.0593  -20.9943  -51.5179 C.3       23 UNK        -0.0205 
     16 S16        -1.1129  -21.9759  -50.4063 S.3       23 UNK        -0.2404 
     17 C17        -0.3903  -21.5298  -48.7955 C.3       23 UNK        -0.0398 
     18 CA         -0.9704  -22.3161  -47.5988 C.3       11 UNK         0.1400 
     19 N          -0.0797  -22.2447  -46.4286 N.am      11 UNK        -0.5000 
     20 C          -0.2702  -22.8910  -45.2667 C.2       10 UNK         0.5000 
     21 O          -1.2625  -23.5869  -45.0492 O.2       10 UNK        -0.5000 
     22 CA          0.7513  -22.6932  -44.1278 C.3       10 UNK         0.1400 
     23 CB          1.2373  -24.0385  -43.5525 C.3       10 UNK        -0.1800 
     24 N           1.8688  -21.7986  -44.4467 N.am      10 UNK        -0.5000 
     25 C           2.9109  -22.0141  -45.2637 C.2       9 UNK         0.5000 
     26 O           3.0998  -23.0625  -45.8817 O.2       9 UNK        -0.5000 
     27 CA          3.8657  -20.8131  -45.4446 C.3       9 UNK         0.1400 
     28 CB          4.8869  -21.0089  -46.5841 C.3       9 UNK        -0.1800 
     29 N           3.1294  -19.5548  -45.6117 N.am      9 UNK        -0.5000 
     30 C           2.2279  -19.2727  -46.5660 C.2       8 UNK         0.5000 
     31 O           1.9701  -20.0269  -47.5009 O.2       8 UNK        -0.5000 
     32 CA          1.4178  -17.9706  -46.4297 C.3       8 UNK         0.1400 
     33 CB         -0.0350  -18.3034  -46.0516 C.3       8 UNK        -0.1800 
     34 N           1.9723  -17.0507  -45.4384 N.am      8 UNK        -0.5000 
     35 C           3.0653  -16.3006  -45.6317 C.2       7 UNK         0.5000 
     36 O           3.6695  -16.2354  -46.7023 O.2       7 UNK        -0.5000 
     37 CA          3.5911  -15.5183  -44.4156 C.3       7 UNK         0.1400 
     38 CB          3.1170  -14.0638  -44.4646 C.3       7 UNK        -0.1800 
     39 N           3.2005  -16.1114  -43.1333 N.am      7 UNK        -0.5000 
     40 C           3.6896  -17.2687  -42.6639 C.2       6 UNK         0.5000 
     41 O           4.5320  -17.9451  -43.2544 O.2       6 UNK        -0.5000 
     42 CA          3.0783  -17.7938  -41.3542 C.3       6 UNK         0.1400 
     43 CB          3.5337  -16.9505  -40.1532 C.3       6 UNK        -0.1800 
     44 N           1.6175  -17.8188  -41.4063 N.am      6 UNK        -0.5000 
     45 C           0.8860  -18.5631  -42.2486 C.2       5 UNK         0.5000 
     46 O           1.3693  -19.3675  -43.0453 O.2       5 UNK        -0.5000 
     47 CA         -0.6413  -18.3636  -42.2211 C.3       5 UNK         0.1400 
     48 CB         -1.3305  -19.5383  -41.5117 C.3       5 UNK        -0.1800 
     49 N          -1.0464  -17.1093  -41.5870 N.am      5 UNK        -0.5000 
     50 C          -0.8843  -15.8926  -42.1239 C.2       4 UNK         0.5000 
     51 O          -0.4427  -15.7094  -43.2627 O.2       4 UNK        -0.5000 
     52 CA         -1.3239  -14.7032  -41.2410 C.3       4 UNK         0.1400 
     53 CB         -1.0610  -14.9413  -39.7366 C.3       4 UNK        -0.1800 
     54 N          -0.7503  -13.4170  -41.6414 N.am      4 UNK        -0.5000 
     55 C           0.5437  -13.0750  -41.7144 C.2       3 UNK         0.5000 
     56 O           1.4802  -13.8550  -41.5213 O.2       3 UNK        -0.5000 
     57 CA          0.8040  -11.5923  -42.0553 C.3       3 UNK         0.1400 
     58 CB          2.2923  -11.2095  -42.1185 C.3       3 UNK        -0.1800 
     59 N           0.1591  -11.2184  -43.3138 N.am      3 UNK        -0.5000 
     60 C          -1.1035  -10.7979  -43.4444 C.2       2 UNK         0.5000 
     61 O          -1.8771  -10.6687  -42.4949 O.2       2 UNK        -0.5000 
     62 CA         -1.6058  -10.5316  -44.8738 C.3       2 UNK         0.1400 
     63 CB         -0.7290   -9.5136  -45.6319 C.3       2 UNK        -0.1800 
     64 N          -1.7921  -11.7733  -45.6299 N.am      2 UNK        -0.5000 
     65 C          -0.8670  -12.6448  -46.0567 C.2       1 UNK         0.5000 
     66 O           0.3477  -12.4915  -45.9161 O.2       1 UNK        -0.5000 
     67 C          -2.4127  -21.8652  -47.2834 C.2       11 UNK         0.5000 
     68 O          -3.3620  -22.4374  -47.8197 O.2       11 UNK        -0.5000 
     69 N          -2.5520  -20.8925  -46.3714 N.am      12 UNK        -0.5000 
     70 CA         -3.8254  -20.3811  -45.8608 C.3       12 UNK         0.1400 
     71 CB         -3.5513  -19.1403  -45.0001 C.3       12 UNK        -0.1800 
     72 C          -4.6502  -21.4178  -45.0717 C.2       12 UNK         0.5000 
     73 O          -5.8655  -21.2556  -44.9679 O.2       12 UNK        -0.5000 
     74 N          -3.9919  -22.4588  -44.5465 N.am      13 UNK        -0.5000 
     75 CA         -4.6301  -23.5895  -43.8771 C.3       13 UNK         0.1400 
     76 CB         -3.8383  -23.9346  -42.6052 C.3       13 UNK        -0.1800 
     77 C          -4.7071  -24.8059  -44.8145 C.2       13 UNK         0.5000 
     78 O          -5.7461  -25.4639  -44.8699 O.2       13 UNK        -0.5000 
     79 N          -3.6065  -25.0883  -45.5252 N.am      14 UNK        -0.5000 
     80 CA         -3.4315  -26.2824  -46.3507 C.3       14 UNK         0.1400 
     81 CB         -1.9385  -26.4552  -46.6703 C.3       14 UNK        -0.1800 
     82 C          -4.2602  -26.2831  -47.6474 C.2       14 UNK         0.5000 
     83 O          -4.7433  -27.3446  -48.0442 O.2       14 UNK        -0.5000 
     84 N          -4.3948  -25.1168  -48.2916 N.am      15 UNK        -0.5000 
     85 CA         -5.0407  -24.9666  -49.5998 C.3       15 UNK         0.1400 
     86 CB         -3.9496  -24.8930  -50.6826 C.3       15 UNK        -0.1800 
     87 C          -5.9810  -23.7487  -49.6603 C.2       15 UNK         0.5000 
     88 O          -6.4578  -23.4114  -50.7437 O.2       15 UNK        -0.5000 
     89 N          -6.2219  -23.1010  -48.5098 N.am      16 UNK        -0.5000 
     90 CA         -7.0082  -21.8732  -48.3320 C.3       16 UNK         0.1400 
     91 CB         -8.4973  -22.1252  -48.6505 C.3       16 UNK        -0.1800 
     92 C          -6.4307  -20.6534  -49.0873 C.2       16 UNK         0.5000 
     93 O          -7.1854  -19.7469  -49.4424 O.2       16 UNK        -0.5000 
     94 N          -5.1051  -20.6560  -49.3094 N.am      17 UNK        -0.5000 
     95 CA         -4.3255  -19.6798  -50.0801 C.3       17 UNK         0.1400 
     96 CB         -4.2060  -18.3429  -49.3200 C.3       17 UNK        -0.1800 
     97 C          -4.8573  -19.5236  -51.5199 C.2       17 UNK         0.5000 
     98 O          -5.1674  -18.4144  -51.9581 O.2       17 UNK        -0.5000 
     99 N          -4.9887  -20.6570  -52.2166 N.am      18 UNK        -0.5000 
    100 CA        -5.5179  -20.7628  -53.5699 C.3       18 UNK         0.1400 
    101 CB        -7.0574  -20.7616  -53.5183 C.3       18 UNK        -0.1800 
    102 C         -4.9893  -22.0468  -54.2253 C.2       18 UNK         0.5000 
    103 O         -4.4731  -22.9247  -53.5291 O.2       18 UNK        -0.5000 
    104 N         -5.1535  -22.1323  -55.5532 N.am      19 UNK        -0.5000 
    105 CA        -4.8333  -23.2474  -56.4563 C.3       19 UNK         0.1400 
    106 CB        -5.6377  -24.5119  -56.0949 C.3       19 UNK        -0.1800 
    107 C         -3.3295  -23.5569  -56.5918 C.2       19 UNK         0.5000 
    108 O         -2.8053  -23.5414  -57.7066 O.2       19 UNK        -0.5000 
    109 N         -2.6656  -23.8326  -55.4664 N.am      20 UNK        -0.5000 
    110 CA        -1.2251  -24.0428  -55.3678 C.3       20 UNK         0.1400 
    111 CB        -0.9292  -24.7812  -54.0525 C.3       20 UNK        -0.1800 
    112 C         -0.4759  -22.7006  -55.4020 C.2       20 UNK         0.5000 
    113 O         -1.0010  -21.7077  -54.8971 O.2       20 UNK        -0.5000 
    114 N          0.7485  -22.7182  -55.9504 N.am      21 UNK        -0.5000 
    115 CA         1.7281  -21.6242  -55.9947 C.3       21 UNK         0.1400 
    116 CB         2.4771  -21.5465  -54.6459 C.3       21 UNK        -0.1800 
    117 C          1.1260  -20.2775  -56.4584 C.2       21 UNK         0.5000 
    118 O          0.6927  -20.1809  -57.6080 O.2       21 UNK        -0.5000 
    119 N          1.1029  -19.2801  -55.5627 N.am      22 UNK        -0.5000 
    120 CA         0.5204  -17.9422  -55.7619 C.3       22 UNK         0.1400 
    121 C          1.3085  -17.0277  -56.7533 C.2       22 UNK         0.5000 
    122 N          2.5658  -17.3230  -57.0617 N.am      22 UNK        -0.7600 
    123 O          0.7931  -16.0229  -57.2355 O.2       22 UNK        -0.5000 
    124 C124       -1.0093  -18.0051  -56.0492 C.3       23 UNK        -0.0398 
    125 S125       -1.9312  -16.6230  -55.2901 S.3       23 UNK        -0.2404 
    126 C126       -2.7689  -17.4424  -53.8964 C.3       23 UNK        -0.0205 
    127 H127       -3.1213  -16.3568  -44.0061 H         1 UNK         0.0600 
    128 H128       -4.7713  -16.0526  -44.5449 H         1 UNK         0.0600 
    129 H129       -4.0491  -15.0257  -43.3023 H         1 UNK         0.0600 
    130 H130       -1.4572  -15.3643  -45.1680 H         1 UNK         0.3000 
    131 H131       -2.1701  -13.5997  -47.4403 H         1 UNK         0.0600 
    132 H132        0.3979  -15.1333  -46.8197 H         1 UNK         0.0800 
    133 H133        0.1847  -14.0579  -48.1804 H         1 UNK         0.0800 
    134 H134        0.0964  -15.2223  -50.3732 H         1 UNK         0.0800 
    135 H135        1.0301  -16.4342  -49.5270 H         1 UNK         0.0800 
    136 H136       -1.6589  -15.8571  -51.9838 H         1 UNK         0.1150 
    137 H137       -1.7731  -19.9181  -53.3334 H         1 UNK         0.1150 
    138 H138        0.6431  -18.8527  -49.9552 H         1 UNK         0.1150 
    139 H139       -0.0869  -21.4649  -52.4991 H         1 UNK         0.0800 
    140 H140        0.9808  -21.0408  -51.1920 H         1 UNK         0.0800 
    141 H141       -0.4870  -20.4551  -48.6391 H         1 UNK         0.0800 
    142 H142        0.6772  -21.7373  -48.8749 H         1 UNK         0.0800 
    143 H143       -1.0202  -23.3689  -47.8821 H         1 UNK         0.0600 
    144 H144        0.7642  -21.6975  -46.5437 H         1 UNK         0.3000 
    145 H145        0.2022  -22.1873  -43.3330 H         1 UNK         0.0600 
    146 H146        1.9417  -23.8871  -42.7347 H         1 UNK         0.0600 
    147 H147        0.4016  -24.6168  -43.1563 H         1 UNK         0.0600 
    148 H148        1.7243  -24.6545  -44.3085 H         1 UNK         0.0600 
    149 H149        1.8080  -20.8838  -44.0014 H         1 UNK         0.3000 
    150 H150        4.4237  -20.7209  -44.5117 H         1 UNK         0.0600 
    151 H151        5.5175  -21.8787  -46.3967 H         1 UNK         0.0600 
    152 H152        5.5448  -20.1446  -46.6746 H         1 UNK         0.0600 
    153 H153        4.3992  -21.1612  -47.5474 H         1 UNK         0.0600 
    154 H154        3.2580  -18.8809  -44.8673 H         1 UNK         0.3000 
    155 H155        1.4189  -17.4741  -47.4008 H         1 UNK         0.0600 
    156 H156       -0.5630  -18.7259  -46.9065 H         1 UNK         0.0600 
    157 H157       -0.5859  -17.4164  -45.7399 H         1 UNK         0.0600 
    158 H158       -0.0868  -19.0348  -45.2467 H         1 UNK         0.0600 
    159 H159        1.5275  -17.0256  -44.5321 H         1 UNK         0.3000 
    160 H160        4.6815  -15.5201  -44.4758 H         1 UNK         0.0600 
    161 H161        2.0392  -13.9857  -44.3169 H         1 UNK         0.0600 
    162 H162        3.3545  -13.5978  -45.4219 H         1 UNK         0.0600 
    163 H163        3.6149  -13.4866  -43.6881 H         1 UNK         0.0600 
    164 H164        2.5083  -15.6059  -42.5921 H         1 UNK         0.3000 
    165 H165        3.4286  -18.8177  -41.2069 H         1 UNK         0.0600 
    166 H166        3.1704  -17.3724  -39.2160 H         1 UNK         0.0600 
    167 H167        4.6221  -16.9142  -40.0921 H         1 UNK         0.0600 
    168 H168        3.1736  -15.9227  -40.2191 H         1 UNK         0.0600 
    169 H169        1.1340  -17.1804  -40.7930 H         1 UNK         0.3000 
    170 H170       -0.9879  -18.3416  -43.2540 H         1 UNK         0.0600 
    171 H171       -1.0861  -20.4855  -41.9939 H         1 UNK         0.0600 
    172 H172       -1.0254  -19.6131  -40.4672 H         1 UNK         0.0600 
    173 H173       -2.4154  -19.4341  -41.5383 H         1 UNK         0.0600 
    174 H174       -1.4373  -17.1821  -40.6586 H         1 UNK         0.3000 
    175 H175       -2.4011  -14.6057  -41.3799 H         1 UNK         0.0600 
    176 H176       -0.0112  -15.1619  -39.5385 H         1 UNK         0.0600 
    177 H177       -1.3290  -14.0627  -39.1493 H         1 UNK         0.0600 
    178 H178       -1.6550  -15.7686  -39.3473 H         1 UNK         0.0600 
    179 H179       -1.4212  -12.6889  -41.8552 H         1 UNK         0.3000 
    180 H180        0.3671  -11.0136  -41.2386 H         1 UNK         0.0600 
    181 H181        2.7669  -11.5772  -43.0250 H         1 UNK         0.0600 
    182 H182        2.8457  -11.5994  -41.2633 H         1 UNK         0.0600 
    183 H183        2.4104  -10.1259  -42.1101 H         1 UNK         0.0600 
    184 H184        0.6680  -11.4277  -44.1660 H         1 UNK         0.3000 
    185 H185       -2.5990  -10.0897  -44.7788 H         1 UNK         0.0600 
    186 H186       -0.6663   -8.5739  -45.0819 H         1 UNK         0.0600 
    187 H187        0.2907   -9.8673  -45.7835 H         1 UNK         0.0600 
    188 H188       -1.1508   -9.2878  -46.6112 H         1 UNK         0.0600 
    189 H189       -2.7587  -12.0551  -45.7512 H         1 UNK         0.3000 
    190 H190       -1.7167  -20.5015  -45.9655 H         1 UNK         0.3000 
    191 H191       -4.4318  -20.0723  -46.7121 H         1 UNK         0.0600 
    192 H192       -3.0380  -18.3680  -45.5730 H         1 UNK         0.0600 
    193 H193       -4.4825  -18.7058  -44.6342 H         1 UNK         0.0600 
    194 H194       -2.9412  -19.3843  -44.1310 H         1 UNK         0.0600 
    195 H195       -2.9953  -22.5404  -44.7057 H         1 UNK         0.3000 
    196 H196       -5.6482  -23.3332  -43.5763 H         1 UNK         0.0600 
    197 H197       -4.2935  -24.7742  -42.0785 H         1 UNK         0.0600 
    198 H198       -3.8178  -23.0907  -41.9155 H         1 UNK         0.0600 
    199 H199       -2.8062  -24.2076  -42.8284 H         1 UNK         0.0600 
    200 H200       -2.7772  -24.5143  -45.3917 H         1 UNK         0.3000 
    201 H201       -3.7479  -27.1447  -45.7599 H         1 UNK         0.0600 
    202 H202       -1.3456  -26.5292  -45.7583 H         1 UNK         0.0600 
    203 H203       -1.5522  -25.6185  -47.2524 H         1 UNK         0.0600 
    204 H204       -1.7642  -27.3646  -47.2467 H         1 UNK         0.0600 
    205 H205       -3.9495  -24.2827  -47.9196 H         1 UNK         0.3000 
    206 H206       -5.6703  -25.8331  -49.8104 H         1 UNK         0.0600 
    207 H207       -3.2838  -25.7547  -50.6359 H         1 UNK         0.0600 
    208 H208       -4.3875  -24.8795  -51.6810 H         1 UNK         0.0600 
    209 H209       -3.3431  -23.9936  -50.5768 H         1 UNK         0.0600 
    210 H210       -5.7763  -23.4579  -47.6773 H         1 UNK         0.3000 
    211 H211       -6.9467  -21.6246  -47.2740 H         1 UNK         0.0600 
    212 H212       -8.6617  -22.2966  -49.7146 H         1 UNK         0.0600 
    213 H213       -9.1093  -21.2704  -48.3604 H         1 UNK         0.0600 
    214 H214       -8.8758  -22.9913  -48.1077 H         1 UNK         0.0600 
    215 H215       -4.5759  -21.4442  -48.9476 H         1 UNK         0.3000 
    216 H216       -3.3186  -20.0857  -50.1713 H         1 UNK         0.0600 
    217 H217       -3.5975  -17.6321  -49.8807 H         1 UNK         0.0600 
    218 H218       -3.7225  -18.4785  -48.3532 H         1 UNK         0.0600 
    219 H219       -5.1786  -17.8804  -49.1517 H         1 UNK         0.0600 
    220 H220       -4.7149  -21.5439  -51.8108 H         1 UNK         0.3000 
    221 H221       -5.1701  -19.9139  -54.1613 H         1 UNK         0.0600 
    222 H222       -7.4352  -21.5964  -52.9260 H         1 UNK         0.0600 
    223 H223       -7.4389  -19.8412  -53.0758 H         1 UNK         0.0600 
    224 H224       -7.4893  -20.8427  -54.5163 H         1 UNK         0.0600 
    225 H225       -5.5639  -21.3343  -56.0178 H         1 UNK         0.3000 
    226 H226       -5.1713  -22.9268  -57.4432 H         1 UNK         0.0600 
    227 H227       -6.7086  -24.3089  -56.0917 H         1 UNK         0.0600 
    228 H228       -5.4596  -25.3060  -56.8210 H         1 UNK         0.0600 
    229 H229       -5.3693  -24.9038  -55.1134 H         1 UNK         0.0600 
    230 H230       -3.1731  -23.7161  -54.5925 H         1 UNK         0.3000 
    231 H231       -0.8961  -24.6629  -56.2043 H         1 UNK         0.0600 
    232 H232       -1.2492  -24.2004  -53.1856 H         1 UNK         0.0600 
    233 H233        0.1386  -24.9743  -53.9424 H         1 UNK         0.0600 
    234 H234       -1.4399  -25.7437  -54.0166 H         1 UNK         0.0600 
    235 H235        1.0633  -23.5836  -56.3659 H         1 UNK         0.3000 
    236 H236        2.4594  -21.8999  -56.7559 H         1 UNK         0.0600 
    237 H237        2.9548  -22.4980  -54.4120 H         1 UNK         0.0600 
    238 H238        3.2662  -20.7940  -54.6734 H         1 UNK         0.0600 
    239 H239        1.8110  -21.3043  -53.8193 H         1 UNK         0.0600 
    240 H240        1.4761  -19.4587  -54.6421 H         1 UNK         0.3000 
    241 H241        0.6501  -17.4609  -54.7919 H         1 UNK         0.0600 
    242 H242        3.0132  -18.1365  -56.6711 H         1 UNK         0.3800 
    243 H243        3.0743  -16.7265  -57.6957 H         1 UNK         0.3800 
    244 H244       -1.2052  -18.0187  -57.1225 H         1 UNK         0.0800 
    245 H245       -1.4287  -18.9385  -55.6713 H         1 UNK         0.0800 
    246 H246       -3.5165  -16.7607  -53.4883 H         1 UNK         0.0800 
    247 H247       -3.3204  -18.3099  -54.2604 H         1 UNK         0.0800 
@<TRIPOS>BOND
     1    1    2 1    
     2    1  127 1    
     3    1  128 1    
     4    1  129 1    
     5    2    3 2    
     6    2    4 am   BACKBONE|DICT|INTERRES
     7    4    5 1    
     8    4  130 1    
     9    5    6 1    
    10    5   65 1    
    11    5  131 1    
    12    6    7 1    
    13    6  132 1    
    14    6  133 1    
    15    7    8 1    
    16    8    9 1    
    17    8  134 1    
    18    8  135 1    
    19    9   10 ar   
    20    9   14 ar   
    21   10   11 ar   
    22   10  136 1    
    23   11   12 ar   
    24   11  126 1    
    25   12   13 ar   
    26   12  137 1    
    27   13   14 ar   
    28   13   15 1    
    29   14  138 1    
    30   15   16 1    
    31   15  139 1    
    32   15  140 1    
    33   16   17 1    
    34   17   18 1    
    35   17  141 1    
    36   17  142 1    
    37   18   19 1    
    38   18   67 1    
    39   18  143 1    
    40   19   20 am   BACKBONE|DICT|INTERRES
    41   19  144 1    
    42   20   21 2    
    43   20   22 1    
    44   22   23 1    
    45   22   24 1    
    46   22  145 1    
    47   23  146 1    
    48   23  147 1    
    49   23  148 1    
    50   24   25 am   BACKBONE|DICT|INTERRES
    51   24  149 1    
    52   25   26 2    
    53   25   27 1    
    54   27   28 1    
    55   27   29 1    
    56   27  150 1    
    57   28  151 1    
    58   28  152 1    
    59   28  153 1    
    60   29   30 am   BACKBONE|DICT|INTERRES
    61   29  154 1    
    62   30   31 2    
    63   30   32 1    
    64   32   33 1    
    65   32   34 1    
    66   32  155 1    
    67   33  156 1    
    68   33  157 1    
    69   33  158 1    
    70   34   35 am   BACKBONE|DICT|INTERRES
    71   34  159 1    
    72   35   36 2    
    73   35   37 1    
    74   37   38 1    
    75   37   39 1    
    76   37  160 1    
    77   38  161 1    
    78   38  162 1    
    79   38  163 1    
    80   39   40 am   BACKBONE|DICT|INTERRES
    81   39  164 1    
    82   40   41 2    
    83   40   42 1    
    84   42   43 1    
    85   42   44 1    
    86   42  165 1    
    87   43  166 1    
    88   43  167 1    
    89   43  168 1    
    90   44   45 am   BACKBONE|DICT|INTERRES
    91   44  169 1    
    92   45   46 2    
    93   45   47 1    
    94   47   48 1    
    95   47   49 1    
    96   47  170 1    
    97   48  171 1    
    98   48  172 1    
    99   48  173 1    
   100   49   50 am   BACKBONE|DICT|INTERRES
   101   49  174 1    
   102   50   51 2    
   103   50   52 1    
   104   52   53 1    
   105   52   54 1    
   106   52  175 1    
   107   53  176 1    
   108   53  177 1    
   109   53  178 1    
   110   54   55 am   BACKBONE|DICT|INTERRES
   111   54  179 1    
   112   55   56 2    
   113   55   57 1    
   114   57   58 1    
   115   57   59 1    
   116   57  180 1    
   117   58  181 1    
   118   58  182 1    
   119   58  183 1    
   120   59   60 am   BACKBONE|DICT|INTERRES
   121   59  184 1    
   122   60   61 2    
   123   60   62 1    
   124   62   63 1    
   125   62   64 1    
   126   62  185 1    
   127   63  186 1    
   128   63  187 1    
   129   63  188 1    
   130   64   65 am   BACKBONE|DICT|INTERRES
   131   64  189 1    
   132   65   66 2    
   133   67   68 2    
   134   67   69 am   BACKBONE|DICT|INTERRES
   135   69   70 1    
   136   69  190 1    
   137   70   71 1    
   138   70   72 1    
   139   70  191 1    
   140   71  192 1    
   141   71  193 1    
   142   71  194 1    
   143   72   73 2    
   144   72   74 am   BACKBONE|DICT|INTERRES
   145   74   75 1    
   146   74  195 1    
   147   75   76 1    
   148   75   77 1    
   149   75  196 1    
   150   76  197 1    
   151   76  198 1    
   152   76  199 1    
   153   77   78 2    
   154   77   79 am   BACKBONE|DICT|INTERRES
   155   79   80 1    
   156   79  200 1    
   157   80   81 1    
   158   80   82 1    
   159   80  201 1    
   160   81  202 1    
   161   81  203 1    
   162   81  204 1    
   163   82   83 2    
   164   82   84 am   BACKBONE|DICT|INTERRES
   165   84   85 1    
   166   84  205 1    
   167   85   86 1    
   168   85   87 1    
   169   85  206 1    
   170   86  207 1    
   171   86  208 1    
   172   86  209 1    
   173   87   88 2    
   174   87   89 am   BACKBONE|DICT|INTERRES
   175   89   90 1    
   176   89  210 1    
   177   90   91 1    
   178   90   92 1    
   179   90  211 1    
   180   91  212 1    
   181   91  213 1    
   182   91  214 1    
   183   92   93 2    
   184   92   94 am   BACKBONE|DICT|INTERRES
   185   94   95 1    
   186   94  215 1    
   187   95   96 1    
   188   95   97 1    
   189   95  216 1    
   190   96  217 1    
   191   96  218 1    
   192   96  219 1    
   193   97   98 2    
   194   97   99 am   BACKBONE|DICT|INTERRES
   195   99  100 1    
   196   99  220 1    
   197  100  101 1    
   198  100  102 1    
   199  100  221 1    
   200  101  222 1    
   201  101  223 1    
   202  101  224 1    
   203  102  103 2    
   204  102  104 am   BACKBONE|DICT|INTERRES
   205  104  105 1    
   206  104  225 1    
   207  105  106 1    
   208  105  107 1    
   209  105  226 1    
   210  106  227 1    
   211  106  228 1    
   212  106  229 1    
   213  107  108 2    
   214  107  109 am   BACKBONE|DICT|INTERRES
   215  109  110 1    
   216  109  230 1    
   217  110  111 1    
   218  110  112 1    
   219  110  231 1    
   220  111  232 1    
   221  111  233 1    
   222  111  234 1    
   223  112  113 2    
   224  112  114 am   BACKBONE|DICT|INTERRES
   225  114  115 1    
   226  114  235 1    
   227  115  116 1    
   228  115  117 1    
   229  115  236 1    
   230  116  237 1    
   231  116  238 1    
   232  116  239 1    
   233  117  118 2    
   234  117  119 am   BACKBONE|DICT|INTERRES
   235  119  120 1    
   236  119  240 1    
   237  120  121 1    
   238  120  124 1    
   239  120  241 1    
   240  121  122 am   BACKBONE|DICT|INTERRES
   241  121  123 2    
   242  122  242 1    
   243  122  243 1    
   244  124  125 1    
   245  124  244 1    
   246  124  245 1    
   247  125  126 1    
   248  126  246 1    
   249  126  247 1    
@<TRIPOS>SUBSTRUCTURE
     1 UNK         1 GROUP             0       ****    0 ROOT    
