@<TRIPOS>MOLECULE
3R540
247   249    1
SMALL
USER_CHARGES


@<TRIPOS>ATOM
      1 CA         -7.1143  -14.5099  -48.3577 C.3       0 UNK        -0.1800 
      2 C          -5.7511  -14.5676  -49.0309 C.2       0 UNK         0.5000 
      3 O          -5.5568  -13.9379  -50.0706 O.2       0 UNK        -0.5000 
      4 N          -4.8131  -15.3210  -48.4434 N.am      1 UNK        -0.5000 
      5 CA         -3.4167  -15.4380  -48.8699 C.3       1 UNK         0.1400 
      6 C6         -2.6835  -16.5104  -48.0250 C.3       23 UNK        -0.0398 
      7 S7         -0.9277  -16.7403  -48.4646 S.3       23 UNK        -0.2404 
      8 C8         -0.5610  -18.3432  -47.7007 C.3       23 UNK        -0.0205 
      9 C9         -0.0264  -19.3054  -48.7400 C.ar      23 UNK        -0.0193 
     10 C10        -0.8922  -19.8204  -49.7039 C.ar      23 UNK        -0.1150 
     11 C11        -0.4134  -20.6381  -50.7326 C.ar      23 UNK        -0.0193 
     12 C12         0.9397  -20.9929  -50.7358 C.ar      23 UNK        -0.1150 
     13 C13         1.8132  -20.5148  -49.7528 C.ar      23 UNK        -0.0193 
     14 C14         1.3250  -19.6529  -48.7660 C.ar      23 UNK        -0.1150 
     15 C15         3.2872  -20.9061  -49.7885 C.3       23 UNK        -0.0205 
     16 S16         3.9247  -21.4937  -48.1831 S.3       23 UNK        -0.2404 
     17 C17         2.7671  -22.8518  -47.8038 C.3       23 UNK        -0.0398 
     18 CA          3.3787  -23.9147  -46.8582 C.3       11 UNK         0.1400 
     19 N           3.7444  -23.3400  -45.5575 N.am      11 UNK        -0.5000 
     20 C           4.5720  -23.9073  -44.6698 C.2       10 UNK         0.5000 
     21 O           5.1254  -24.9931  -44.8463 O.2       10 UNK        -0.5000 
     22 CA          4.8058  -23.1396  -43.3572 C.3       10 UNK         0.1400 
     23 CB          5.8444  -22.0233  -43.5504 C.3       10 UNK        -0.1800 
     24 N           3.5629  -22.5675  -42.8392 N.am      10 UNK        -0.5000 
     25 C           2.6624  -23.2466  -42.1151 C.2       9 UNK         0.5000 
     26 O           2.8082  -24.4206  -41.7735 O.2       9 UNK        -0.5000 
     27 CA          1.3757  -22.5000  -41.7084 C.3       9 UNK         0.1400 
     28 CB          1.5630  -21.8083  -40.3498 C.3       9 UNK        -0.1800 
     29 N           0.9385  -21.5056  -42.6869 N.am      9 UNK        -0.5000 
     30 C           0.5486  -21.7778  -43.9389 C.2       8 UNK         0.5000 
     31 O           0.4765  -22.9111  -44.4097 O.2       8 UNK        -0.5000 
     32 CA          0.2376  -20.5705  -44.8373 C.3       8 UNK         0.1400 
     33 CB         -1.2064  -20.1098  -44.5995 C.3       8 UNK        -0.1800 
     34 N           1.1660  -19.4528  -44.6459 N.am      8 UNK        -0.5000 
     35 C           2.4974  -19.5381  -44.7941 C.2       7 UNK         0.5000 
     36 O           3.0872  -20.5804  -45.0724 O.2       7 UNK        -0.5000 
     37 CA          3.3104  -18.2607  -44.5506 C.3       7 UNK         0.1400 
     38 CB          3.3235  -17.3896  -45.8096 C.3       7 UNK        -0.1800 
     39 N           2.7736  -17.4982  -43.4266 N.am      7 UNK        -0.5000 
     40 C           2.9924  -17.8152  -42.1426 C.2       6 UNK         0.5000 
     41 O           3.7429  -18.7211  -41.7785 O.2       6 UNK        -0.5000 
     42 CA          2.2092  -17.0102  -41.0889 C.3       6 UNK         0.1400 
     43 CB          2.9291  -15.6919  -40.7673 C.3       6 UNK        -0.1800 
     44 N           0.8353  -16.7214  -41.5023 N.am      6 UNK        -0.5000 
     45 C          -0.1050  -17.6481  -41.7349 C.2       5 UNK         0.5000 
     46 O           0.0730  -18.8569  -41.5820 O.2       5 UNK        -0.5000 
     47 CA         -1.4621  -17.1432  -42.2623 C.3       5 UNK         0.1400 
     48 CB         -2.4505  -16.9498  -41.1035 C.3       5 UNK        -0.1800 
     49 N          -1.3844  -15.9035  -43.0409 N.am      5 UNK        -0.5000 
     50 C          -0.7025  -15.7374  -44.1836 C.2       4 UNK         0.5000 
     51 O          -0.0168  -16.6259  -44.6967 O.2       4 UNK        -0.5000 
     52 CA         -0.8499  -14.3488  -44.8433 C.3       4 UNK         0.1400 
     53 CB         -0.5017  -13.2028  -43.8681 C.3       4 UNK        -0.1800 
     54 N          -0.1181  -14.1929  -46.1041 N.am      4 UNK        -0.5000 
     55 C           1.2088  -14.1566  -46.3041 C.2       3 UNK         0.5000 
     56 O           2.0431  -14.2670  -45.4047 O.2       3 UNK        -0.5000 
     57 CA          1.6935  -13.9256  -47.7540 C.3       3 UNK         0.1400 
     58 CB          2.5402  -15.1010  -48.2665 C.3       3 UNK        -0.1800 
     59 N           0.5925  -13.7083  -48.6947 N.am      3 UNK        -0.5000 
     60 C           0.0656  -12.5170  -49.0065 C.2       2 UNK         0.5000 
     61 O           0.4780  -11.4464  -48.5596 O.2       2 UNK        -0.5000 
     62 CA         -1.1393  -12.5266  -49.9676 C.3       2 UNK         0.1400 
     63 CB         -0.6700  -12.3632  -51.4211 C.3       2 UNK        -0.1800 
     64 N          -1.9457  -13.7442  -49.8629 N.am      2 UNK        -0.5000 
     65 C          -2.7014  -14.0702  -48.8068 C.2       1 UNK         0.5000 
     66 O          -2.8055  -13.3716  -47.7956 O.2       1 UNK        -0.5000 
     67 C           2.4155  -25.1165  -46.7343 C.2       11 UNK         0.5000 
     68 O           2.3152  -25.8985  -47.6804 O.2       11 UNK        -0.5000 
     69 N           1.7093  -25.2192  -45.5975 N.am      12 UNK        -0.5000 
     70 CA          0.5799  -26.1148  -45.3221 C.3       12 UNK         0.1400 
     71 CB          1.0072  -27.5972  -45.3564 C.3       12 UNK        -0.1800 
     72 C          -0.6255  -25.7933  -46.2321 C.2       12 UNK         0.5000 
     73 O          -1.2678  -26.6984  -46.7688 O.2       12 UNK        -0.5000 
     74 N          -0.8847  -24.4915  -46.4015 N.am      13 UNK        -0.5000 
     75 CA         -1.9564  -23.9368  -47.2225 C.3       13 UNK         0.1400 
     76 CB         -1.4255  -22.6844  -47.9378 C.3       13 UNK        -0.1800 
     77 C          -3.1890  -23.5963  -46.3664 C.2       13 UNK         0.5000 
     78 O          -3.1237  -23.6079  -45.1351 O.2       13 UNK        -0.5000 
     79 N          -4.2969  -23.2816  -47.0488 N.am      14 UNK        -0.5000 
     80 CA         -5.6043  -22.9986  -46.4504 C.3       14 UNK         0.1400 
     81 CB         -6.6723  -23.1016  -47.5528 C.3       14 UNK        -0.1800 
     82 C          -5.7116  -21.6312  -45.7450 C.2       14 UNK         0.5000 
     83 O          -6.6870  -21.4116  -45.0272 O.2       14 UNK        -0.5000 
     84 N          -4.7649  -20.7153  -46.0080 N.am      15 UNK        -0.5000 
     85 CA         -4.6743  -19.3180  -45.5408 C.3       15 UNK         0.1400 
     86 CB         -4.6603  -19.2243  -44.0031 C.3       15 UNK        -0.1800 
     87 C          -5.7365  -18.3737  -46.1424 C.2       15 UNK         0.5000 
     88 O          -5.4341  -17.2081  -46.3958 O.2       15 UNK        -0.5000 
     89 N          -6.9340  -18.8999  -46.4203 N.am      16 UNK        -0.5000 
     90 CA         -8.0264  -18.2434  -47.1419 C.3       16 UNK         0.1400 
     91 CB         -9.3309  -18.9909  -46.8220 C.3       16 UNK        -0.1800 
     92 C          -7.8007  -18.1737  -48.6695 C.2       16 UNK         0.5000 
     93 O          -8.6038  -17.5458  -49.3600 O.2       16 UNK        -0.5000 
     94 N          -6.7252  -18.8177  -49.1510 N.am      17 UNK        -0.5000 
     95 CA         -6.2988  -19.0069  -50.5420 C.3       17 UNK         0.1400 
     96 CB         -6.1525  -17.6649  -51.2899 C.3       17 UNK        -0.1800 
     97 C          -7.1755  -20.0064  -51.3219 C.2       17 UNK         0.5000 
     98 O          -8.2979  -20.3170  -50.9167 O.2       17 UNK        -0.5000 
     99 N          -6.6265  -20.5063  -52.4340 N.am      18 UNK        -0.5000 
    100 CA        -7.2783  -21.4444  -53.3451 C.3       18 UNK         0.1400 
    101 CB        -7.3293  -22.8622  -52.7409 C.3       18 UNK        -0.1800 
    102 C         -6.5469  -21.4372  -54.6925 C.2       18 UNK         0.5000 
    103 O         -7.1678  -21.1840  -55.7256 O.2       18 UNK        -0.5000 
    104 N         -5.2333  -21.6939  -54.6513 N.am      19 UNK        -0.5000 
    105 CA        -4.3432  -21.6433  -55.8091 C.3       19 UNK         0.1400 
    106 CB        -3.0971  -22.4910  -55.5037 C.3       19 UNK        -0.1800 
    107 C         -3.9285  -20.1973  -56.1275 C.2       19 UNK         0.5000 
    108 O         -3.9090  -19.3510  -55.2314 O.2       19 UNK        -0.5000 
    109 N         -3.5228  -19.9537  -57.3811 N.am      20 UNK        -0.5000 
    110 CA        -2.9505  -18.6779  -57.8311 C.3       20 UNK         0.1400 
    111 CB        -2.7816  -18.7084  -59.3575 C.3       20 UNK        -0.1800 
    112 C         -1.6096  -18.3461  -57.1434 C.2       20 UNK         0.5000 
    113 O         -1.2952  -17.1719  -56.9432 O.2       20 UNK        -0.5000 
    114 N         -0.8747  -19.3941  -56.7415 N.am      21 UNK        -0.5000 
    115 CA         0.3607  -19.3321  -55.9579 C.3       21 UNK         0.1400 
    116 CB         0.9372  -20.7519  -55.8393 C.3       21 UNK        -0.1800 
    117 C          0.1869  -18.7093  -54.5571 C.2       21 UNK         0.5000 
    118 O          1.1743  -18.2542  -53.9794 O.2       21 UNK        -0.5000 
    119 N         -1.0507  -18.6897  -54.0427 N.am      22 UNK        -0.5000 
    120 CA        -1.4171  -18.0403  -52.7772 C.3       22 UNK         0.1400 
    121 C         -1.4678  -16.4819  -52.8609 C.2       22 UNK         0.5000 
    122 N         -1.3830  -15.8670  -54.0360 N.am      22 UNK        -0.7600 
    123 O         -1.5927  -15.8133  -51.8386 O.2       22 UNK        -0.5000 
    124 C124       -2.7607  -18.5854  -52.2227 C.3       23 UNK        -0.0398 
    125 S125       -2.9747  -20.3990  -51.9985 S.3       23 UNK        -0.2404 
    126 C126       -1.3046  -21.1440  -51.8679 C.3       23 UNK        -0.0205 
    127 H127       -7.3678  -13.4785  -48.1132 H         1 UNK         0.0600 
    128 H128       -7.1341  -15.0904  -47.4354 H         1 UNK         0.0600 
    129 H129       -7.8808  -14.9003  -49.0267 H         1 UNK         0.0600 
    130 H130       -5.0539  -15.8393  -47.6015 H         1 UNK         0.3000 
    131 H131       -3.4290  -15.7739  -49.9082 H         1 UNK         0.0600 
    132 H132       -2.7390  -16.2667  -46.9624 H         1 UNK         0.0800 
    133 H133       -3.1953  -17.4656  -48.1484 H         1 UNK         0.0800 
    134 H134        0.1616  -18.1920  -46.8996 H         1 UNK         0.0800 
    135 H135       -1.4556  -18.7687  -47.2488 H         1 UNK         0.0800 
    136 H136       -1.9332  -19.5416  -49.6582 H         1 UNK         0.1150 
    137 H137        1.3174  -21.6346  -51.5196 H         1 UNK         0.1150 
    138 H138        1.9979  -19.2541  -48.0203 H         1 UNK         0.1150 
    139 H139        3.4626  -21.6819  -50.5353 H         1 UNK         0.0800 
    140 H140        3.8706  -20.0395  -50.1017 H         1 UNK         0.0800 
    141 H141        1.8645  -22.4217  -47.3657 H         1 UNK         0.0800 
    142 H142        2.4632  -23.3104  -48.7469 H         1 UNK         0.0800 
    143 H143        4.2916  -24.2919  -47.3242 H         1 UNK         0.0600 
    144 H144        3.3919  -22.4050  -45.3645 H         1 UNK         0.3000 
    145 H145        5.2065  -23.8423  -42.6233 H         1 UNK         0.0600 
    146 H146        6.0309  -21.4931  -42.6163 H         1 UNK         0.0600 
    147 H147        5.5243  -21.2909  -44.2917 H         1 UNK         0.0600 
    148 H148        6.7968  -22.4338  -43.8879 H         1 UNK         0.0600 
    149 H149        3.3440  -21.6237  -43.1304 H         1 UNK         0.3000 
    150 H150        0.5807  -23.2420  -41.6100 H         1 UNK         0.0600 
    151 H151        1.8718  -22.5219  -39.5848 H         1 UNK         0.0600 
    152 H152        0.6344  -21.3486  -40.0105 H         1 UNK         0.0600 
    153 H153        2.3230  -21.0271  -40.3995 H         1 UNK         0.0600 
    154 H154        0.9097  -20.5401  -42.3739 H         1 UNK         0.3000 
    155 H155        0.3411  -20.8833  -45.8771 H         1 UNK         0.0600 
    156 H156       -1.9106  -20.8103  -45.0484 H         1 UNK         0.0600 
    157 H157       -1.3984  -19.1249  -45.0201 H         1 UNK         0.0600 
    158 H158       -1.4404  -20.0645  -43.5361 H         1 UNK         0.0600 
    159 H159        0.7614  -18.5461  -44.4405 H         1 UNK         0.3000 
    160 H160        4.3400  -18.5503  -44.3290 H         1 UNK         0.0600 
    161 H161        2.3169  -17.0767  -46.0864 H         1 UNK         0.0600 
    162 H162        3.7467  -17.9303  -46.6572 H         1 UNK         0.0600 
    163 H163        3.9256  -16.4938  -45.6578 H         1 UNK         0.0600 
    164 H164        2.1152  -16.7634  -43.6512 H         1 UNK         0.3000 
    165 H165        2.1662  -17.6099  -40.1772 H         1 UNK         0.0600 
    166 H166        2.4253  -15.1527  -39.9649 H         1 UNK         0.0600 
    167 H167        3.9533  -15.8765  -40.4404 H         1 UNK         0.0600 
    168 H168        2.9751  -15.0350  -41.6370 H         1 UNK         0.0600 
    169 H169        0.6002  -15.7527  -41.6588 H         1 UNK         0.3000 
    170 H170       -1.8683  -17.9106  -42.9198 H         1 UNK         0.0600 
    171 H171       -2.5533  -17.8665  -40.5210 H         1 UNK         0.0600 
    172 H172       -2.1240  -16.1627  -40.4227 H         1 UNK         0.0600 
    173 H173       -3.4432  -16.6882  -41.4703 H         1 UNK         0.0600 
    174 H174       -1.9255  -15.1283  -42.6867 H         1 UNK         0.3000 
    175 H175       -1.9032  -14.2495  -45.1097 H         1 UNK         0.0600 
    176 H176        0.5035  -13.3076  -43.4586 H         1 UNK         0.0600 
    177 H177       -0.5599  -12.2339  -44.3644 H         1 UNK         0.0600 
    178 H178       -1.1938  -13.1685  -43.0264 H         1 UNK         0.0600 
    179 H179       -0.7034  -14.0914  -46.9210 H         1 UNK         0.3000 
    180 H180        2.3331  -13.0409  -47.7386 H         1 UNK         0.0600 
    181 H181        3.4382  -15.2246  -47.6618 H         1 UNK         0.0600 
    182 H182        2.8681  -14.9326  -49.2923 H         1 UNK         0.0600 
    183 H183        1.9884  -16.0408  -48.2433 H         1 UNK         0.0600 
    184 H184        0.1792  -14.5381  -49.0994 H         1 UNK         0.3000 
    185 H185       -1.7738  -11.6749  -49.7137 H         1 UNK         0.0600 
    186 H186       -0.0811  -11.4531  -51.5428 H         1 UNK         0.0600 
    187 H187       -0.0501  -13.2026  -51.7395 H         1 UNK         0.0600 
    188 H188       -1.5176  -12.2959  -52.1032 H         1 UNK         0.0600 
    189 H189       -1.8700  -14.4070  -50.6334 H         1 UNK         0.3000 
    190 H190        1.8261  -24.4737  -44.9218 H         1 UNK         0.3000 
    191 H191        0.2591  -25.8908  -44.3036 H         1 UNK         0.0600 
    192 H192        0.2001  -28.2409  -45.0053 H         1 UNK         0.0600 
    193 H193        1.8675  -27.7736  -44.7106 H         1 UNK         0.0600 
    194 H194        1.2690  -27.9255  -46.3623 H         1 UNK         0.0600 
    195 H195       -0.3728  -23.8334  -45.8201 H         1 UNK         0.3000 
    196 H196       -2.2552  -24.6648  -47.9796 H         1 UNK         0.0600 
    197 H197       -1.2094  -21.8781  -47.2390 H         1 UNK         0.0600 
    198 H198       -0.5111  -22.9010  -48.4907 H         1 UNK         0.0600 
    199 H199       -2.1507  -22.3054  -48.6585 H         1 UNK         0.0600 
    200 H200       -4.2656  -23.2951  -48.0582 H         1 UNK         0.3000 
    201 H201       -5.8109  -23.7653  -45.7008 H         1 UNK         0.0600 
    202 H202       -7.6727  -22.9404  -47.1484 H         1 UNK         0.0600 
    203 H203       -6.6692  -24.0891  -48.0148 H         1 UNK         0.0600 
    204 H204       -6.5148  -22.3622  -48.3394 H         1 UNK         0.0600 
    205 H205       -4.0299  -21.0051  -46.6361 H         1 UNK         0.3000 
    206 H206       -3.7099  -18.9541  -45.8969 H         1 UNK         0.0600 
    207 H207       -3.9242  -19.8995  -43.5686 H         1 UNK         0.0600 
    208 H208       -4.4082  -18.2136  -43.6798 H         1 UNK         0.0600 
    209 H209       -5.6306  -19.4688  -43.5703 H         1 UNK         0.0600 
    210 H210       -7.1019  -19.8499  -46.1037 H         1 UNK         0.3000 
    211 H211       -8.1195  -17.2195  -46.7755 H         1 UNK         0.0600 
    212 H212       -9.2964  -20.0239  -47.1709 H         1 UNK         0.0600 
    213 H213      -10.1864  -18.5111  -47.2993 H         1 UNK         0.0600 
    214 H214       -9.5251  -19.0049  -45.7494 H         1 UNK         0.0600 
    215 H215       -6.1754  -19.3174  -48.4695 H         1 UNK         0.3000 
    216 H216       -5.3074  -19.4545  -50.4726 H         1 UNK         0.0600 
    217 H217       -5.7814  -17.8146  -52.3034 H         1 UNK         0.0600 
    218 H218       -5.4467  -17.0088  -50.7831 H         1 UNK         0.0600 
    219 H219       -7.0998  -17.1347  -51.3814 H         1 UNK         0.0600 
    220 H220       -5.7172  -20.1749  -52.7283 H         1 UNK         0.3000 
    221 H221       -8.3006  -21.1044  -53.5250 H         1 UNK         0.0600 
    222 H222       -7.7478  -23.5747  -53.4528 H         1 UNK         0.0600 
    223 H223       -6.3378  -23.2194  -52.4609 H         1 UNK         0.0600 
    224 H224       -7.9566  -22.8930  -51.8502 H         1 UNK         0.0600 
    225 H225       -4.7931  -21.8714  -53.7605 H         1 UNK         0.3000 
    226 H226       -4.8545  -22.0663  -56.6765 H         1 UNK         0.0600 
    227 H227       -3.3691  -23.5196  -55.2661 H         1 UNK         0.0600 
    228 H228       -2.4240  -22.5261  -56.3611 H         1 UNK         0.0600 
    229 H229       -2.5328  -22.0911  -54.6603 H         1 UNK         0.0600 
    230 H230       -3.5647  -20.6951  -58.0660 H         1 UNK         0.3000 
    231 H231       -3.6555  -17.8830  -57.5788 H         1 UNK         0.0600 
    232 H232       -2.3789  -17.7632  -59.7243 H         1 UNK         0.0600 
    233 H233       -3.7372  -18.8683  -59.8572 H         1 UNK         0.0600 
    234 H234       -2.1001  -19.4998  -59.6723 H         1 UNK         0.0600 
    235 H235       -1.2184  -20.3174  -56.9581 H         1 UNK         0.3000 
    236 H236        1.0734  -18.7123  -56.5056 H         1 UNK         0.0600 
    237 H237        1.1460  -21.1773  -56.8210 H         1 UNK         0.0600 
    238 H238        1.8753  -20.7484  -55.2825 H         1 UNK         0.0600 
    239 H239        0.2507  -21.4223  -55.3204 H         1 UNK         0.0600 
    240 H240       -1.8222  -19.0611  -54.5823 H         1 UNK         0.3000 
    241 H241       -0.6351  -18.2610  -52.0508 H         1 UNK         0.0600 
    242 H242       -1.2920  -16.3917  -54.8964 H         1 UNK         0.3800 
    243 H243       -1.4186  -14.8612  -54.0679 H         1 UNK         0.3800 
    244 H244       -3.5700  -18.2549  -52.8736 H         1 UNK         0.0800 
    245 H245       -2.9653  -18.1249  -51.2548 H         1 UNK         0.0800 
    246 H246       -0.7859  -21.0298  -52.8188 H         1 UNK         0.0800 
    247 H247       -1.4362  -22.2179  -51.7310 H         1 UNK         0.0800 
@<TRIPOS>BOND
     1    1    2 1    
     2    1  127 1    
     3    1  128 1    
     4    1  129 1    
     5    2    3 2    
     6    2    4 am   BACKBONE|DICT|INTERRES
     7    4    5 1    
     8    4  130 1    
     9    5    6 1    
    10    5   65 1    
    11    5  131 1    
    12    6    7 1    
    13    6  132 1    
    14    6  133 1    
    15    7    8 1    
    16    8    9 1    
    17    8  134 1    
    18    8  135 1    
    19    9   10 ar   
    20    9   14 ar   
    21   10   11 ar   
    22   10  136 1    
    23   11   12 ar   
    24   11  126 1    
    25   12   13 ar   
    26   12  137 1    
    27   13   14 ar   
    28   13   15 1    
    29   14  138 1    
    30   15   16 1    
    31   15  139 1    
    32   15  140 1    
    33   16   17 1    
    34   17   18 1    
    35   17  141 1    
    36   17  142 1    
    37   18   19 1    
    38   18   67 1    
    39   18  143 1    
    40   19   20 am   BACKBONE|DICT|INTERRES
    41   19  144 1    
    42   20   21 2    
    43   20   22 1    
    44   22   23 1    
    45   22   24 1    
    46   22  145 1    
    47   23  146 1    
    48   23  147 1    
    49   23  148 1    
    50   24   25 am   BACKBONE|DICT|INTERRES
    51   24  149 1    
    52   25   26 2    
    53   25   27 1    
    54   27   28 1    
    55   27   29 1    
    56   27  150 1    
    57   28  151 1    
    58   28  152 1    
    59   28  153 1    
    60   29   30 am   BACKBONE|DICT|INTERRES
    61   29  154 1    
    62   30   31 2    
    63   30   32 1    
    64   32   33 1    
    65   32   34 1    
    66   32  155 1    
    67   33  156 1    
    68   33  157 1    
    69   33  158 1    
    70   34   35 am   BACKBONE|DICT|INTERRES
    71   34  159 1    
    72   35   36 2    
    73   35   37 1    
    74   37   38 1    
    75   37   39 1    
    76   37  160 1    
    77   38  161 1    
    78   38  162 1    
    79   38  163 1    
    80   39   40 am   BACKBONE|DICT|INTERRES
    81   39  164 1    
    82   40   41 2    
    83   40   42 1    
    84   42   43 1    
    85   42   44 1    
    86   42  165 1    
    87   43  166 1    
    88   43  167 1    
    89   43  168 1    
    90   44   45 am   BACKBONE|DICT|INTERRES
    91   44  169 1    
    92   45   46 2    
    93   45   47 1    
    94   47   48 1    
    95   47   49 1    
    96   47  170 1    
    97   48  171 1    
    98   48  172 1    
    99   48  173 1    
   100   49   50 am   BACKBONE|DICT|INTERRES
   101   49  174 1    
   102   50   51 2    
   103   50   52 1    
   104   52   53 1    
   105   52   54 1    
   106   52  175 1    
   107   53  176 1    
   108   53  177 1    
   109   53  178 1    
   110   54   55 am   BACKBONE|DICT|INTERRES
   111   54  179 1    
   112   55   56 2    
   113   55   57 1    
   114   57   58 1    
   115   57   59 1    
   116   57  180 1    
   117   58  181 1    
   118   58  182 1    
   119   58  183 1    
   120   59   60 am   BACKBONE|DICT|INTERRES
   121   59  184 1    
   122   60   61 2    
   123   60   62 1    
   124   62   63 1    
   125   62   64 1    
   126   62  185 1    
   127   63  186 1    
   128   63  187 1    
   129   63  188 1    
   130   64   65 am   BACKBONE|DICT|INTERRES
   131   64  189 1    
   132   65   66 2    
   133   67   68 2    
   134   67   69 am   BACKBONE|DICT|INTERRES
   135   69   70 1    
   136   69  190 1    
   137   70   71 1    
   138   70   72 1    
   139   70  191 1    
   140   71  192 1    
   141   71  193 1    
   142   71  194 1    
   143   72   73 2    
   144   72   74 am   BACKBONE|DICT|INTERRES
   145   74   75 1    
   146   74  195 1    
   147   75   76 1    
   148   75   77 1    
   149   75  196 1    
   150   76  197 1    
   151   76  198 1    
   152   76  199 1    
   153   77   78 2    
   154   77   79 am   BACKBONE|DICT|INTERRES
   155   79   80 1    
   156   79  200 1    
   157   80   81 1    
   158   80   82 1    
   159   80  201 1    
   160   81  202 1    
   161   81  203 1    
   162   81  204 1    
   163   82   83 2    
   164   82   84 am   BACKBONE|DICT|INTERRES
   165   84   85 1    
   166   84  205 1    
   167   85   86 1    
   168   85   87 1    
   169   85  206 1    
   170   86  207 1    
   171   86  208 1    
   172   86  209 1    
   173   87   88 2    
   174   87   89 am   BACKBONE|DICT|INTERRES
   175   89   90 1    
   176   89  210 1    
   177   90   91 1    
   178   90   92 1    
   179   90  211 1    
   180   91  212 1    
   181   91  213 1    
   182   91  214 1    
   183   92   93 2    
   184   92   94 am   BACKBONE|DICT|INTERRES
   185   94   95 1    
   186   94  215 1    
   187   95   96 1    
   188   95   97 1    
   189   95  216 1    
   190   96  217 1    
   191   96  218 1    
   192   96  219 1    
   193   97   98 2    
   194   97   99 am   BACKBONE|DICT|INTERRES
   195   99  100 1    
   196   99  220 1    
   197  100  101 1    
   198  100  102 1    
   199  100  221 1    
   200  101  222 1    
   201  101  223 1    
   202  101  224 1    
   203  102  103 2    
   204  102  104 am   BACKBONE|DICT|INTERRES
   205  104  105 1    
   206  104  225 1    
   207  105  106 1    
   208  105  107 1    
   209  105  226 1    
   210  106  227 1    
   211  106  228 1    
   212  106  229 1    
   213  107  108 2    
   214  107  109 am   BACKBONE|DICT|INTERRES
   215  109  110 1    
   216  109  230 1    
   217  110  111 1    
   218  110  112 1    
   219  110  231 1    
   220  111  232 1    
   221  111  233 1    
   222  111  234 1    
   223  112  113 2    
   224  112  114 am   BACKBONE|DICT|INTERRES
   225  114  115 1    
   226  114  235 1    
   227  115  116 1    
   228  115  117 1    
   229  115  236 1    
   230  116  237 1    
   231  116  238 1    
   232  116  239 1    
   233  117  118 2    
   234  117  119 am   BACKBONE|DICT|INTERRES
   235  119  120 1    
   236  119  240 1    
   237  120  121 1    
   238  120  124 1    
   239  120  241 1    
   240  121  122 am   BACKBONE|DICT|INTERRES
   241  121  123 2    
   242  122  242 1    
   243  122  243 1    
   244  124  125 1    
   245  124  244 1    
   246  124  245 1    
   247  125  126 1    
   248  126  246 1    
   249  126  247 1    
@<TRIPOS>SUBSTRUCTURE
     1 UNK         1 GROUP             0       ****    0 ROOT    
