@<TRIPOS>MOLECULE
3R540
247   249    1
SMALL
USER_CHARGES


@<TRIPOS>ATOM
      1 CA          0.9304  -15.2828  -48.5678 C.3       0 UNK        -0.1800 
      2 C          -0.4381  -14.6263  -48.6523 C.2       0 UNK         0.5000 
      3 O          -0.5767  -13.5859  -49.2910 O.2       0 UNK        -0.5000 
      4 N          -1.4415  -15.2254  -47.9968 N.am      1 UNK        -0.5000 
      5 CA         -2.8419  -14.7771  -47.9495 C.3       1 UNK         0.1400 
      6 C6         -3.5761  -14.8648  -49.3147 C.3       23 UNK        -0.0398 
      7 S7         -3.5462  -16.5447  -50.0268 S.3       23 UNK        -0.2404 
      8 C8         -4.8928  -17.3330  -49.0955 C.3       23 UNK        -0.0205 
      9 C9         -5.1895  -18.7166  -49.6447 C.ar      23 UNK        -0.0193 
     10 C10        -6.2053  -18.8886  -50.5868 C.ar      23 UNK        -0.1150 
     11 C11        -6.4833  -20.1543  -51.1059 C.ar      23 UNK        -0.0193 
     12 C12        -5.7272  -21.2512  -50.6838 C.ar      23 UNK        -0.1150 
     13 C13        -4.7065  -21.0974  -49.7398 C.ar      23 UNK        -0.0193 
     14 C14        -4.4539  -19.8240  -49.2125 C.ar      23 UNK        -0.1150 
     15 C15        -3.9195  -22.3289  -49.2976 C.3       23 UNK        -0.0205 
     16 S16        -2.1530  -22.0116  -48.9753 S.3       23 UNK        -0.2404 
     17 C17        -2.1233  -21.8555  -47.1586 C.3       23 UNK        -0.0398 
     18 CA         -1.5237  -23.1132  -46.4809 C.3       11 UNK         0.1400 
     19 N          -0.7844  -22.7850  -45.2562 N.am      11 UNK        -0.5000 
     20 C          -0.1214  -23.6446  -44.4680 C.2       10 UNK         0.5000 
     21 O          -0.0737  -24.8574  -44.6766 O.2       10 UNK        -0.5000 
     22 CA          0.5787  -23.0703  -43.2232 C.3       10 UNK         0.1400 
     23 CB          2.0690  -22.8385  -43.5075 C.3       10 UNK        -0.1800 
     24 N          -0.0254  -21.8303  -42.7295 N.am      10 UNK        -0.5000 
     25 C          -1.2596  -21.7389  -42.2116 C.2       9 UNK         0.5000 
     26 O          -2.0196  -22.6998  -42.0831 O.2       9 UNK        -0.5000 
     27 CA         -1.7380  -20.3331  -41.8060 C.3       9 UNK         0.1400 
     28 CB         -1.1318  -19.9165  -40.4573 C.3       9 UNK        -0.1800 
     29 N          -1.4248  -19.3228  -42.8167 N.am      9 UNK        -0.5000 
     30 C          -1.9609  -19.2814  -44.0448 C.2       8 UNK         0.5000 
     31 O          -2.8218  -20.0641  -44.4456 O.2       8 UNK        -0.5000 
     32 CA         -1.4048  -18.2135  -45.0055 C.3       8 UNK         0.1400 
     33 CB         -2.0256  -16.8388  -44.7155 C.3       8 UNK        -0.1800 
     34 N           0.0554  -18.1148  -44.9533 N.am      8 UNK        -0.5000 
     35 C           0.8960  -19.1146  -45.2596 C.2       7 UNK         0.5000 
     36 O           0.5305  -20.2136  -45.6702 O.2       7 UNK        -0.5000 
     37 CA          2.3932  -18.8587  -45.0334 C.3       7 UNK         0.1400 
     38 CB          3.0051  -18.1141  -46.2277 C.3       7 UNK        -0.1800 
     39 N           2.6356  -18.1141  -43.7982 N.am      7 UNK        -0.5000 
     40 C           2.4419  -18.6165  -42.5698 C.2       6 UNK         0.5000 
     41 O           2.0743  -19.7706  -42.3516 O.2       6 UNK        -0.5000 
     42 CA          2.6421  -17.6479  -41.3909 C.3       6 UNK         0.1400 
     43 CB          4.1336  -17.4961  -41.0566 C.3       6 UNK        -0.1800 
     44 N           2.0624  -16.3293  -41.6506 N.am      6 UNK        -0.5000 
     45 C           0.7511  -16.0981  -41.8054 C.2       5 UNK         0.5000 
     46 O          -0.1123  -16.9690  -41.7066 O.2       5 UNK        -0.5000 
     47 CA          0.3380  -14.6630  -42.1795 C.3       5 UNK         0.1400 
     48 CB          0.0926  -13.8233  -40.9178 C.3       5 UNK        -0.1800 
     49 N           1.3078  -13.9774  -43.0383 N.am      5 UNK        -0.5000 
     50 C           1.6398  -14.3681  -44.2749 C.2       4 UNK         0.5000 
     51 O           1.1734  -15.3678  -44.8264 O.2       4 UNK        -0.5000 
     52 CA          2.5890  -13.4460  -45.0462 C.3       4 UNK         0.1400 
     53 CB          3.6257  -14.2230  -45.8746 C.3       4 UNK        -0.1800 
     54 N           1.7405  -12.6496  -45.9172 N.am      4 UNK        -0.5000 
     55 C           1.8943  -11.3521  -46.2044 C.2       3 UNK         0.5000 
     56 O           2.8800  -10.6873  -45.8840 O.2       3 UNK        -0.5000 
     57 CA          0.7187  -10.6777  -46.9417 C.3       3 UNK         0.1400 
     58 CB          0.9567  -10.6820  -48.4586 C.3       3 UNK        -0.1800 
     59 N          -0.5620  -11.3284  -46.6341 N.am      3 UNK        -0.5000 
     60 C          -1.1900  -11.2099  -45.4533 C.2       2 UNK         0.5000 
     61 O          -0.8180  -10.4354  -44.5712 O.2       2 UNK        -0.5000 
     62 CA         -2.3796  -12.1435  -45.1546 C.3       2 UNK         0.1400 
     63 CB         -3.7088  -11.3695  -45.0458 C.3       2 UNK        -0.1800 
     64 N          -2.4759  -13.3112  -46.0417 N.am      2 UNK        -0.5000 
     65 C          -2.9513  -13.3832  -47.2935 C.2       1 UNK         0.5000 
     66 O          -3.3982  -12.4243  -47.9229 O.2       1 UNK        -0.5000 
     67 C          -2.5907  -24.2157  -46.3075 C.2       11 UNK         0.5000 
     68 O          -2.8714  -24.9362  -47.2648 O.2       11 UNK        -0.5000 
     69 N          -3.1188  -24.3664  -45.0854 N.am      12 UNK        -0.5000 
     70 CA         -4.0571  -25.4176  -44.6937 C.3       12 UNK         0.1400 
     71 CB         -4.5311  -25.1386  -43.2591 C.3       12 UNK        -0.1800 
     72 C          -3.4975  -26.8534  -44.8052 C.2       12 UNK         0.5000 
     73 O          -4.2944  -27.7901  -44.8798 O.2       12 UNK        -0.5000 
     74 N          -2.1650  -27.0112  -44.8099 N.am      13 UNK        -0.5000 
     75 CA         -1.4890  -28.3060  -44.9084 C.3       13 UNK         0.1400 
     76 CB         -0.9419  -28.6974  -43.5258 C.3       13 UNK        -0.1800 
     77 C          -0.3632  -28.3068  -45.9554 C.2       13 UNK         0.5000 
     78 O          -0.2348  -29.2800  -46.6992 O.2       13 UNK        -0.5000 
     79 N           0.4460  -27.2406  -45.9892 N.am      14 UNK        -0.5000 
     80 CA          1.6673  -27.1569  -46.7933 C.3       14 UNK         0.1400 
     81 CB          2.7043  -26.3334  -46.0111 C.3       14 UNK        -0.1800 
     82 C           1.4512  -26.5344  -48.1839 C.2       14 UNK         0.5000 
     83 O           2.3452  -26.6413  -49.0239 O.2       14 UNK        -0.5000 
     84 N           0.3051  -25.8653  -48.3920 N.am      15 UNK        -0.5000 
     85 CA         -0.0452  -25.0709  -49.5813 C.3       15 UNK         0.1400 
     86 CB         -0.2478  -25.9812  -50.8099 C.3       15 UNK        -0.1800 
     87 C           0.9486  -23.9108  -49.8446 C.2       15 UNK         0.5000 
     88 O           1.2476  -23.5949  -50.9968 O.2       15 UNK        -0.5000 
     89 N           1.4720  -23.3260  -48.7566 N.am      16 UNK        -0.5000 
     90 CA          2.5827  -22.3731  -48.7543 C.3       16 UNK         0.1400 
     91 CB          3.0985  -22.2323  -47.3138 C.3       16 UNK        -0.1800 
     92 C           2.2645  -20.9872  -49.3476 C.2       16 UNK         0.5000 
     93 O           3.1838  -20.3310  -49.8391 O.2       16 UNK        -0.5000 
     94 N           0.9984  -20.5570  -49.2773 N.am      17 UNK        -0.5000 
     95 CA          0.5320  -19.2823  -49.8184 C.3       17 UNK         0.1400 
     96 CB         -0.4171  -18.6024  -48.8134 C.3       17 UNK        -0.1800 
     97 C          -0.0959  -19.5028  -51.2046 C.2       17 UNK         0.5000 
     98 O           0.6375  -19.5652  -52.1913 O.2       17 UNK        -0.5000 
     99 N          -1.4358  -19.5817  -51.2550 N.am      18 UNK        -0.5000 
    100 CA        -2.2811  -19.7141  -52.4499 C.3       18 UNK         0.1400 
    101 CB        -2.0204  -21.0569  -53.1627 C.3       18 UNK        -0.1800 
    102 C         -2.1985  -18.4994  -53.4017 C.2       18 UNK         0.5000 
    103 O         -2.5439  -18.6120  -54.5803 O.2       18 UNK        -0.5000 
    104 N         -1.7792  -17.3468  -52.8567 N.am      19 UNK        -0.5000 
    105 CA        -1.5459  -16.0724  -53.5429 C.3       19 UNK         0.1400 
    106 CB        -0.8537  -15.1091  -52.5668 C.3       19 UNK        -0.1800 
    107 C         -2.8117  -15.4281  -54.1414 C.2       19 UNK         0.5000 
    108 O         -2.6989  -14.5516  -54.9980 O.2       19 UNK        -0.5000 
    109 N         -3.9900  -15.9109  -53.7275 N.am      20 UNK        -0.5000 
    110 CA        -5.2991  -15.6121  -54.3116 C.3       20 UNK         0.1400 
    111 CB        -6.3751  -15.9579  -53.2692 C.3       20 UNK        -0.1800 
    112 C         -5.5577  -16.3341  -55.6590 C.2       20 UNK         0.5000 
    113 O         -6.6858  -16.2951  -56.1515 O.2       20 UNK        -0.5000 
    114 N         -4.5207  -16.9734  -56.2242 N.am      21 UNK        -0.5000 
    115 CA        -4.4938  -17.7747  -57.4514 C.3       21 UNK         0.1400 
    116 CB        -4.9687  -16.9705  -58.6806 C.3       21 UNK        -0.1800 
    117 C         -5.2165  -19.1219  -57.2694 C.2       21 UNK         0.5000 
    118 O         -5.9564  -19.5599  -58.1526 O.2       21 UNK        -0.5000 
    119 N         -4.9755  -19.7528  -56.1143 N.am      22 UNK        -0.5000 
    120 CA        -5.5531  -21.0507  -55.7259 C.3       22 UNK         0.1400 
    121 C         -4.6739  -22.2730  -56.1217 C.2       22 UNK         0.5000 
    122 N         -3.4883  -22.0887  -56.6904 N.am      22 UNK        -0.7600 
    123 O         -5.0814  -23.4140  -55.9228 O.2       22 UNK        -0.5000 
    124 C124       -5.9157  -21.0833  -54.2201 C.3       23 UNK        -0.0398 
    125 S125       -7.1316  -19.7992  -53.7772 S.3       23 UNK        -0.2404 
    126 C126       -7.6131  -20.3341  -52.1079 C.3       23 UNK        -0.0205 
    127 H127        1.7070  -14.5221  -48.4934 H         1 UNK         0.0600 
    128 H128        1.1190  -15.8755  -49.4626 H         1 UNK         0.0600 
    129 H129        1.0064  -15.9328  -47.6967 H         1 UNK         0.0600 
    130 H130       -1.2473  -16.0803  -47.4984 H         1 UNK         0.3000 
    131 H131       -3.3538  -15.4594  -47.2697 H         1 UNK         0.0600 
    132 H132       -4.6157  -14.5485  -49.2139 H         1 UNK         0.0800 
    133 H133       -3.1264  -14.1821  -50.0368 H         1 UNK         0.0800 
    134 H134       -4.6205  -17.4037  -48.0417 H         1 UNK         0.0800 
    135 H135       -5.7877  -16.7107  -49.1454 H         1 UNK         0.0800 
    136 H136       -6.7846  -18.0372  -50.9146 H         1 UNK         0.1150 
    137 H137       -5.9414  -22.2311  -51.0870 H         1 UNK         0.1150 
    138 H138       -3.6831  -19.6860  -48.4690 H         1 UNK         0.1150 
    139 H139       -4.3975  -22.7632  -48.4191 H         1 UNK         0.0800 
    140 H140       -3.9693  -23.0930  -50.0749 H         1 UNK         0.0800 
    141 H141       -3.1136  -21.6126  -46.7684 H         1 UNK         0.0800 
    142 H142       -1.5114  -20.9829  -46.9404 H         1 UNK         0.0800 
    143 H143       -0.7677  -23.5277  -47.1447 H         1 UNK         0.0600 
    144 H144       -0.7005  -21.7981  -45.0401 H         1 UNK         0.3000 
    145 H145        0.4973  -23.8197  -42.4335 H         1 UNK         0.0600 
    146 H146        2.5988  -22.5360  -42.6041 H         1 UNK         0.0600 
    147 H147        2.2174  -22.0614  -44.2562 H         1 UNK         0.0600 
    148 H148        2.5474  -23.7474  -43.8743 H         1 UNK         0.0600 
    149 H149        0.5585  -20.9999  -42.7606 H         1 UNK         0.3000 
    150 H150       -2.8234  -20.3706  -41.6927 H         1 UNK         0.0600 
    151 H151       -1.3592  -20.6497  -39.6826 H         1 UNK         0.0600 
    152 H152       -1.5319  -18.9579  -40.1263 H         1 UNK         0.0600 
    153 H153       -0.0469  -19.8221  -40.5139 H         1 UNK         0.0600 
    154 H154       -0.7620  -18.6014  -42.5475 H         1 UNK         0.3000 
    155 H155       -1.6782  -18.5027  -46.0220 H         1 UNK         0.0600 
    156 H156       -3.0930  -16.8408  -44.9394 H         1 UNK         0.0600 
    157 H157       -1.5607  -16.0593  -45.3155 H         1 UNK         0.0600 
    158 H158       -1.9145  -16.5583  -43.6685 H         1 UNK         0.0600 
    159 H159        0.4476  -17.2244  -44.6647 H         1 UNK         0.3000 
    160 H160        2.8896  -19.8275  -44.9515 H         1 UNK         0.0600 
    161 H161        2.5577  -17.1305  -46.3592 H         1 UNK         0.0600 
    162 H162        2.8521  -18.6700  -47.1539 H         1 UNK         0.0600 
    163 H163        4.0795  -17.9805  -46.1019 H         1 UNK         0.0600 
    164 H164        2.8863  -17.1415  -43.8936 H         1 UNK         0.3000 
    165 H165        2.1384  -18.0744  -40.5207 H         1 UNK         0.0600 
    166 H166        4.2778  -16.8735  -40.1735 H         1 UNK         0.0600 
    167 H167        4.5862  -18.4661  -40.8463 H         1 UNK         0.0600 
    168 H168        4.6897  -17.0457  -41.8797 H         1 UNK         0.0600 
    169 H169        2.7032  -15.5555  -41.7455 H         1 UNK         0.3000 
    170 H170       -0.6026  -14.7266  -42.7297 H         1 UNK         0.0600 
    171 H171        1.0061  -13.6918  -40.3366 H         1 UNK         0.0600 
    172 H172       -0.2909  -12.8345  -41.1706 H         1 UNK         0.0600 
    173 H173       -0.6439  -14.2995  -40.2689 H         1 UNK         0.0600 
    174 H174        1.7106  -13.1280  -42.6689 H         1 UNK         0.3000 
    175 H175        3.1151  -12.8047  -44.3357 H         1 UNK         0.0600 
    176 H176        3.1567  -14.8537  -46.6283 H         1 UNK         0.0600 
    177 H177        4.3037  -13.5420  -46.3892 H         1 UNK         0.0600 
    178 H178        4.2318  -14.8673  -45.2368 H         1 UNK         0.0600 
    179 H179        0.8849  -13.1017  -46.2041 H         1 UNK         0.3000 
    180 H180        0.6664   -9.6378  -46.6121 H         1 UNK         0.0600 
    181 H181        0.1052  -10.2654  -48.9969 H         1 UNK         0.0600 
    182 H182        1.1375  -11.6875  -48.8377 H         1 UNK         0.0600 
    183 H183        1.8298  -10.0800  -48.7133 H         1 UNK         0.0600 
    184 H184       -0.9459  -11.9461  -47.3370 H         1 UNK         0.3000 
    185 H185       -2.1786  -12.5616  -44.1668 H         1 UNK         0.0600 
    186 H186       -4.5406  -12.0385  -44.8257 H         1 UNK         0.0600 
    187 H187       -3.6623  -10.6347  -44.2412 H         1 UNK         0.0600 
    188 H188       -3.9439  -10.8258  -45.9608 H         1 UNK         0.0600 
    189 H189       -2.1000  -14.1608  -45.6472 H         1 UNK         0.3000 
    190 H190       -2.8114  -23.7431  -44.3504 H         1 UNK         0.3000 
    191 H191       -4.9208  -25.3546  -45.3586 H         1 UNK         0.0600 
    192 H192       -3.7009  -25.1617  -42.5516 H         1 UNK         0.0600 
    193 H193       -5.2610  -25.8814  -42.9346 H         1 UNK         0.0600 
    194 H194       -5.0080  -24.1611  -43.1833 H         1 UNK         0.0600 
    195 H195       -1.5751  -26.1890  -44.7466 H         1 UNK         0.3000 
    196 H196       -2.1954  -29.0785  -45.2194 H         1 UNK         0.0600 
    197 H197       -1.7482  -28.7985  -42.7992 H         1 UNK         0.0600 
    198 H198       -0.2403  -27.9537  -43.1456 H         1 UNK         0.0600 
    199 H199       -0.4194  -29.6540  -43.5669 H         1 UNK         0.0600 
    200 H200        0.2758  -26.4557  -45.3637 H         1 UNK         0.3000 
    201 H201        2.0775  -28.1581  -46.9419 H         1 UNK         0.0600 
    202 H202        2.8948  -26.7675  -45.0294 H         1 UNK         0.0600 
    203 H203        2.3746  -25.3047  -45.8644 H         1 UNK         0.0600 
    204 H204        3.6576  -26.2982  -46.5401 H         1 UNK         0.0600 
    205 H205       -0.3842  -25.8851  -47.6538 H         1 UNK         0.3000 
    206 H206       -1.0094  -24.6123  -49.3676 H         1 UNK         0.0600 
    207 H207       -0.9552  -26.7818  -50.5938 H         1 UNK         0.0600 
    208 H208       -0.6476  -25.4154  -51.6522 H         1 UNK         0.0600 
    209 H209        0.6866  -26.4376  -51.1373 H         1 UNK         0.0600 
    210 H210        1.1840  -23.6667  -47.8532 H         1 UNK         0.3000 
    211 H211        3.3855  -22.8020  -49.3579 H         1 UNK         0.0600 
    212 H212        2.3146  -21.8794  -46.6451 H         1 UNK         0.0600 
    213 H213        3.9236  -21.5209  -47.2569 H         1 UNK         0.0600 
    214 H214        3.4648  -23.1842  -46.9291 H         1 UNK         0.0600 
    215 H215        0.2964  -21.1775  -48.9011 H         1 UNK         0.3000 
    216 H216        1.3732  -18.6009  -49.9628 H         1 UNK         0.0600 
    217 H217       -0.8459  -17.6959  -49.2389 H         1 UNK         0.0600 
    218 H218        0.1244  -18.3088  -47.9166 H         1 UNK         0.0600 
    219 H219       -1.2401  -19.2450  -48.5082 H         1 UNK         0.0600 
    220 H220       -1.9414  -19.5399  -50.3816 H         1 UNK         0.3000 
    221 H221       -3.3103  -19.7315  -52.0894 H         1 UNK         0.0600 
    222 H222       -1.0136  -21.1102  -53.5765 H         1 UNK         0.0600 
    223 H223       -2.1460  -21.8945  -52.4763 H         1 UNK         0.0600 
    224 H224       -2.7131  -21.2090  -53.9889 H         1 UNK         0.0600 
    225 H225       -1.5729  -17.3551  -51.8692 H         1 UNK         0.3000 
    226 H226       -0.8635  -16.2679  -54.3723 H         1 UNK         0.0600 
    227 H227        0.0812  -15.5265  -52.1923 H         1 UNK         0.0600 
    228 H228       -0.6135  -14.1627  -53.0528 H         1 UNK         0.0600 
    229 H229       -1.4869  -14.8834  -51.7090 H         1 UNK         0.0600 
    230 H230       -3.9751  -16.6197  -53.0088 H         1 UNK         0.3000 
    231 H231       -5.3521  -14.5398  -54.5097 H         1 UNK         0.0600 
    232 H232       -7.3717  -15.6926  -53.6238 H         1 UNK         0.0600 
    233 H233       -6.2096  -15.4195  -52.3357 H         1 UNK         0.0600 
    234 H234       -6.3789  -17.0236  -53.0441 H         1 UNK         0.0600 
    235 H235       -3.6577  -16.9887  -55.6971 H         1 UNK         0.3000 
    236 H236       -3.4443  -18.0216  -57.6183 H         1 UNK         0.0600 
    237 H237       -6.0374  -16.7586  -58.6446 H         1 UNK         0.0600 
    238 H238       -4.4393  -16.0210  -58.7595 H         1 UNK         0.0600 
    239 H239       -4.7806  -17.5241  -59.6011 H         1 UNK         0.0600 
    240 H240       -4.3232  -19.3339  -55.4619 H         1 UNK         0.3000 
    241 H241       -6.4869  -21.1888  -56.2741 H         1 UNK         0.0600 
    242 H242       -2.9329  -22.8889  -56.9496 H         1 UNK         0.3800 
    243 H243       -3.1412  -21.1596  -56.8653 H         1 UNK         0.3800 
    244 H244       -5.0264  -20.9481  -53.6049 H         1 UNK         0.0800 
    245 H245       -6.3359  -22.0533  -53.9485 H         1 UNK         0.0800 
    246 H246       -8.4756  -19.7482  -51.7871 H         1 UNK         0.0800 
    247 H247       -7.9462  -21.3727  -52.1365 H         1 UNK         0.0800 
@<TRIPOS>BOND
     1    1    2 1    
     2    1  127 1    
     3    1  128 1    
     4    1  129 1    
     5    2    3 2    
     6    2    4 am   BACKBONE|DICT|INTERRES
     7    4    5 1    
     8    4  130 1    
     9    5    6 1    
    10    5   65 1    
    11    5  131 1    
    12    6    7 1    
    13    6  132 1    
    14    6  133 1    
    15    7    8 1    
    16    8    9 1    
    17    8  134 1    
    18    8  135 1    
    19    9   10 ar   
    20    9   14 ar   
    21   10   11 ar   
    22   10  136 1    
    23   11   12 ar   
    24   11  126 1    
    25   12   13 ar   
    26   12  137 1    
    27   13   14 ar   
    28   13   15 1    
    29   14  138 1    
    30   15   16 1    
    31   15  139 1    
    32   15  140 1    
    33   16   17 1    
    34   17   18 1    
    35   17  141 1    
    36   17  142 1    
    37   18   19 1    
    38   18   67 1    
    39   18  143 1    
    40   19   20 am   BACKBONE|DICT|INTERRES
    41   19  144 1    
    42   20   21 2    
    43   20   22 1    
    44   22   23 1    
    45   22   24 1    
    46   22  145 1    
    47   23  146 1    
    48   23  147 1    
    49   23  148 1    
    50   24   25 am   BACKBONE|DICT|INTERRES
    51   24  149 1    
    52   25   26 2    
    53   25   27 1    
    54   27   28 1    
    55   27   29 1    
    56   27  150 1    
    57   28  151 1    
    58   28  152 1    
    59   28  153 1    
    60   29   30 am   BACKBONE|DICT|INTERRES
    61   29  154 1    
    62   30   31 2    
    63   30   32 1    
    64   32   33 1    
    65   32   34 1    
    66   32  155 1    
    67   33  156 1    
    68   33  157 1    
    69   33  158 1    
    70   34   35 am   BACKBONE|DICT|INTERRES
    71   34  159 1    
    72   35   36 2    
    73   35   37 1    
    74   37   38 1    
    75   37   39 1    
    76   37  160 1    
    77   38  161 1    
    78   38  162 1    
    79   38  163 1    
    80   39   40 am   BACKBONE|DICT|INTERRES
    81   39  164 1    
    82   40   41 2    
    83   40   42 1    
    84   42   43 1    
    85   42   44 1    
    86   42  165 1    
    87   43  166 1    
    88   43  167 1    
    89   43  168 1    
    90   44   45 am   BACKBONE|DICT|INTERRES
    91   44  169 1    
    92   45   46 2    
    93   45   47 1    
    94   47   48 1    
    95   47   49 1    
    96   47  170 1    
    97   48  171 1    
    98   48  172 1    
    99   48  173 1    
   100   49   50 am   BACKBONE|DICT|INTERRES
   101   49  174 1    
   102   50   51 2    
   103   50   52 1    
   104   52   53 1    
   105   52   54 1    
   106   52  175 1    
   107   53  176 1    
   108   53  177 1    
   109   53  178 1    
   110   54   55 am   BACKBONE|DICT|INTERRES
   111   54  179 1    
   112   55   56 2    
   113   55   57 1    
   114   57   58 1    
   115   57   59 1    
   116   57  180 1    
   117   58  181 1    
   118   58  182 1    
   119   58  183 1    
   120   59   60 am   BACKBONE|DICT|INTERRES
   121   59  184 1    
   122   60   61 2    
   123   60   62 1    
   124   62   63 1    
   125   62   64 1    
   126   62  185 1    
   127   63  186 1    
   128   63  187 1    
   129   63  188 1    
   130   64   65 am   BACKBONE|DICT|INTERRES
   131   64  189 1    
   132   65   66 2    
   133   67   68 2    
   134   67   69 am   BACKBONE|DICT|INTERRES
   135   69   70 1    
   136   69  190 1    
   137   70   71 1    
   138   70   72 1    
   139   70  191 1    
   140   71  192 1    
   141   71  193 1    
   142   71  194 1    
   143   72   73 2    
   144   72   74 am   BACKBONE|DICT|INTERRES
   145   74   75 1    
   146   74  195 1    
   147   75   76 1    
   148   75   77 1    
   149   75  196 1    
   150   76  197 1    
   151   76  198 1    
   152   76  199 1    
   153   77   78 2    
   154   77   79 am   BACKBONE|DICT|INTERRES
   155   79   80 1    
   156   79  200 1    
   157   80   81 1    
   158   80   82 1    
   159   80  201 1    
   160   81  202 1    
   161   81  203 1    
   162   81  204 1    
   163   82   83 2    
   164   82   84 am   BACKBONE|DICT|INTERRES
   165   84   85 1    
   166   84  205 1    
   167   85   86 1    
   168   85   87 1    
   169   85  206 1    
   170   86  207 1    
   171   86  208 1    
   172   86  209 1    
   173   87   88 2    
   174   87   89 am   BACKBONE|DICT|INTERRES
   175   89   90 1    
   176   89  210 1    
   177   90   91 1    
   178   90   92 1    
   179   90  211 1    
   180   91  212 1    
   181   91  213 1    
   182   91  214 1    
   183   92   93 2    
   184   92   94 am   BACKBONE|DICT|INTERRES
   185   94   95 1    
   186   94  215 1    
   187   95   96 1    
   188   95   97 1    
   189   95  216 1    
   190   96  217 1    
   191   96  218 1    
   192   96  219 1    
   193   97   98 2    
   194   97   99 am   BACKBONE|DICT|INTERRES
   195   99  100 1    
   196   99  220 1    
   197  100  101 1    
   198  100  102 1    
   199  100  221 1    
   200  101  222 1    
   201  101  223 1    
   202  101  224 1    
   203  102  103 2    
   204  102  104 am   BACKBONE|DICT|INTERRES
   205  104  105 1    
   206  104  225 1    
   207  105  106 1    
   208  105  107 1    
   209  105  226 1    
   210  106  227 1    
   211  106  228 1    
   212  106  229 1    
   213  107  108 2    
   214  107  109 am   BACKBONE|DICT|INTERRES
   215  109  110 1    
   216  109  230 1    
   217  110  111 1    
   218  110  112 1    
   219  110  231 1    
   220  111  232 1    
   221  111  233 1    
   222  111  234 1    
   223  112  113 2    
   224  112  114 am   BACKBONE|DICT|INTERRES
   225  114  115 1    
   226  114  235 1    
   227  115  116 1    
   228  115  117 1    
   229  115  236 1    
   230  116  237 1    
   231  116  238 1    
   232  116  239 1    
   233  117  118 2    
   234  117  119 am   BACKBONE|DICT|INTERRES
   235  119  120 1    
   236  119  240 1    
   237  120  121 1    
   238  120  124 1    
   239  120  241 1    
   240  121  122 am   BACKBONE|DICT|INTERRES
   241  121  123 2    
   242  122  242 1    
   243  122  243 1    
   244  124  125 1    
   245  124  244 1    
   246  124  245 1    
   247  125  126 1    
   248  126  246 1    
   249  126  247 1    
@<TRIPOS>SUBSTRUCTURE
     1 UNK         1 GROUP             0       ****    0 ROOT    
