@<TRIPOS>MOLECULE
3R540
247   249    1
SMALL
USER_CHARGES


@<TRIPOS>ATOM
      1 CA         -4.2456  -11.8953  -42.6515 C.3       0 UNK        -0.1800 
      2 C          -4.0768  -11.0787  -43.9251 C.2       0 UNK         0.5000 
      3 O          -4.0574   -9.8486  -43.8683 O.2       0 UNK        -0.5000 
      4 N          -3.9620  -11.7586  -45.0715 N.am      1 UNK        -0.5000 
      5 CA         -3.6840  -11.1666  -46.3833 C.3       1 UNK         0.1400 
      6 C6         -4.0309  -12.1519  -47.5293 C.3       23 UNK        -0.0398 
      7 S7         -3.1443  -13.7496  -47.4609 S.3       23 UNK        -0.2404 
      8 C8         -3.9597  -14.6091  -48.8390 C.3       23 UNK        -0.0205 
      9 C9         -3.3620  -15.9866  -49.0733 C.ar      23 UNK        -0.0193 
     10 C10        -2.1789  -16.1175  -49.8042 C.ar      23 UNK        -0.1150 
     11 C11        -1.6361  -17.3792  -50.0568 C.ar      23 UNK        -0.0193 
     12 C12        -2.2824  -18.5180  -49.5663 C.ar      23 UNK        -0.1150 
     13 C13        -3.4723  -18.4014  -48.8400 C.ar      23 UNK        -0.0193 
     14 C14        -4.0041  -17.1319  -48.5926 C.ar      23 UNK        -0.1150 
     15 C15        -4.2228  -19.6459  -48.3854 C.3       23 UNK        -0.0205 
     16 S16        -4.2163  -19.8801  -46.5790 S.3       23 UNK        -0.2404 
     17 C17        -2.4870  -20.3505  -46.2554 C.3       23 UNK        -0.0398 
     18 CA         -2.1599  -21.8383  -46.5332 C.3       11 UNK         0.1400 
     19 N          -0.7142  -22.0517  -46.5495 N.am      11 UNK        -0.5000 
     20 C          -0.0877  -23.1878  -46.8789 C.2       10 UNK         0.5000 
     21 O          -0.6622  -24.2107  -47.2459 O.2       10 UNK        -0.5000 
     22 CA          1.4409  -23.1862  -46.7253 C.3       10 UNK         0.1400 
     23 CB          2.1067  -22.4853  -47.9196 C.3       10 UNK        -0.1800 
     24 N           1.8620  -22.5444  -45.4794 N.am      10 UNK        -0.5000 
     25 C           1.6357  -23.0420  -44.2553 C.2       9 UNK         0.5000 
     26 O           1.0663  -24.1129  -44.0440 O.2       9 UNK        -0.5000 
     27 CA          2.0823  -22.1694  -43.0681 C.3       9 UNK         0.1400 
     28 CB          3.6025  -22.2553  -42.8652 C.3       9 UNK        -0.1800 
     29 N           1.6892  -20.7681  -43.2243 N.am      9 UNK        -0.5000 
     30 C           0.4190  -20.3414  -43.2466 C.2       8 UNK         0.5000 
     31 O          -0.5545  -21.0824  -43.1184 O.2       8 UNK        -0.5000 
     32 CA          0.1882  -18.8409  -43.5009 C.3       8 UNK         0.1400 
     33 CB          0.2044  -18.0711  -42.1729 C.3       8 UNK        -0.1800 
     34 N           1.1172  -18.2330  -44.4647 N.am      8 UNK        -0.5000 
     35 C           1.2868  -18.6727  -45.7227 C.2       7 UNK         0.5000 
     36 O           0.7342  -19.6793  -46.1646 O.2       7 UNK        -0.5000 
     37 CA          2.1968  -17.8816  -46.6752 C.3       7 UNK         0.1400 
     38 CB          1.3423  -17.1660  -47.7309 C.3       7 UNK        -0.1800 
     39 N           3.0867  -16.9133  -46.0355 N.am      7 UNK        -0.5000 
     40 C           4.2083  -17.2390  -45.3771 C.2       6 UNK         0.5000 
     41 O           4.5174  -18.3979  -45.0973 O.2       6 UNK        -0.5000 
     42 CA          5.1520  -16.0893  -44.9823 C.3       6 UNK         0.1400 
     43 CB          6.0464  -15.7003  -46.1699 C.3       6 UNK        -0.1800 
     44 N           4.4038  -14.9132  -44.5432 N.am      6 UNK        -0.5000 
     45 C           4.4773  -14.3708  -43.3200 C.2       5 UNK         0.5000 
     46 O           5.2842  -14.7236  -42.4586 O.2       5 UNK        -0.5000 
     47 CA          3.4572  -13.2605  -42.9827 C.3       5 UNK         0.1400 
     48 CB          4.0774  -11.8740  -43.2132 C.3       5 UNK        -0.1800 
     49 N           2.2032  -13.3500  -43.7371 N.am      5 UNK        -0.5000 
     50 C           1.3882  -14.4140  -43.7636 C.2       4 UNK         0.5000 
     51 O           1.5735  -15.4283  -43.0947 O.2       4 UNK        -0.5000 
     52 CA          0.2067  -14.3783  -44.7499 C.3       4 UNK         0.1400 
     53 CB         -1.0887  -14.0014  -44.0153 C.3       4 UNK        -0.1800 
     54 N           0.3828  -13.4914  -45.9061 N.am      4 UNK        -0.5000 
     55 C           1.3881  -13.5345  -46.7996 C.2       3 UNK         0.5000 
     56 O           2.3693  -14.2707  -46.6822 O.2       3 UNK        -0.5000 
     57 CA          1.2985  -12.6002  -48.0174 C.3       3 UNK         0.1400 
     58 CB          0.6784  -13.3597  -49.2061 C.3       3 UNK        -0.1800 
     59 N           0.5161  -11.4111  -47.6916 N.am      3 UNK        -0.5000 
     60 C           0.3254  -10.3155  -48.4286 C.2       2 UNK         0.5000 
     61 O           0.8425  -10.1307  -49.5317 O.2       2 UNK        -0.5000 
     62 CA         -0.6273   -9.2618  -47.8124 C.3       2 UNK         0.1400 
     63 CB         -0.8183   -8.0332  -48.7201 C.3       2 UNK        -0.1800 
     64 N          -1.9500   -9.8104  -47.4811 N.am      2 UNK        -0.5000 
     65 C          -2.2268  -10.6613  -46.4823 C.2       1 UNK         0.5000 
     66 O          -1.3701  -11.0825  -45.6980 O.2       1 UNK        -0.5000 
     67 C          -2.8742  -22.8136  -45.5731 C.2       11 UNK         0.5000 
     68 O          -3.8597  -23.4360  -45.9717 O.2       11 UNK        -0.5000 
     69 N          -2.3338  -22.9827  -44.3578 N.am      12 UNK        -0.5000 
     70 CA         -2.8149  -23.9477  -43.3701 C.3       12 UNK         0.1400 
     71 CB         -2.1141  -23.7077  -42.0243 C.3       12 UNK        -0.1800 
     72 C          -2.6350  -25.4064  -43.8265 C.2       12 UNK         0.5000 
     73 O          -3.5820  -26.1873  -43.7293 O.2       12 UNK        -0.5000 
     74 N          -1.4400  -25.7422  -44.3353 N.am      13 UNK        -0.5000 
     75 CA         -1.0847  -27.0845  -44.8050 C.3       13 UNK         0.1400 
     76 CB          0.4161  -27.1354  -45.1284 C.3       13 UNK        -0.1800 
     77 C          -1.9134  -27.5514  -46.0158 C.2       13 UNK         0.5000 
     78 O          -2.3222  -28.7122  -46.0624 O.2       13 UNK        -0.5000 
     79 N          -2.1603  -26.6370  -46.9616 N.am      14 UNK        -0.5000 
     80 CA         -2.9480  -26.8804  -48.1702 C.3       14 UNK         0.1400 
     81 CB         -2.5293  -25.8590  -49.2371 C.3       14 UNK        -0.1800 
     82 C          -4.4697  -26.8076  -47.9406 C.2       14 UNK         0.5000 
     83 O          -5.2207  -27.1238  -48.8626 O.2       14 UNK        -0.5000 
     84 N          -4.9019  -26.3612  -46.7511 N.am      15 UNK        -0.5000 
     85 CA         -6.2909  -26.0894  -46.3638 C.3       15 UNK         0.1400 
     86 CB         -7.1104  -27.3943  -46.2854 C.3       15 UNK        -0.1800 
     87 C          -6.9299  -25.0157  -47.2701 C.2       15 UNK         0.5000 
     88 O          -7.9847  -25.2377  -47.8660 O.2       15 UNK        -0.5000 
     89 N          -6.2258  -23.8819  -47.3797 N.am      16 UNK        -0.5000 
     90 CA         -6.5142  -22.6762  -48.1623 C.3       16 UNK         0.1400 
     91 CB         -7.9077  -22.0995  -47.8459 C.3       16 UNK        -0.1800 
     92 C          -6.2755  -22.8011  -49.6797 C.2       16 UNK         0.5000 
     93 O          -6.2529  -21.7737  -50.3586 O.2       16 UNK        -0.5000 
     94 N          -6.0503  -24.0185  -50.1963 N.am      17 UNK        -0.5000 
     95 CA         -5.8639  -24.2946  -51.6267 C.3       17 UNK         0.1400 
     96 CB         -5.9053  -25.8108  -51.8645 C.3       17 UNK        -0.1800 
     97 C          -4.5843  -23.6847  -52.2355 C.2       17 UNK         0.5000 
     98 O          -4.5136  -23.5304  -53.4554 O.2       17 UNK        -0.5000 
     99 N          -3.6121  -23.3164  -51.3863 N.am      18 UNK        -0.5000 
    100 CA        -2.3646  -22.6487  -51.7695 C.3       18 UNK         0.1400 
    101 CB        -1.4518  -22.5062  -50.5416 C.3       18 UNK        -0.1800 
    102 C         -2.5737  -21.2742  -52.4317 C.2       18 UNK         0.5000 
    103 O         -1.7285  -20.8660  -53.2270 O.2       18 UNK        -0.5000 
    104 N         -3.7041  -20.6106  -52.1373 N.am      19 UNK        -0.5000 
    105 CA        -4.1015  -19.3053  -52.6801 C.3       19 UNK         0.1400 
    106 CB        -5.4354  -18.8868  -52.0431 C.3       19 UNK        -0.1800 
    107 C         -4.2191  -19.2540  -54.2176 C.2       19 UNK         0.5000 
    108 O         -4.1913  -18.1651  -54.7917 O.2       19 UNK        -0.5000 
    109 N         -4.3446  -20.4242  -54.8578 N.am      20 UNK        -0.5000 
    110 CA        -4.4001  -20.5917  -56.3073 C.3       20 UNK         0.1400 
    111 CB        -4.8734  -22.0210  -56.6146 C.3       20 UNK        -0.1800 
    112 C         -3.0683  -20.3003  -57.0310 C.2       20 UNK         0.5000 
    113 O         -3.0951  -20.1145  -58.2491 O.2       20 UNK        -0.5000 
    114 N         -1.9376  -20.2783  -56.3077 N.am      21 UNK        -0.5000 
    115 CA        -0.6109  -20.0687  -56.8943 C.3       21 UNK         0.1400 
    116 CB        -0.0304  -21.4148  -57.3638 C.3       21 UNK        -0.1800 
    117 C          0.3713  -19.3536  -55.9540 C.2       21 UNK         0.5000 
    118 O          1.1506  -18.5260  -56.4282 O.2       21 UNK        -0.5000 
    119 N          0.3422  -19.6888  -54.6571 N.am      22 UNK        -0.5000 
    120 CA         1.2466  -19.1840  -53.6058 C.3       22 UNK         0.1400 
    121 C          2.7529  -19.5481  -53.7988 C.2       22 UNK         0.5000 
    122 N          3.0899  -20.5641  -54.5842 N.am      22 UNK        -0.7600 
    123 O          3.6321  -18.9291  -53.2053 O.2       22 UNK        -0.5000 
    124 C124        1.0202  -17.6807  -53.2802 C.3       23 UNK        -0.0398 
    125 S125       -0.6612  -17.3654  -52.6473 S.3       23 UNK        -0.2404 
    126 C126       -0.3529  -17.5044  -50.8607 C.3       23 UNK        -0.0205 
    127 H127       -4.2446  -12.9667  -42.8540 H         1 UNK         0.0600 
    128 H128       -5.1866  -11.6416  -42.1635 H         1 UNK         0.0600 
    129 H129       -3.4314  -11.6811  -41.9592 H         1 UNK         0.0600 
    130 H130       -3.9608  -12.7681  -45.0521 H         1 UNK         0.3000 
    131 H131       -4.3310  -10.2936  -46.4930 H         1 UNK         0.0600 
    132 H132       -5.1017  -12.3595  -47.5044 H         1 UNK         0.0800 
    133 H133       -3.8463  -11.6924  -48.5018 H         1 UNK         0.0800 
    134 H134       -3.8636  -14.0119  -49.7472 H         1 UNK         0.0800 
    135 H135       -5.0283  -14.6898  -48.6339 H         1 UNK         0.0800 
    136 H136       -1.6857  -15.2364  -50.1890 H         1 UNK         0.1150 
    137 H137       -1.8695  -19.4947  -49.7716 H         1 UNK         0.1150 
    138 H138       -4.9280  -17.0391  -48.0393 H         1 UNK         0.1150 
    139 H139       -5.2609  -19.5644  -48.7099 H         1 UNK         0.0800 
    140 H140       -3.8281  -20.5370  -48.8736 H         1 UNK         0.0800 
    141 H141       -2.2567  -20.1006  -45.2196 H         1 UNK         0.0800 
    142 H142       -1.8496  -19.7067  -46.8626 H         1 UNK         0.0800 
    143 H143       -2.5150  -22.0778  -47.5355 H         1 UNK         0.0600 
    144 H144       -0.1422  -21.2493  -46.2917 H         1 UNK         0.3000 
    145 H145        1.7777  -24.2248  -46.7064 H         1 UNK         0.0600 
    146 H146        3.1933  -22.5367  -47.8506 H         1 UNK         0.0600 
    147 H147        1.8177  -22.9589  -48.8588 H         1 UNK         0.0600 
    148 H148        1.8243  -21.4338  -47.9834 H         1 UNK         0.0600 
    149 H149        2.2775  -21.6279  -45.5589 H         1 UNK         0.3000 
    150 H150        1.5967  -22.5582  -42.1704 H         1 UNK         0.0600 
    151 H151        3.9218  -23.2911  -42.7429 H         1 UNK         0.0600 
    152 H152        3.9111  -21.7134  -41.9711 H         1 UNK         0.0600 
    153 H153        4.1485  -21.8404  -43.7135 H         1 UNK         0.0600 
    154 H154        2.4280  -20.0929  -43.3595 H         1 UNK         0.3000 
    155 H155       -0.8140  -18.7430  -43.9211 H         1 UNK         0.0600 
    156 H156        1.2169  -17.9558  -41.7847 H         1 UNK         0.0600 
    157 H157       -0.3842  -18.5837  -41.4106 H         1 UNK         0.0600 
    158 H158       -0.2319  -17.0799  -42.2905 H         1 UNK         0.0600 
    159 H159        1.6008  -17.3960  -44.1633 H         1 UNK         0.3000 
    160 H160        2.8179  -18.6134  -47.1964 H         1 UNK         0.0600 
    161 H161        0.6674  -16.4367  -47.2834 H         1 UNK         0.0600 
    162 H162        0.7263  -17.8836  -48.2724 H         1 UNK         0.0600 
    163 H163        1.9634  -16.6497  -48.4629 H         1 UNK         0.0600 
    164 H164        2.8976  -15.9370  -46.2483 H         1 UNK         0.3000 
    165 H165        5.7942  -16.4612  -44.1814 H         1 UNK         0.0600 
    166 H166        6.7655  -14.9327  -45.8838 H         1 UNK         0.0600 
    167 H167        6.6135  -16.5593  -46.5311 H         1 UNK         0.0600 
    168 H168        5.4613  -15.3153  -47.0063 H         1 UNK         0.0600 
    169 H169        3.7067  -14.5543  -45.1862 H         1 UNK         0.3000 
    170 H170        3.2102  -13.3562  -41.9235 H         1 UNK         0.0600 
    171 H171        5.0016  -11.7597  -42.6453 H         1 UNK         0.0600 
    172 H172        4.3159  -11.7110  -44.2651 H         1 UNK         0.0600 
    173 H173        3.4015  -11.0805  -42.8940 H         1 UNK         0.0600 
    174 H174        1.9739  -12.5647  -44.3278 H         1 UNK         0.3000 
    175 H175        0.0882  -15.3913  -45.1384 H         1 UNK         0.0600 
    176 H176       -1.0574  -12.9759  -43.6452 H         1 UNK         0.0600 
    177 H177       -1.9545  -14.0956  -44.6697 H         1 UNK         0.0600 
    178 H178       -1.2601  -14.6552  -43.1591 H         1 UNK         0.0600 
    179 H179       -0.3840  -12.8487  -46.0582 H         1 UNK         0.3000 
    180 H180        2.3124  -12.2893  -48.2762 H         1 UNK         0.0600 
    181 H181        0.7079  -12.7696  -50.1216 H         1 UNK         0.0600 
    182 H182       -0.3618  -13.6206  -49.0094 H         1 UNK         0.0600 
    183 H183        1.2179  -14.2865  -49.4057 H         1 UNK         0.0600 
    184 H184        0.0436  -11.4187  -46.7918 H         1 UNK         0.3000 
    185 H185       -0.1610   -8.9169  -46.8872 H         1 UNK         0.0600 
    186 H186       -1.4392   -7.2784  -48.2371 H         1 UNK         0.0600 
    187 H187        0.1387   -7.5630  -48.9502 H         1 UNK         0.0600 
    188 H188       -1.2898   -8.3011  -49.6665 H         1 UNK         0.0600 
    189 H189       -2.6984   -9.5335  -48.0998 H         1 UNK         0.3000 
    190 H190       -1.5425  -22.4091  -44.0784 H         1 UNK         0.3000 
    191 H191       -3.8837  -23.7745  -43.2281 H         1 UNK         0.0600 
    192 H192       -2.4542  -24.4207  -41.2723 H         1 UNK         0.0600 
    193 H193       -2.3263  -22.7084  -41.6439 H         1 UNK         0.0600 
    194 H194       -1.0314  -23.8089  -42.1094 H         1 UNK         0.0600 
    195 H195       -0.7019  -25.0455  -44.3614 H         1 UNK         0.3000 
    196 H196       -1.2772  -27.7819  -43.9871 H         1 UNK         0.0600 
    197 H197        0.6832  -26.4211  -45.9080 H         1 UNK         0.0600 
    198 H198        1.0167  -26.9092  -44.2473 H         1 UNK         0.0600 
    199 H199        0.7093  -28.1270  -45.4753 H         1 UNK         0.0600 
    200 H200       -1.7367  -25.7152  -46.8782 H         1 UNK         0.3000 
    201 H201       -2.7193  -27.8793  -48.5471 H         1 UNK         0.0600 
    202 H202       -2.7802  -24.8437  -48.9286 H         1 UNK         0.0600 
    203 H203       -3.0265  -26.0514  -50.1876 H         1 UNK         0.0600 
    204 H204       -1.4557  -25.8994  -49.4220 H         1 UNK         0.0600 
    205 H205       -4.2026  -26.1125  -46.0636 H         1 UNK         0.3000 
    206 H206       -6.2521  -25.6646  -45.3596 H         1 UNK         0.0600 
    207 H207       -6.6356  -28.1166  -45.6214 H         1 UNK         0.0600 
    208 H208       -8.1101  -27.2016  -45.8946 H         1 UNK         0.0600 
    209 H209       -7.2281  -27.8640  -47.2623 H         1 UNK         0.0600 
    210 H210       -5.3558  -23.8272  -46.8487 H         1 UNK         0.3000 
    211 H211       -5.7846  -21.9489  -47.8143 H         1 UNK         0.0600 
    212 H212       -8.0336  -21.1179  -48.3044 H         1 UNK         0.0600 
    213 H213       -8.0490  -21.9751  -46.7723 H         1 UNK         0.0600 
    214 H214       -8.7090  -22.7358  -48.2216 H         1 UNK         0.0600 
    215 H215       -6.0914  -24.8201  -49.5811 H         1 UNK         0.3000 
    216 H216       -6.7095  -23.8506  -52.1560 H         1 UNK         0.0600 
    217 H217       -5.0554  -26.3151  -51.4061 H         1 UNK         0.0600 
    218 H218       -5.8814  -26.0384  -52.9310 H         1 UNK         0.0600 
    219 H219       -6.8161  -26.2517  -51.4588 H         1 UNK         0.0600 
    220 H220       -3.7607  -23.4792  -50.4028 H         1 UNK         0.3000 
    221 H221       -1.8588  -23.2848  -52.4988 H         1 UNK         0.0600 
    222 H222       -1.1719  -23.4774  -50.1362 H         1 UNK         0.0600 
    223 H223       -1.9311  -21.9333  -49.7498 H         1 UNK         0.0600 
    224 H224       -0.5250  -21.9916  -50.7996 H         1 UNK         0.0600 
    225 H225       -4.3686  -21.0477  -51.5116 H         1 UNK         0.3000 
    226 H226       -3.3409  -18.5805  -52.3882 H         1 UNK         0.0600 
    227 H227       -6.2295  -19.5990  -52.2709 H         1 UNK         0.0600 
    228 H228       -5.3539  -18.8131  -50.9608 H         1 UNK         0.0600 
    229 H229       -5.7546  -17.9090  -52.4062 H         1 UNK         0.0600 
    230 H230       -4.3584  -21.2730  -54.3073 H         1 UNK         0.3000 
    231 H231       -5.1430  -19.8944  -56.7000 H         1 UNK         0.0600 
    232 H232       -4.1704  -22.7653  -56.2379 H         1 UNK         0.0600 
    233 H233       -4.9754  -22.1790  -57.6890 H         1 UNK         0.0600 
    234 H234       -5.8457  -22.2212  -56.1638 H         1 UNK         0.0600 
    235 H235       -1.9905  -20.4039  -55.3037 H         1 UNK         0.3000 
    236 H236       -0.7075  -19.4204  -57.7682 H         1 UNK         0.0600 
    237 H237       -0.6517  -21.8645  -58.1384 H         1 UNK         0.0600 
    238 H238        0.9679  -21.2869  -57.7846 H         1 UNK         0.0600 
    239 H239        0.0459  -22.1267  -56.5412 H         1 UNK         0.0600 
    240 H240       -0.3636  -20.3352  -54.3158 H         1 UNK         0.3000 
    241 H241        0.9681  -19.7424  -52.7114 H         1 UNK         0.0600 
    242 H242        4.0629  -20.8017  -54.6974 H         1 UNK         0.3800 
    243 H243        2.3840  -21.0949  -55.0680 H         1 UNK         0.3800 
    244 H244        1.1824  -17.0662  -54.1661 H         1 UNK         0.0800 
    245 H245        1.7356  -17.3243  -52.5375 H         1 UNK         0.0800 
    246 H246        0.1312  -18.4594  -50.6505 H         1 UNK         0.0800 
    247 H247        0.3466  -16.7251  -50.5549 H         1 UNK         0.0800 
@<TRIPOS>BOND
     1    1    2 1    
     2    1  127 1    
     3    1  128 1    
     4    1  129 1    
     5    2    3 2    
     6    2    4 am   BACKBONE|DICT|INTERRES
     7    4    5 1    
     8    4  130 1    
     9    5    6 1    
    10    5   65 1    
    11    5  131 1    
    12    6    7 1    
    13    6  132 1    
    14    6  133 1    
    15    7    8 1    
    16    8    9 1    
    17    8  134 1    
    18    8  135 1    
    19    9   10 ar   
    20    9   14 ar   
    21   10   11 ar   
    22   10  136 1    
    23   11   12 ar   
    24   11  126 1    
    25   12   13 ar   
    26   12  137 1    
    27   13   14 ar   
    28   13   15 1    
    29   14  138 1    
    30   15   16 1    
    31   15  139 1    
    32   15  140 1    
    33   16   17 1    
    34   17   18 1    
    35   17  141 1    
    36   17  142 1    
    37   18   19 1    
    38   18   67 1    
    39   18  143 1    
    40   19   20 am   BACKBONE|DICT|INTERRES
    41   19  144 1    
    42   20   21 2    
    43   20   22 1    
    44   22   23 1    
    45   22   24 1    
    46   22  145 1    
    47   23  146 1    
    48   23  147 1    
    49   23  148 1    
    50   24   25 am   BACKBONE|DICT|INTERRES
    51   24  149 1    
    52   25   26 2    
    53   25   27 1    
    54   27   28 1    
    55   27   29 1    
    56   27  150 1    
    57   28  151 1    
    58   28  152 1    
    59   28  153 1    
    60   29   30 am   BACKBONE|DICT|INTERRES
    61   29  154 1    
    62   30   31 2    
    63   30   32 1    
    64   32   33 1    
    65   32   34 1    
    66   32  155 1    
    67   33  156 1    
    68   33  157 1    
    69   33  158 1    
    70   34   35 am   BACKBONE|DICT|INTERRES
    71   34  159 1    
    72   35   36 2    
    73   35   37 1    
    74   37   38 1    
    75   37   39 1    
    76   37  160 1    
    77   38  161 1    
    78   38  162 1    
    79   38  163 1    
    80   39   40 am   BACKBONE|DICT|INTERRES
    81   39  164 1    
    82   40   41 2    
    83   40   42 1    
    84   42   43 1    
    85   42   44 1    
    86   42  165 1    
    87   43  166 1    
    88   43  167 1    
    89   43  168 1    
    90   44   45 am   BACKBONE|DICT|INTERRES
    91   44  169 1    
    92   45   46 2    
    93   45   47 1    
    94   47   48 1    
    95   47   49 1    
    96   47  170 1    
    97   48  171 1    
    98   48  172 1    
    99   48  173 1    
   100   49   50 am   BACKBONE|DICT|INTERRES
   101   49  174 1    
   102   50   51 2    
   103   50   52 1    
   104   52   53 1    
   105   52   54 1    
   106   52  175 1    
   107   53  176 1    
   108   53  177 1    
   109   53  178 1    
   110   54   55 am   BACKBONE|DICT|INTERRES
   111   54  179 1    
   112   55   56 2    
   113   55   57 1    
   114   57   58 1    
   115   57   59 1    
   116   57  180 1    
   117   58  181 1    
   118   58  182 1    
   119   58  183 1    
   120   59   60 am   BACKBONE|DICT|INTERRES
   121   59  184 1    
   122   60   61 2    
   123   60   62 1    
   124   62   63 1    
   125   62   64 1    
   126   62  185 1    
   127   63  186 1    
   128   63  187 1    
   129   63  188 1    
   130   64   65 am   BACKBONE|DICT|INTERRES
   131   64  189 1    
   132   65   66 2    
   133   67   68 2    
   134   67   69 am   BACKBONE|DICT|INTERRES
   135   69   70 1    
   136   69  190 1    
   137   70   71 1    
   138   70   72 1    
   139   70  191 1    
   140   71  192 1    
   141   71  193 1    
   142   71  194 1    
   143   72   73 2    
   144   72   74 am   BACKBONE|DICT|INTERRES
   145   74   75 1    
   146   74  195 1    
   147   75   76 1    
   148   75   77 1    
   149   75  196 1    
   150   76  197 1    
   151   76  198 1    
   152   76  199 1    
   153   77   78 2    
   154   77   79 am   BACKBONE|DICT|INTERRES
   155   79   80 1    
   156   79  200 1    
   157   80   81 1    
   158   80   82 1    
   159   80  201 1    
   160   81  202 1    
   161   81  203 1    
   162   81  204 1    
   163   82   83 2    
   164   82   84 am   BACKBONE|DICT|INTERRES
   165   84   85 1    
   166   84  205 1    
   167   85   86 1    
   168   85   87 1    
   169   85  206 1    
   170   86  207 1    
   171   86  208 1    
   172   86  209 1    
   173   87   88 2    
   174   87   89 am   BACKBONE|DICT|INTERRES
   175   89   90 1    
   176   89  210 1    
   177   90   91 1    
   178   90   92 1    
   179   90  211 1    
   180   91  212 1    
   181   91  213 1    
   182   91  214 1    
   183   92   93 2    
   184   92   94 am   BACKBONE|DICT|INTERRES
   185   94   95 1    
   186   94  215 1    
   187   95   96 1    
   188   95   97 1    
   189   95  216 1    
   190   96  217 1    
   191   96  218 1    
   192   96  219 1    
   193   97   98 2    
   194   97   99 am   BACKBONE|DICT|INTERRES
   195   99  100 1    
   196   99  220 1    
   197  100  101 1    
   198  100  102 1    
   199  100  221 1    
   200  101  222 1    
   201  101  223 1    
   202  101  224 1    
   203  102  103 2    
   204  102  104 am   BACKBONE|DICT|INTERRES
   205  104  105 1    
   206  104  225 1    
   207  105  106 1    
   208  105  107 1    
   209  105  226 1    
   210  106  227 1    
   211  106  228 1    
   212  106  229 1    
   213  107  108 2    
   214  107  109 am   BACKBONE|DICT|INTERRES
   215  109  110 1    
   216  109  230 1    
   217  110  111 1    
   218  110  112 1    
   219  110  231 1    
   220  111  232 1    
   221  111  233 1    
   222  111  234 1    
   223  112  113 2    
   224  112  114 am   BACKBONE|DICT|INTERRES
   225  114  115 1    
   226  114  235 1    
   227  115  116 1    
   228  115  117 1    
   229  115  236 1    
   230  116  237 1    
   231  116  238 1    
   232  116  239 1    
   233  117  118 2    
   234  117  119 am   BACKBONE|DICT|INTERRES
   235  119  120 1    
   236  119  240 1    
   237  120  121 1    
   238  120  124 1    
   239  120  241 1    
   240  121  122 am   BACKBONE|DICT|INTERRES
   241  121  123 2    
   242  122  242 1    
   243  122  243 1    
   244  124  125 1    
   245  124  244 1    
   246  124  245 1    
   247  125  126 1    
   248  126  246 1    
   249  126  247 1    
@<TRIPOS>SUBSTRUCTURE
     1 UNK         1 GROUP             0       ****    0 ROOT    
