@<TRIPOS>MOLECULE
3R540
247   249    1
SMALL
USER_CHARGES


@<TRIPOS>ATOM
      1 CA         -3.5164  -17.4444  -46.5958 C.3       0 UNK        -0.1800 
      2 C          -3.1878  -16.4135  -47.6630 C.2       0 UNK         0.5000 
      3 O          -3.9665  -16.2151  -48.5955 O.2       0 UNK        -0.5000 
      4 N          -2.0305  -15.7584  -47.5177 N.am      1 UNK        -0.5000 
      5 CA         -1.6238  -14.5978  -48.3144 C.3       1 UNK         0.1400 
      6 C6         -0.0816  -14.4327  -48.3970 C.3       23 UNK        -0.0398 
      7 S7          0.8731  -15.6328  -49.4003 S.3       23 UNK        -0.2404 
      8 C8         -0.1767  -17.1021  -49.6253 C.3       23 UNK        -0.0205 
      9 C9          0.5529  -18.1567  -50.4376 C.ar      23 UNK        -0.0193 
     10 C10         0.3568  -18.2448  -51.8176 C.ar      23 UNK        -0.1150 
     11 C11         1.0170  -19.2237  -52.5720 C.ar      23 UNK        -0.0193 
     12 C12         1.8579  -20.1307  -51.9172 C.ar      23 UNK        -0.1150 
     13 C13         2.0488  -20.0643  -50.5338 C.ar      23 UNK        -0.0193 
     14 C14         1.4105  -19.0590  -49.8037 C.ar      23 UNK        -0.1150 
     15 C15         2.9273  -21.0899  -49.8302 C.3       23 UNK        -0.0205 
     16 S16         1.9709  -22.5395  -49.2686 S.3       23 UNK        -0.2404 
     17 C17         1.2240  -21.8983  -47.7342 C.3       23 UNK        -0.0398 
     18 CA          0.4187  -22.9581  -46.9378 C.3       11 UNK         0.1400 
     19 N           0.4296  -22.6663  -45.4983 N.am      11 UNK        -0.5000 
     20 C          -0.0841  -23.4512  -44.5398 C.2       10 UNK         0.5000 
     21 O          -0.5874  -24.5522  -44.7561 O.2       10 UNK        -0.5000 
     22 CA         -0.0899  -22.8901  -43.1044 C.3       10 UNK         0.1400 
     23 CB          1.2612  -23.1283  -42.4148 C.3       10 UNK        -0.1800 
     24 N          -0.4332  -21.4674  -43.0534 N.am      10 UNK        -0.5000 
     25 C          -1.6152  -20.9603  -43.4345 C.2       9 UNK         0.5000 
     26 O          -2.5631  -21.6494  -43.8063 O.2       9 UNK        -0.5000 
     27 CA         -1.7430  -19.4272  -43.4763 C.3       9 UNK         0.1400 
     28 CB         -2.0643  -18.8598  -42.0864 C.3       9 UNK        -0.1800 
     29 N          -0.5437  -18.7814  -44.0074 N.am      9 UNK        -0.5000 
     30 C          -0.0546  -18.9729  -45.2401 C.2       8 UNK         0.5000 
     31 O          -0.6017  -19.6682  -46.0959 O.2       8 UNK        -0.5000 
     32 CA          1.3019  -18.3194  -45.5464 C.3       8 UNK         0.1400 
     33 CB          1.1361  -16.8308  -45.8698 C.3       8 UNK        -0.1800 
     34 N           2.2436  -18.4778  -44.4420 N.am      8 UNK        -0.5000 
     35 C           2.8052  -19.6425  -44.0924 C.2       7 UNK         0.5000 
     36 O           2.6170  -20.6987  -44.6954 O.2       7 UNK        -0.5000 
     37 CA          3.6936  -19.6258  -42.8352 C.3       7 UNK         0.1400 
     38 CB          5.1298  -19.2167  -43.1937 C.3       7 UNK        -0.1800 
     39 N           3.1778  -18.7295  -41.7979 N.am      7 UNK        -0.5000 
     40 C           2.0428  -18.9410  -41.1168 C.2       6 UNK         0.5000 
     41 O           1.3289  -19.9314  -41.2716 O.2       6 UNK        -0.5000 
     42 CA          1.6096  -17.8358  -40.1356 C.3       6 UNK         0.1400 
     43 CB          2.3184  -18.0040  -38.7835 C.3       6 UNK        -0.1800 
     44 N           1.8424  -16.4797  -40.6447 N.am      6 UNK        -0.5000 
     45 C           1.2552  -15.9703  -41.7354 C.2       5 UNK         0.5000 
     46 O           0.4967  -16.6142  -42.4631 O.2       5 UNK        -0.5000 
     47 CA          1.6157  -14.5195  -42.1041 C.3       5 UNK         0.1400 
     48 CB          2.8536  -14.4915  -43.0142 C.3       5 UNK        -0.1800 
     49 N           0.5122  -13.8449  -42.7888 N.am      5 UNK        -0.5000 
     50 C          -0.6355  -13.4723  -42.2055 C.2       4 UNK         0.5000 
     51 O          -0.8569  -13.6064  -41.0001 O.2       4 UNK        -0.5000 
     52 CA         -1.7096  -12.8493  -43.1264 C.3       4 UNK         0.1400 
     53 CB         -2.7552  -12.0171  -42.3550 C.3       4 UNK        -0.1800 
     54 N          -1.1621  -12.0754  -44.2482 N.am      4 UNK        -0.5000 
     55 C          -0.3830  -10.9821  -44.1840 C.2       3 UNK         0.5000 
     56 O           0.0100  -10.4814  -43.1299 O.2       3 UNK        -0.5000 
     57 CA          0.0479  -10.3372  -45.5197 C.3       3 UNK         0.1400 
     58 CB          1.4987  -10.7236  -45.8493 C.3       3 UNK        -0.1800 
     59 N          -0.8009  -10.7024  -46.6558 N.am      3 UNK        -0.5000 
     60 C          -2.0666  -10.2999  -46.8416 C.2       2 UNK         0.5000 
     61 O          -2.6369   -9.4864  -46.1143 O.2       2 UNK        -0.5000 
     62 CA         -2.8364  -10.9359  -48.0218 C.3       2 UNK         0.1400 
     63 CB         -2.8521   -9.9846  -49.2281 C.3       2 UNK        -0.1800 
     64 N          -2.3231  -12.2438  -48.4554 N.am      2 UNK        -0.5000 
     65 C          -2.2450  -13.3348  -47.6803 C.2       1 UNK         0.5000 
     66 O          -2.5737  -13.3426  -46.4905 O.2       1 UNK        -0.5000 
     67 C          -1.0197  -23.1065  -47.4855 C.2       11 UNK         0.5000 
     68 O          -1.2934  -24.0218  -48.2652 O.2       11 UNK        -0.5000 
     69 N          -1.9236  -22.2227  -47.0412 N.am      12 UNK        -0.5000 
     70 CA         -3.3503  -22.2775  -47.3536 C.3       12 UNK         0.1400 
     71 CB         -4.0064  -20.9311  -47.0269 C.3       12 UNK        -0.1800 
     72 C          -4.0719  -23.4446  -46.6599 C.2       12 UNK         0.5000 
     73 O          -4.8363  -24.1496  -47.3172 O.2       12 UNK        -0.5000 
     74 N          -3.7935  -23.6618  -45.3667 N.am      13 UNK        -0.5000 
     75 CA         -4.3626  -24.7457  -44.5575 C.3       13 UNK         0.1400 
     76 CB         -3.9420  -24.5709  -43.0911 C.3       13 UNK        -0.1800 
     77 C          -3.9843  -26.1504  -45.0644 C.2       13 UNK         0.5000 
     78 O          -4.8179  -27.0560  -45.0290 O.2       13 UNK        -0.5000 
     79 N          -2.7508  -26.2940  -45.5663 N.am      14 UNK        -0.5000 
     80 CA         -2.2465  -27.4970  -46.2311 C.3       14 UNK         0.1400 
     81 CB         -0.7112  -27.4231  -46.2742 C.3       14 UNK        -0.1800 
     82 C          -2.8051  -27.6936  -47.6562 C.2       14 UNK         0.5000 
     83 O          -2.5870  -28.7558  -48.2400 O.2       14 UNK        -0.5000 
     84 N          -3.4759  -26.6659  -48.2012 N.am      15 UNK        -0.5000 
     85 CA         -3.9805  -26.5473  -49.5733 C.3       15 UNK         0.1400 
     86 CB         -5.0857  -27.5854  -49.8550 C.3       15 UNK        -0.1800 
     87 C          -2.8571  -26.5542  -50.6317 C.2       15 UNK         0.5000 
     88 O          -3.0930  -26.9293  -51.7811 O.2       15 UNK        -0.5000 
     89 N          -1.6550  -26.1265  -50.2258 N.am      16 UNK        -0.5000 
     90 CA         -0.4787  -26.0058  -51.0802 C.3       16 UNK         0.1400 
     91 CB          0.7846  -26.1240  -50.2137 C.3       16 UNK        -0.1800 
     92 C          -0.4891  -24.6835  -51.8636 C.2       16 UNK         0.5000 
     93 O          -0.0226  -24.6573  -53.0027 O.2       16 UNK        -0.5000 
     94 N          -1.0259  -23.6209  -51.2452 N.am      17 UNK        -0.5000 
     95 CA         -1.1705  -22.2979  -51.8487 C.3       17 UNK         0.1400 
     96 CB         -1.4213  -21.2288  -50.7722 C.3       17 UNK        -0.1800 
     97 C          -2.1798  -22.2689  -53.0211 C.2       17 UNK         0.5000 
     98 O          -1.7560  -22.0242  -54.1475 O.2       17 UNK        -0.5000 
     99 N          -3.4816  -22.5464  -52.8409 N.am      18 UNK        -0.5000 
    100 CA        -4.2392  -22.7331  -51.5993 C.3       18 UNK         0.1400 
    101 CB        -5.3688  -23.7393  -51.8720 C.3       18 UNK        -0.1800 
    102 C         -4.8159  -21.4062  -51.0532 C.2       18 UNK         0.5000 
    103 O         -5.4747  -21.4194  -50.0148 O.2       18 UNK        -0.5000 
    104 N         -4.5483  -20.2899  -51.7405 N.am      19 UNK        -0.5000 
    105 CA        -4.9092  -18.9280  -51.3617 C.3       19 UNK         0.1400 
    106 CB        -6.3709  -18.6490  -51.7596 C.3       19 UNK        -0.1800 
    107 C         -3.9426  -17.9541  -52.0562 C.2       19 UNK         0.5000 
    108 O         -3.1451  -18.3812  -52.8956 O.2       19 UNK        -0.5000 
    109 N         -4.0568  -16.6621  -51.7180 N.am      20 UNK        -0.5000 
    110 CA        -3.2391  -15.5406  -52.2025 C.3       20 UNK         0.1400 
    111 CB        -3.8010  -14.2360  -51.6111 C.3       20 UNK        -0.1800 
    112 C         -3.1351  -15.3973  -53.7348 C.2       20 UNK         0.5000 
    113 O         -2.1421  -14.8577  -54.2230 O.2       20 UNK        -0.5000 
    114 N         -4.1580  -15.8669  -54.4613 N.am      21 UNK        -0.5000 
    115 CA        -4.2049  -15.8808  -55.9243 C.3       21 UNK         0.1400 
    116 CB        -5.6514  -16.1497  -56.3678 C.3       21 UNK        -0.1800 
    117 C         -3.2467  -16.9076  -56.5637 C.2       21 UNK         0.5000 
    118 O         -2.8820  -16.7384  -57.7285 O.2       21 UNK        -0.5000 
    119 N         -2.8633  -17.9411  -55.8012 N.am      22 UNK        -0.5000 
    120 CA        -2.0081  -19.0665  -56.2112 C.3       22 UNK         0.1400 
    121 C         -2.6120  -19.9244  -57.3696 C.2       22 UNK         0.5000 
    122 N         -1.8210  -20.7323  -58.0650 N.am      22 UNK        -0.7600 
    123 O         -3.8161  -19.9114  -57.6190 O.2       22 UNK        -0.5000 
    124 C124       -0.5246  -18.6445  -56.4342 C.3       23 UNK        -0.0398 
    125 S125        0.2136  -17.8876  -54.9460 S.3       23 UNK        -0.2404 
    126 C126        0.7964  -19.3842  -54.0756 C.3       23 UNK        -0.0205 
    127 H127       -3.5484  -16.9789  -45.6106 H         1 UNK         0.0600 
    128 H128       -4.4858  -17.9049  -46.7867 H         1 UNK         0.0600 
    129 H129       -2.7603  -18.2270  -46.5836 H         1 UNK         0.0600 
    130 H130       -1.4799  -15.9308  -46.6909 H         1 UNK         0.3000 
    131 H131       -2.0095  -14.6959  -49.3289 H         1 UNK         0.0600 
    132 H132        0.3494  -14.4164  -47.3948 H         1 UNK         0.0800 
    133 H133        0.1665  -13.4598  -48.8251 H         1 UNK         0.0800 
    134 H134       -1.1115  -16.8303  -50.1147 H         1 UNK         0.0800 
    135 H135       -0.4410  -17.5311  -48.6594 H         1 UNK         0.0800 
    136 H136       -0.3252  -17.5554  -52.2938 H         1 UNK         0.1150 
    137 H137        2.3473  -20.9110  -52.4834 H         1 UNK         0.1150 
    138 H138        1.5610  -18.9913  -48.7369 H         1 UNK         0.1150 
    139 H139        3.7080  -21.4314  -50.5113 H         1 UNK         0.0800 
    140 H140        3.4442  -20.6330  -48.9849 H         1 UNK         0.0800 
    141 H141        2.0487  -21.5263  -47.1260 H         1 UNK         0.0800 
    142 H142        0.6096  -21.0284  -47.9657 H         1 UNK         0.0800 
    143 H143        0.9103  -23.9263  -47.0543 H         1 UNK         0.0600 
    144 H144        0.8607  -21.7926  -45.2198 H         1 UNK         0.3000 
    145 H145       -0.8508  -23.4320  -42.5401 H         1 UNK         0.0600 
    146 H146        1.2384  -22.7935  -41.3776 H         1 UNK         0.0600 
    147 H147        1.5131  -24.1895  -42.4085 H         1 UNK         0.0600 
    148 H148        2.0720  -22.6025  -42.9177 H         1 UNK         0.0600 
    149 H149        0.2763  -20.8377  -42.6919 H         1 UNK         0.3000 
    150 H150       -2.5728  -19.1827  -44.1422 H         1 UNK         0.0600 
    151 H151       -2.9815  -19.2966  -41.6896 H         1 UNK         0.0600 
    152 H152       -2.2071  -17.7797  -42.1255 H         1 UNK         0.0600 
    153 H153       -1.2669  -19.0652  -41.3726 H         1 UNK         0.0600 
    154 H154       -0.0573  -18.1427  -43.3826 H         1 UNK         0.3000 
    155 H155        1.7201  -18.8144  -46.4244 H         1 UNK         0.0600 
    156 H156        2.0819  -16.3829  -46.1752 H         1 UNK         0.0600 
    157 H157        0.7476  -16.2629  -45.0254 H         1 UNK         0.0600 
    158 H158        0.4375  -16.7056  -46.6913 H         1 UNK         0.0600 
    159 H159        2.4091  -17.6685  -43.8635 H         1 UNK         0.3000 
    160 H160        3.7174  -20.6399  -42.4306 H         1 UNK         0.0600 
    161 H161        5.1750  -18.1994  -43.5845 H         1 UNK         0.0600 
    162 H162        5.5455  -19.8795  -43.9538 H         1 UNK         0.0600 
    163 H163        5.7840  -19.2718  -42.3234 H         1 UNK         0.0600 
    164 H164        3.7072  -17.8913  -41.6086 H         1 UNK         0.3000 
    165 H165        0.5359  -17.9473  -39.9708 H         1 UNK         0.0600 
    166 H166        3.3969  -17.8674  -38.8726 H         1 UNK         0.0600 
    167 H167        1.9479  -17.2858  -38.0519 H         1 UNK         0.0600 
    168 H168        2.1463  -19.0004  -38.3741 H         1 UNK         0.0600 
    169 H169        2.4644  -15.8966  -40.1033 H         1 UNK         0.3000 
    170 H170        1.8408  -13.9692  -41.1881 H         1 UNK         0.0600 
    171 H171        3.7096  -14.9611  -42.5280 H         1 UNK         0.0600 
    172 H172        2.6797  -15.0184  -43.9527 H         1 UNK         0.0600 
    173 H173        3.1413  -13.4677  -43.2547 H         1 UNK         0.0600 
    174 H174        0.6059  -13.7159  -43.7842 H         1 UNK         0.3000 
    175 H175       -2.2356  -13.6925  -43.5765 H         1 UNK         0.0600 
    176 H176       -3.5093  -11.6111  -43.0294 H         1 UNK         0.0600 
    177 H177       -3.2771  -12.6281  -41.6177 H         1 UNK         0.0600 
    178 H178       -2.2966  -11.1829  -41.8232 H         1 UNK         0.0600 
    179 H179       -1.4668  -12.3941  -45.1627 H         1 UNK         0.3000 
    180 H180        0.0008   -9.2537  -45.3915 H         1 UNK         0.0600 
    181 H181        1.8472  -10.2181  -46.7501 H         1 UNK         0.0600 
    182 H182        2.1729  -10.4408  -45.0395 H         1 UNK         0.0600 
    183 H183        1.6051  -11.7982  -46.0036 H         1 UNK         0.0600 
    184 H184       -0.4068  -11.3477  -47.3225 H         1 UNK         0.3000 
    185 H185       -3.8663  -11.0823  -47.6898 H         1 UNK         0.0600 
    186 H186       -3.4740  -10.3770  -50.0330 H         1 UNK         0.0600 
    187 H187       -3.2578   -9.0100  -48.9528 H         1 UNK         0.0600 
    188 H188       -1.8494   -9.8222  -49.6252 H         1 UNK         0.0600 
    189 H189       -2.0219  -12.2994  -49.4176 H         1 UNK         0.3000 
    190 H190       -1.6118  -21.4727  -46.4336 H         1 UNK         0.3000 
    191 H191       -3.4559  -22.4430  -48.4255 H         1 UNK         0.0600 
    192 H192       -5.0840  -20.9689  -47.1918 H         1 UNK         0.0600 
    193 H193       -3.6104  -20.1501  -47.6751 H         1 UNK         0.0600 
    194 H194       -3.8396  -20.6346  -45.9915 H         1 UNK         0.0600 
    195 H195       -3.1905  -23.0026  -44.8787 H         1 UNK         0.3000 
    196 H196       -5.4497  -24.6586  -44.6108 H         1 UNK         0.0600 
    197 H197       -4.3901  -25.3406  -42.4616 H         1 UNK         0.0600 
    198 H198       -4.2612  -23.6047  -42.7003 H         1 UNK         0.0600 
    199 H199       -2.8607  -24.6404  -42.9744 H         1 UNK         0.0600 
    200 H200       -2.0974  -25.5195  -45.4809 H         1 UNK         0.3000 
    201 H201       -2.5338  -28.3692  -45.6406 H         1 UNK         0.0600 
    202 H202       -0.2921  -27.3442  -45.2709 H         1 UNK         0.0600 
    203 H203       -0.3677  -26.5616  -46.8490 H         1 UNK         0.0600 
    204 H204       -0.2854  -28.3159  -46.7337 H         1 UNK         0.0600 
    205 H205       -3.6298  -25.8467  -47.6253 H         1 UNK         0.3000 
    206 H206       -4.4391  -25.5603  -49.6356 H         1 UNK         0.0600 
    207 H207       -5.8600  -27.5531  -49.0886 H         1 UNK         0.0600 
    208 H208       -5.5702  -27.3893  -50.8122 H         1 UNK         0.0600 
    209 H209       -4.6905  -28.6008  -49.8919 H         1 UNK         0.0600 
    210 H210       -1.5643  -25.7601  -49.2845 H         1 UNK         0.3000 
    211 H211       -0.4723  -26.8256  -51.8018 H         1 UNK         0.0600 
    212 H212        0.8206  -25.3532  -49.4439 H         1 UNK         0.0600 
    213 H213        1.6858  -26.0251  -50.8201 H         1 UNK         0.0600 
    214 H214        0.8300  -27.0929  -49.7163 H         1 UNK         0.0600 
    215 H215       -1.3260  -23.7318  -50.2838 H         1 UNK         0.3000 
    216 H216       -0.2020  -22.0534  -52.2888 H         1 UNK         0.0600 
    217 H217       -1.6668  -20.2655  -51.2196 H         1 UNK         0.0600 
    218 H218       -0.5309  -21.0827  -50.1665 H         1 UNK         0.0600 
    219 H219       -2.2166  -21.4925  -50.0829 H         1 UNK         0.0600 
    220 H220       -4.0546  -22.5560  -53.6717 H         1 UNK         0.3000 
    221 H221       -3.6035  -23.1650  -50.8278 H         1 UNK         0.0600 
    222 H222       -6.0737  -23.3623  -52.6141 H         1 UNK         0.0600 
    223 H223       -4.9736  -24.6875  -52.2372 H         1 UNK         0.0600 
    224 H224       -5.9333  -23.9532  -50.9633 H         1 UNK         0.0600 
    225 H225       -3.9574  -20.3395  -52.5612 H         1 UNK         0.3000 
    226 H226       -4.7891  -18.8091  -50.2825 H         1 UNK         0.0600 
    227 H227       -6.6777  -17.6437  -51.4694 H         1 UNK         0.0600 
    228 H228       -6.5171  -18.7414  -52.8365 H         1 UNK         0.0600 
    229 H229       -7.0533  -19.3441  -51.2702 H         1 UNK         0.0600 
    230 H230       -4.7142  -16.4252  -50.9872 H         1 UNK         0.3000 
    231 H231       -2.2277  -15.6884  -51.8221 H         1 UNK         0.0600 
    232 H232       -3.1461  -13.3922  -51.8323 H         1 UNK         0.0600 
    233 H233       -3.9086  -14.2913  -50.5290 H         1 UNK         0.0600 
    234 H234       -4.7840  -14.0035  -52.0229 H         1 UNK         0.0600 
    235 H235       -4.9374  -16.2851  -53.9760 H         1 UNK         0.3000 
    236 H236       -3.9153  -14.8917  -56.2857 H         1 UNK         0.0600 
    237 H237       -6.0024  -17.1235  -56.0236 H         1 UNK         0.0600 
    238 H238       -6.3314  -15.3900  -55.9819 H         1 UNK         0.0600 
    239 H239       -5.7350  -16.1371  -57.4553 H         1 UNK         0.0600 
    240 H240       -3.1733  -17.9748  -54.8359 H         1 UNK         0.3000 
    241 H241       -2.0271  -19.7370  -55.3540 H         1 UNK         0.0600 
    242 H242       -2.2275  -21.2957  -58.7958 H         1 UNK         0.3800 
    243 H243       -0.8352  -20.8126  -57.8744 H         1 UNK         0.3800 
    244 H244       -0.4503  -17.9345  -57.2587 H         1 UNK         0.0800 
    245 H245        0.0956  -19.4967  -56.7127 H         1 UNK         0.0800 
    246 H246        0.0717  -20.1842  -54.2161 H         1 UNK         0.0800 
    247 H247        1.7205  -19.7159  -54.5515 H         1 UNK         0.0800 
@<TRIPOS>BOND
     1    1    2 1    
     2    1  127 1    
     3    1  128 1    
     4    1  129 1    
     5    2    3 2    
     6    2    4 am   BACKBONE|DICT|INTERRES
     7    4    5 1    
     8    4  130 1    
     9    5    6 1    
    10    5   65 1    
    11    5  131 1    
    12    6    7 1    
    13    6  132 1    
    14    6  133 1    
    15    7    8 1    
    16    8    9 1    
    17    8  134 1    
    18    8  135 1    
    19    9   10 ar   
    20    9   14 ar   
    21   10   11 ar   
    22   10  136 1    
    23   11   12 ar   
    24   11  126 1    
    25   12   13 ar   
    26   12  137 1    
    27   13   14 ar   
    28   13   15 1    
    29   14  138 1    
    30   15   16 1    
    31   15  139 1    
    32   15  140 1    
    33   16   17 1    
    34   17   18 1    
    35   17  141 1    
    36   17  142 1    
    37   18   19 1    
    38   18   67 1    
    39   18  143 1    
    40   19   20 am   BACKBONE|DICT|INTERRES
    41   19  144 1    
    42   20   21 2    
    43   20   22 1    
    44   22   23 1    
    45   22   24 1    
    46   22  145 1    
    47   23  146 1    
    48   23  147 1    
    49   23  148 1    
    50   24   25 am   BACKBONE|DICT|INTERRES
    51   24  149 1    
    52   25   26 2    
    53   25   27 1    
    54   27   28 1    
    55   27   29 1    
    56   27  150 1    
    57   28  151 1    
    58   28  152 1    
    59   28  153 1    
    60   29   30 am   BACKBONE|DICT|INTERRES
    61   29  154 1    
    62   30   31 2    
    63   30   32 1    
    64   32   33 1    
    65   32   34 1    
    66   32  155 1    
    67   33  156 1    
    68   33  157 1    
    69   33  158 1    
    70   34   35 am   BACKBONE|DICT|INTERRES
    71   34  159 1    
    72   35   36 2    
    73   35   37 1    
    74   37   38 1    
    75   37   39 1    
    76   37  160 1    
    77   38  161 1    
    78   38  162 1    
    79   38  163 1    
    80   39   40 am   BACKBONE|DICT|INTERRES
    81   39  164 1    
    82   40   41 2    
    83   40   42 1    
    84   42   43 1    
    85   42   44 1    
    86   42  165 1    
    87   43  166 1    
    88   43  167 1    
    89   43  168 1    
    90   44   45 am   BACKBONE|DICT|INTERRES
    91   44  169 1    
    92   45   46 2    
    93   45   47 1    
    94   47   48 1    
    95   47   49 1    
    96   47  170 1    
    97   48  171 1    
    98   48  172 1    
    99   48  173 1    
   100   49   50 am   BACKBONE|DICT|INTERRES
   101   49  174 1    
   102   50   51 2    
   103   50   52 1    
   104   52   53 1    
   105   52   54 1    
   106   52  175 1    
   107   53  176 1    
   108   53  177 1    
   109   53  178 1    
   110   54   55 am   BACKBONE|DICT|INTERRES
   111   54  179 1    
   112   55   56 2    
   113   55   57 1    
   114   57   58 1    
   115   57   59 1    
   116   57  180 1    
   117   58  181 1    
   118   58  182 1    
   119   58  183 1    
   120   59   60 am   BACKBONE|DICT|INTERRES
   121   59  184 1    
   122   60   61 2    
   123   60   62 1    
   124   62   63 1    
   125   62   64 1    
   126   62  185 1    
   127   63  186 1    
   128   63  187 1    
   129   63  188 1    
   130   64   65 am   BACKBONE|DICT|INTERRES
   131   64  189 1    
   132   65   66 2    
   133   67   68 2    
   134   67   69 am   BACKBONE|DICT|INTERRES
   135   69   70 1    
   136   69  190 1    
   137   70   71 1    
   138   70   72 1    
   139   70  191 1    
   140   71  192 1    
   141   71  193 1    
   142   71  194 1    
   143   72   73 2    
   144   72   74 am   BACKBONE|DICT|INTERRES
   145   74   75 1    
   146   74  195 1    
   147   75   76 1    
   148   75   77 1    
   149   75  196 1    
   150   76  197 1    
   151   76  198 1    
   152   76  199 1    
   153   77   78 2    
   154   77   79 am   BACKBONE|DICT|INTERRES
   155   79   80 1    
   156   79  200 1    
   157   80   81 1    
   158   80   82 1    
   159   80  201 1    
   160   81  202 1    
   161   81  203 1    
   162   81  204 1    
   163   82   83 2    
   164   82   84 am   BACKBONE|DICT|INTERRES
   165   84   85 1    
   166   84  205 1    
   167   85   86 1    
   168   85   87 1    
   169   85  206 1    
   170   86  207 1    
   171   86  208 1    
   172   86  209 1    
   173   87   88 2    
   174   87   89 am   BACKBONE|DICT|INTERRES
   175   89   90 1    
   176   89  210 1    
   177   90   91 1    
   178   90   92 1    
   179   90  211 1    
   180   91  212 1    
   181   91  213 1    
   182   91  214 1    
   183   92   93 2    
   184   92   94 am   BACKBONE|DICT|INTERRES
   185   94   95 1    
   186   94  215 1    
   187   95   96 1    
   188   95   97 1    
   189   95  216 1    
   190   96  217 1    
   191   96  218 1    
   192   96  219 1    
   193   97   98 2    
   194   97   99 am   BACKBONE|DICT|INTERRES
   195   99  100 1    
   196   99  220 1    
   197  100  101 1    
   198  100  102 1    
   199  100  221 1    
   200  101  222 1    
   201  101  223 1    
   202  101  224 1    
   203  102  103 2    
   204  102  104 am   BACKBONE|DICT|INTERRES
   205  104  105 1    
   206  104  225 1    
   207  105  106 1    
   208  105  107 1    
   209  105  226 1    
   210  106  227 1    
   211  106  228 1    
   212  106  229 1    
   213  107  108 2    
   214  107  109 am   BACKBONE|DICT|INTERRES
   215  109  110 1    
   216  109  230 1    
   217  110  111 1    
   218  110  112 1    
   219  110  231 1    
   220  111  232 1    
   221  111  233 1    
   222  111  234 1    
   223  112  113 2    
   224  112  114 am   BACKBONE|DICT|INTERRES
   225  114  115 1    
   226  114  235 1    
   227  115  116 1    
   228  115  117 1    
   229  115  236 1    
   230  116  237 1    
   231  116  238 1    
   232  116  239 1    
   233  117  118 2    
   234  117  119 am   BACKBONE|DICT|INTERRES
   235  119  120 1    
   236  119  240 1    
   237  120  121 1    
   238  120  124 1    
   239  120  241 1    
   240  121  122 am   BACKBONE|DICT|INTERRES
   241  121  123 2    
   242  122  242 1    
   243  122  243 1    
   244  124  125 1    
   245  124  244 1    
   246  124  245 1    
   247  125  126 1    
   248  126  246 1    
   249  126  247 1    
@<TRIPOS>SUBSTRUCTURE
     1 UNK         1 GROUP             0       ****    0 ROOT    
