@<TRIPOS>MOLECULE
3R540
247   249    1
SMALL
USER_CHARGES


@<TRIPOS>ATOM
      1 CA          4.5990  -15.1390  -43.7268 C.3       0 UNK        -0.1800 
      2 C           3.5077  -14.5928  -44.6343 C.2       0 UNK         0.5000 
      3 O           2.5056  -14.0792  -44.1441 O.2       0 UNK        -0.5000 
      4 N           3.7026  -14.6793  -45.9559 N.am      1 UNK        -0.5000 
      5 CA          2.7381  -14.2860  -46.9945 C.3       1 UNK         0.1400 
      6 C6          3.2977  -14.6222  -48.3979 C.3       23 UNK        -0.0398 
      7 S7          2.0365  -14.6999  -49.7135 S.3       23 UNK        -0.2404 
      8 C8          2.9999  -15.4162  -51.0828 C.3       23 UNK        -0.0205 
      9 C9          2.9914  -16.9372  -51.0463 C.ar      23 UNK        -0.0193 
     10 C10         2.0573  -17.6509  -51.8039 C.ar      23 UNK        -0.1150 
     11 C11         2.0476  -19.0486  -51.7880 C.ar      23 UNK        -0.0193 
     12 C12         2.9651  -19.7303  -50.9820 C.ar      23 UNK        -0.1150 
     13 C13         3.9101  -19.0302  -50.2261 C.ar      23 UNK        -0.0193 
     14 C14         3.9298  -17.6343  -50.2791 C.ar      23 UNK        -0.1150 
     15 C15         4.9283  -19.7888  -49.3822 C.3       23 UNK        -0.0205 
     16 S16         4.9040  -19.3449  -47.6094 S.3       23 UNK        -0.2404 
     17 C17         3.1497  -19.5363  -47.1463 C.3       23 UNK        -0.0398 
     18 CA          2.7761  -20.9555  -46.6434 C.3       11 UNK         0.1400 
     19 N           1.6588  -20.9170  -45.6947 N.am      11 UNK        -0.5000 
     20 C           1.2310  -21.9464  -44.9495 C.2       10 UNK         0.5000 
     21 O           1.8125  -23.0288  -44.8796 O.2       10 UNK        -0.5000 
     22 CA         -0.0912  -21.7479  -44.1794 C.3       10 UNK         0.1400 
     23 CB          0.1665  -21.1715  -42.7795 C.3       10 UNK        -0.1800 
     24 N          -1.0453  -20.8996  -44.9004 N.am      10 UNK        -0.5000 
     25 C          -1.6282  -21.2452  -46.0578 C.2       9 UNK         0.5000 
     26 O          -1.4784  -22.3501  -46.5778 O.2       9 UNK        -0.5000 
     27 CA         -2.4629  -20.1673  -46.7805 C.3       9 UNK         0.1400 
     28 CB         -3.9061  -20.1391  -46.2571 C.3       9 UNK        -0.1800 
     29 N          -1.8729  -18.8297  -46.6731 N.am      9 UNK        -0.5000 
     30 C          -0.6982  -18.4805  -47.2161 C.2       8 UNK         0.5000 
     31 O          -0.0306  -19.2396  -47.9154 O.2       8 UNK        -0.5000 
     32 CA         -0.1391  -17.0857  -46.8688 C.3       8 UNK         0.1400 
     33 CB         -0.7546  -15.9978  -47.7574 C.3       8 UNK        -0.1800 
     34 N          -0.3350  -16.7359  -45.4611 N.am      8 UNK        -0.5000 
     35 C           0.2358  -17.3803  -44.4344 C.2       7 UNK         0.5000 
     36 O           1.0705  -18.2717  -44.5776 O.2       7 UNK        -0.5000 
     37 CA         -0.2595  -17.0301  -43.0185 C.3       7 UNK         0.1400 
     38 CB          0.5040  -15.8444  -42.4165 C.3       7 UNK        -0.1800 
     39 N          -1.6933  -16.7473  -42.9959 N.am      7 UNK        -0.5000 
     40 C          -2.6459  -17.6814  -43.1156 C.2       6 UNK         0.5000 
     41 O          -2.4103  -18.8847  -43.2157 O.2       6 UNK        -0.5000 
     42 CA         -4.1009  -17.1799  -43.1723 C.3       6 UNK         0.1400 
     43 CB         -4.6609  -16.9846  -41.7557 C.3       6 UNK        -0.1800 
     44 N          -4.2312  -15.9286  -43.9214 N.am      6 UNK        -0.5000 
     45 C          -4.0248  -15.8139  -45.2413 C.2       5 UNK         0.5000 
     46 O          -3.7642  -16.7677  -45.9718 O.2       5 UNK        -0.5000 
     47 CA         -4.0618  -14.3908  -45.8317 C.3       5 UNK         0.1400 
     48 CB         -5.4880  -14.0242  -46.2661 C.3       5 UNK        -0.1800 
     49 N          -3.5552  -13.3763  -44.9020 N.am      5 UNK        -0.5000 
     50 C          -2.2932  -13.3227  -44.4556 C.2       4 UNK         0.5000 
     51 O          -1.4065  -14.1014  -44.8129 O.2       4 UNK        -0.5000 
     52 CA         -2.0029  -12.2850  -43.3658 C.3       4 UNK         0.1400 
     53 CB         -2.5055  -12.8107  -42.0043 C.3       4 UNK        -0.1800 
     54 N          -0.5671  -12.0216  -43.3084 N.am      4 UNK        -0.5000 
     55 C           0.0051  -11.0276  -42.6183 C.2       3 UNK         0.5000 
     56 O          -0.6273  -10.1786  -41.9881 O.2       3 UNK        -0.5000 
     57 CA          1.5407  -10.9650  -42.6272 C.3       3 UNK         0.1400 
     58 CB          2.1324  -11.9875  -41.6434 C.3       3 UNK        -0.1800 
     59 N           2.1072  -11.1674  -43.9615 N.am      3 UNK        -0.5000 
     60 C           2.1493  -10.2122  -44.9034 C.2       2 UNK         0.5000 
     61 O           1.6495   -9.0961  -44.7540 O.2       2 UNK        -0.5000 
     62 CA          2.9033  -10.5120  -46.2159 C.3       2 UNK         0.1400 
     63 CB          4.2412   -9.7555  -46.2470 C.3       2 UNK        -0.1800 
     64 N           3.1718  -11.9326  -46.4312 N.am      2 UNK        -0.5000 
     65 C           2.2754  -12.8120  -46.8962 C.2       1 UNK         0.5000 
     66 O           1.1248  -12.5052  -47.2091 O.2       1 UNK        -0.5000 
     67 C           2.4747  -21.9107  -47.8193 C.2       11 UNK         0.5000 
     68 O           3.3303  -22.7192  -48.1815 O.2       11 UNK        -0.5000 
     69 N           1.2568  -21.8107  -48.3739 N.am      12 UNK        -0.5000 
     70 CA          0.7419  -22.6576  -49.4516 C.3       12 UNK         0.1400 
     71 CB         -0.6301  -22.1331  -49.9013 C.3       12 UNK        -0.1800 
     72 C           0.6484  -24.1399  -49.0479 C.2       12 UNK         0.5000 
     73 O           1.0850  -25.0022  -49.8115 O.2       12 UNK        -0.5000 
     74 N           0.1130  -24.3894  -47.8434 N.am      13 UNK        -0.5000 
     75 CA         -0.0455  -25.6898  -47.1921 C.3       13 UNK         0.1400 
     76 CB          1.3320  -26.2529  -46.7752 C.3       13 UNK        -0.1800 
     77 C          -0.9016  -26.6537  -48.0403 C.2       13 UNK         0.5000 
     78 O          -2.0532  -26.3245  -48.3317 O.2       13 UNK        -0.5000 
     79 N          -0.3408  -27.8156  -48.4101 N.am      14 UNK        -0.5000 
     80 CA         -0.9605  -28.8839  -49.2015 C.3       14 UNK         0.1400 
     81 CB         -1.1521  -28.4194  -50.6636 C.3       14 UNK        -0.1800 
     82 C          -2.2486  -29.4142  -48.5340 C.2       14 UNK         0.5000 
     83 O          -2.2743  -29.5762  -47.3116 O.2       14 UNK        -0.5000 
     84 N          -3.3068  -29.6416  -49.3210 N.am      15 UNK        -0.5000 
     85 CA         -4.6430  -30.0220  -48.8577 C.3       15 UNK         0.1400 
     86 CB         -5.3372  -30.8292  -49.9702 C.3       15 UNK        -0.1800 
     87 C          -5.4598  -28.7866  -48.4147 C.2       15 UNK         0.5000 
     88 O          -6.5982  -28.6124  -48.8529 O.2       15 UNK        -0.5000 
     89 N          -4.8468  -27.9438  -47.5695 N.am      16 UNK        -0.5000 
     90 CA         -5.3419  -26.6610  -47.0592 C.3       16 UNK         0.1400 
     91 CB         -6.5286  -26.8784  -46.0972 C.3       16 UNK        -0.1800 
     92 C          -5.6519  -25.6639  -48.1952 C.2       16 UNK         0.5000 
     93 O          -6.7774  -25.1722  -48.3069 O.2       16 UNK        -0.5000 
     94 N          -4.6433  -25.4108  -49.0392 N.am      17 UNK        -0.5000 
     95 CA         -4.7021  -24.4718  -50.1574 C.3       17 UNK         0.1400 
     96 CB         -3.4285  -24.6164  -51.0051 C.3       17 UNK        -0.1800 
     97 C          -4.8718  -23.0209  -49.6723 C.2       17 UNK         0.5000 
     98 O          -4.1652  -22.5934  -48.7578 O.2       17 UNK        -0.5000 
     99 N          -5.8033  -22.2921  -50.2955 N.am      18 UNK        -0.5000 
    100 CA        -6.0586  -20.8820  -50.0161 C.3       18 UNK         0.1400 
    101 CB        -7.4641  -20.5211  -50.5223 C.3       18 UNK        -0.1800 
    102 C         -5.0086  -19.9877  -50.6925 C.2       18 UNK         0.5000 
    103 O         -4.5251  -20.3196  -51.7773 O.2       18 UNK        -0.5000 
    104 N         -4.7354  -18.8293  -50.0819 N.am      19 UNK        -0.5000 
    105 CA        -3.8289  -17.8061  -50.6096 C.3       19 UNK         0.1400 
    106 CB        -3.6878  -16.6944  -49.5643 C.3       19 UNK        -0.1800 
    107 C         -4.3024  -17.2221  -51.9541 C.2       19 UNK         0.5000 
    108 O         -3.4893  -16.9915  -52.8493 O.2       19 UNK        -0.5000 
    109 N         -5.6244  -17.0406  -52.0821 N.am      20 UNK        -0.5000 
    110 CA        -6.2901  -16.5773  -53.3001 C.3       20 UNK         0.1400 
    111 CB        -7.7451  -16.2152  -52.9648 C.3       20 UNK        -0.1800 
    112 C         -6.2416  -17.6052  -54.4472 C.2       20 UNK         0.5000 
    113 O         -6.2957  -17.2092  -55.6120 O.2       20 UNK        -0.5000 
    114 N         -6.1393  -18.8966  -54.1027 N.am      21 UNK        -0.5000 
    115 CA        -5.9810  -19.9892  -55.0582 C.3       21 UNK         0.1400 
    116 CB        -6.5305  -21.2925  -54.4552 C.3       21 UNK        -0.1800 
    117 C         -4.5116  -20.1511  -55.4796 C.2       21 UNK         0.5000 
    118 O         -4.2446  -20.3278  -56.6692 O.2       21 UNK        -0.5000 
    119 N         -3.5903  -20.0946  -54.5065 N.am      22 UNK        -0.5000 
    120 CA        -2.1456  -20.2439  -54.7371 C.3       22 UNK         0.1400 
    121 C         -1.4699  -19.0190  -55.4218 C.2       22 UNK         0.5000 
    122 N         -1.9578  -17.8005  -55.2221 N.am      22 UNK        -0.7600 
    123 O         -0.5018  -19.1824  -56.1597 O.2       22 UNK        -0.5000 
    124 C124       -1.4063  -20.7689  -53.4716 C.3       23 UNK        -0.0398 
    125 S125       -0.6573  -19.5263  -52.3511 S.3       23 UNK        -0.2404 
    126 C126        1.1058  -19.8268  -52.6972 C.3       23 UNK        -0.0205 
    127 H127        4.9615  -14.3540  -43.0632 H         1 UNK         0.0600 
    128 H128        5.4454  -15.5243  -44.2957 H         1 UNK         0.0600 
    129 H129        4.2027  -15.9488  -43.1142 H         1 UNK         0.0600 
    130 H130        4.5606  -15.0936  -46.2908 H         1 UNK         0.3000 
    131 H131        1.8574  -14.9029  -46.8198 H         1 UNK         0.0600 
    132 H132        3.7766  -15.5988  -48.3557 H         1 UNK         0.0800 
    133 H133        4.0770  -13.9154  -48.6888 H         1 UNK         0.0800 
    134 H134        2.5743  -15.0677  -52.0251 H         1 UNK         0.0800 
    135 H135        4.0241  -15.0409  -51.0591 H         1 UNK         0.0800 
    136 H136        1.3457  -17.1207  -52.4216 H         1 UNK         0.1150 
    137 H137        2.9651  -20.8107  -50.9657 H         1 UNK         0.1150 
    138 H138        4.6784  -17.0960  -49.7169 H         1 UNK         0.1150 
    139 H139        4.7852  -20.8653  -49.4787 H         1 UNK         0.0800 
    140 H140        5.9249  -19.5848  -49.7755 H         1 UNK         0.0800 
    141 H141        2.5068  -19.2067  -47.9617 H         1 UNK         0.0800 
    142 H142        2.9843  -18.8130  -46.3473 H         1 UNK         0.0800 
    143 H143        3.6300  -21.3623  -46.0974 H         1 UNK         0.0600 
    144 H144        1.1606  -20.0374  -45.6201 H         1 UNK         0.3000 
    145 H145       -0.5501  -22.7312  -44.0562 H         1 UNK         0.0600 
    146 H146       -0.7635  -21.0518  -42.2235 H         1 UNK         0.0600 
    147 H147        0.8095  -21.8348  -42.1998 H         1 UNK         0.0600 
    148 H148        0.6580  -20.2007  -42.8247 H         1 UNK         0.0600 
    149 H149       -1.2737  -20.0036  -44.4836 H         1 UNK         0.3000 
    150 H150       -2.4964  -20.4319  -47.8397 H         1 UNK         0.0600 
    151 H151       -4.3773  -21.1167  -46.3660 H         1 UNK         0.0600 
    152 H152       -4.5118  -19.4223  -46.8114 H         1 UNK         0.0600 
    153 H153       -3.9490  -19.8697  -45.2023 H         1 UNK         0.0600 
    154 H154       -2.4106  -18.1303  -46.1696 H         1 UNK         0.3000 
    155 H155        0.9349  -17.1106  -47.0637 H         1 UNK         0.0600 
    156 H156       -0.2810  -15.0307  -47.5954 H         1 UNK         0.0600 
    157 H157       -0.6427  -16.2444  -48.8140 H         1 UNK         0.0600 
    158 H158       -1.8136  -15.8683  -47.5523 H         1 UNK         0.0600 
    159 H159       -0.9506  -15.9535  -45.2615 H         1 UNK         0.3000 
    160 H160       -0.0723  -17.8975  -42.3823 H         1 UNK         0.0600 
    161 H161        0.3241  -14.9253  -42.9723 H         1 UNK         0.0600 
    162 H162        1.5785  -16.0300  -42.4210 H         1 UNK         0.0600 
    163 H163        0.2095  -15.6698  -41.3818 H         1 UNK         0.0600 
    164 H164       -1.9636  -15.7763  -42.9710 H         1 UNK         0.3000 
    165 H165       -4.6984  -17.9434  -43.6749 H         1 UNK         0.0600 
    166 H166       -5.7127  -16.6994  -41.7836 H         1 UNK         0.0600 
    167 H167       -4.5909  -17.9075  -41.1784 H         1 UNK         0.0600 
    168 H168       -4.1177  -16.2128  -41.2087 H         1 UNK         0.0600 
    169 H169       -4.4559  -15.0990  -43.3932 H         1 UNK         0.3000 
    170 H170       -3.4255  -14.3808  -46.7183 H         1 UNK         0.0600 
    171 H171       -5.8775  -14.7534  -46.9781 H         1 UNK         0.0600 
    172 H172       -6.1737  -13.9937  -45.4184 H         1 UNK         0.0600 
    173 H173       -5.5133  -13.0501  -46.7548 H         1 UNK         0.0600 
    174 H174       -4.2279  -12.7062  -44.5574 H         1 UNK         0.3000 
    175 H175       -2.5226  -11.3595  -43.6221 H         1 UNK         0.0600 
    176 H176       -3.5657  -13.0631  -42.0416 H         1 UNK         0.0600 
    177 H177       -1.9643  -13.7063  -41.6963 H         1 UNK         0.0600 
    178 H178       -2.3880  -12.0664  -41.2171 H         1 UNK         0.0600 
    179 H179        0.0060  -12.6694  -43.8367 H         1 UNK         0.3000 
    180 H180        1.8347   -9.9725  -42.2780 H         1 UNK         0.0600 
    181 H181        1.8182  -13.0054  -41.8738 H         1 UNK         0.0600 
    182 H182        1.8096  -11.7737  -40.6239 H         1 UNK         0.0600 
    183 H183        3.2221  -11.9621  -41.6522 H         1 UNK         0.0600 
    184 H184        2.4663  -12.0945  -44.1657 H         1 UNK         0.3000 
    185 H185        2.2871  -10.1410  -47.0378 H         1 UNK         0.0600 
    186 H186        4.0877   -8.6820  -46.1289 H         1 UNK         0.0600 
    187 H187        4.9066  -10.0817  -45.4466 H         1 UNK         0.0600 
    188 H188        4.7572   -9.9048  -47.1957 H         1 UNK         0.0600 
    189 H189        4.0882  -12.2678  -46.1720 H         1 UNK         0.3000 
    190 H190        0.6422  -21.0686  -48.0521 H         1 UNK         0.3000 
    191 H191        1.4334  -22.5729  -50.2916 H         1 UNK         0.0600 
    192 H192       -1.4223  -22.3974  -49.2015 H         1 UNK         0.0600 
    193 H193       -0.9035  -22.5463  -50.8721 H         1 UNK         0.0600 
    194 H194       -0.6290  -21.0484  -49.9894 H         1 UNK         0.0600 
    195 H195       -0.3010  -23.6044  -47.3451 H         1 UNK         0.3000 
    196 H196       -0.6143  -25.5032  -46.2802 H         1 UNK         0.0600 
    197 H197        1.2259  -27.1751  -46.2026 H         1 UNK         0.0600 
    198 H198        1.8621  -25.5437  -46.1391 H         1 UNK         0.0600 
    199 H199        1.9713  -26.4602  -47.6340 H         1 UNK         0.0600 
    200 H200        0.6023  -27.9981  -48.0990 H         1 UNK         0.3000 
    201 H201       -0.2547  -29.7154  -49.2053 H         1 UNK         0.0600 
    202 H202       -0.2193  -28.0303  -51.0723 H         1 UNK         0.0600 
    203 H203       -1.8996  -27.6297  -50.7476 H         1 UNK         0.0600 
    204 H204       -1.4597  -29.2443  -51.3072 H         1 UNK         0.0600 
    205 H205       -3.2180  -29.4471  -50.3078 H         1 UNK         0.3000 
    206 H206       -4.5507  -30.6742  -47.9867 H         1 UNK         0.0600 
    207 H207       -4.7533  -31.7090  -50.2412 H         1 UNK         0.0600 
    208 H208       -6.3176  -31.1809  -49.6464 H         1 UNK         0.0600 
    209 H209       -5.4818  -30.2318  -50.8712 H         1 UNK         0.0600 
    210 H210       -3.9005  -28.1838  -47.2971 H         1 UNK         0.3000 
    211 H211       -4.5263  -26.2235  -46.4813 H         1 UNK         0.0600 
    212 H212       -7.3964  -27.2970  -46.6076 H         1 UNK         0.0600 
    213 H213       -6.8394  -25.9362  -45.6443 H         1 UNK         0.0600 
    214 H214       -6.2588  -27.5546  -45.2860 H         1 UNK         0.0600 
    215 H215       -3.7288  -25.8120  -48.8373 H         1 UNK         0.3000 
    216 H216       -5.5594  -24.7419  -50.7775 H         1 UNK         0.0600 
    217 H217       -2.5313  -24.4359  -50.4119 H         1 UNK         0.0600 
    218 H218       -3.4247  -23.9067  -51.8335 H         1 UNK         0.0600 
    219 H219       -3.3503  -25.6168  -51.4305 H         1 UNK         0.0600 
    220 H220       -6.3224  -22.7005  -51.0582 H         1 UNK         0.3000 
    221 H221       -6.0230  -20.7203  -48.9363 H         1 UNK         0.0600 
    222 H222       -8.2253  -21.1332  -50.0380 H         1 UNK         0.0600 
    223 H223       -7.5565  -20.6637  -51.5995 H         1 UNK         0.0600 
    224 H224       -7.7040  -19.4789  -50.3078 H         1 UNK         0.0600 
    225 H225       -5.1820  -18.6194  -49.2013 H         1 UNK         0.3000 
    226 H226       -2.8511  -18.2665  -50.7614 H         1 UNK         0.0600 
    227 H227       -3.3607  -17.1092  -48.6127 H         1 UNK         0.0600 
    228 H228       -2.9520  -15.9532  -49.8780 H         1 UNK         0.0600 
    229 H229       -4.6299  -16.1727  -49.3917 H         1 UNK         0.0600 
    230 H230       -6.2175  -17.2532  -51.2940 H         1 UNK         0.3000 
    231 H231       -5.7814  -15.6742  -53.6439 H         1 UNK         0.0600 
    232 H232       -8.3008  -17.0789  -52.5974 H         1 UNK         0.0600 
    233 H233       -8.2670  -15.8397  -53.8460 H         1 UNK         0.0600 
    234 H234       -7.7928  -15.4356  -52.2043 H         1 UNK         0.0600 
    235 H235       -6.0447  -19.1321  -53.1260 H         1 UNK         0.3000 
    236 H236       -6.5660  -19.7682  -55.9538 H         1 UNK         0.0600 
    237 H237       -7.5809  -21.1882  -54.1831 H         1 UNK         0.0600 
    238 H238       -6.4615  -22.1100  -55.1739 H         1 UNK         0.0600 
    239 H239       -5.9812  -21.5965  -53.5645 H         1 UNK         0.0600 
    240 H240       -3.8877  -19.9880  -53.5407 H         1 UNK         0.3000 
    241 H241       -2.0558  -21.0504  -55.4685 H         1 UNK         0.0600 
    242 H242       -1.5217  -17.0137  -55.6742 H         1 UNK         0.3800 
    243 H243       -2.6746  -17.6404  -54.5211 H         1 UNK         0.3800 
    244 H244       -0.6227  -21.4551  -53.7945 H         1 UNK         0.0800 
    245 H245       -2.0788  -21.3875  -52.8753 H         1 UNK         0.0800 
    246 H246        1.3048  -20.8958  -52.6083 H         1 UNK         0.0800 
    247 H247        1.3150  -19.5588  -53.7339 H         1 UNK         0.0800 
@<TRIPOS>BOND
     1    1    2 1    
     2    1  127 1    
     3    1  128 1    
     4    1  129 1    
     5    2    3 2    
     6    2    4 am   BACKBONE|DICT|INTERRES
     7    4    5 1    
     8    4  130 1    
     9    5    6 1    
    10    5   65 1    
    11    5  131 1    
    12    6    7 1    
    13    6  132 1    
    14    6  133 1    
    15    7    8 1    
    16    8    9 1    
    17    8  134 1    
    18    8  135 1    
    19    9   10 ar   
    20    9   14 ar   
    21   10   11 ar   
    22   10  136 1    
    23   11   12 ar   
    24   11  126 1    
    25   12   13 ar   
    26   12  137 1    
    27   13   14 ar   
    28   13   15 1    
    29   14  138 1    
    30   15   16 1    
    31   15  139 1    
    32   15  140 1    
    33   16   17 1    
    34   17   18 1    
    35   17  141 1    
    36   17  142 1    
    37   18   19 1    
    38   18   67 1    
    39   18  143 1    
    40   19   20 am   BACKBONE|DICT|INTERRES
    41   19  144 1    
    42   20   21 2    
    43   20   22 1    
    44   22   23 1    
    45   22   24 1    
    46   22  145 1    
    47   23  146 1    
    48   23  147 1    
    49   23  148 1    
    50   24   25 am   BACKBONE|DICT|INTERRES
    51   24  149 1    
    52   25   26 2    
    53   25   27 1    
    54   27   28 1    
    55   27   29 1    
    56   27  150 1    
    57   28  151 1    
    58   28  152 1    
    59   28  153 1    
    60   29   30 am   BACKBONE|DICT|INTERRES
    61   29  154 1    
    62   30   31 2    
    63   30   32 1    
    64   32   33 1    
    65   32   34 1    
    66   32  155 1    
    67   33  156 1    
    68   33  157 1    
    69   33  158 1    
    70   34   35 am   BACKBONE|DICT|INTERRES
    71   34  159 1    
    72   35   36 2    
    73   35   37 1    
    74   37   38 1    
    75   37   39 1    
    76   37  160 1    
    77   38  161 1    
    78   38  162 1    
    79   38  163 1    
    80   39   40 am   BACKBONE|DICT|INTERRES
    81   39  164 1    
    82   40   41 2    
    83   40   42 1    
    84   42   43 1    
    85   42   44 1    
    86   42  165 1    
    87   43  166 1    
    88   43  167 1    
    89   43  168 1    
    90   44   45 am   BACKBONE|DICT|INTERRES
    91   44  169 1    
    92   45   46 2    
    93   45   47 1    
    94   47   48 1    
    95   47   49 1    
    96   47  170 1    
    97   48  171 1    
    98   48  172 1    
    99   48  173 1    
   100   49   50 am   BACKBONE|DICT|INTERRES
   101   49  174 1    
   102   50   51 2    
   103   50   52 1    
   104   52   53 1    
   105   52   54 1    
   106   52  175 1    
   107   53  176 1    
   108   53  177 1    
   109   53  178 1    
   110   54   55 am   BACKBONE|DICT|INTERRES
   111   54  179 1    
   112   55   56 2    
   113   55   57 1    
   114   57   58 1    
   115   57   59 1    
   116   57  180 1    
   117   58  181 1    
   118   58  182 1    
   119   58  183 1    
   120   59   60 am   BACKBONE|DICT|INTERRES
   121   59  184 1    
   122   60   61 2    
   123   60   62 1    
   124   62   63 1    
   125   62   64 1    
   126   62  185 1    
   127   63  186 1    
   128   63  187 1    
   129   63  188 1    
   130   64   65 am   BACKBONE|DICT|INTERRES
   131   64  189 1    
   132   65   66 2    
   133   67   68 2    
   134   67   69 am   BACKBONE|DICT|INTERRES
   135   69   70 1    
   136   69  190 1    
   137   70   71 1    
   138   70   72 1    
   139   70  191 1    
   140   71  192 1    
   141   71  193 1    
   142   71  194 1    
   143   72   73 2    
   144   72   74 am   BACKBONE|DICT|INTERRES
   145   74   75 1    
   146   74  195 1    
   147   75   76 1    
   148   75   77 1    
   149   75  196 1    
   150   76  197 1    
   151   76  198 1    
   152   76  199 1    
   153   77   78 2    
   154   77   79 am   BACKBONE|DICT|INTERRES
   155   79   80 1    
   156   79  200 1    
   157   80   81 1    
   158   80   82 1    
   159   80  201 1    
   160   81  202 1    
   161   81  203 1    
   162   81  204 1    
   163   82   83 2    
   164   82   84 am   BACKBONE|DICT|INTERRES
   165   84   85 1    
   166   84  205 1    
   167   85   86 1    
   168   85   87 1    
   169   85  206 1    
   170   86  207 1    
   171   86  208 1    
   172   86  209 1    
   173   87   88 2    
   174   87   89 am   BACKBONE|DICT|INTERRES
   175   89   90 1    
   176   89  210 1    
   177   90   91 1    
   178   90   92 1    
   179   90  211 1    
   180   91  212 1    
   181   91  213 1    
   182   91  214 1    
   183   92   93 2    
   184   92   94 am   BACKBONE|DICT|INTERRES
   185   94   95 1    
   186   94  215 1    
   187   95   96 1    
   188   95   97 1    
   189   95  216 1    
   190   96  217 1    
   191   96  218 1    
   192   96  219 1    
   193   97   98 2    
   194   97   99 am   BACKBONE|DICT|INTERRES
   195   99  100 1    
   196   99  220 1    
   197  100  101 1    
   198  100  102 1    
   199  100  221 1    
   200  101  222 1    
   201  101  223 1    
   202  101  224 1    
   203  102  103 2    
   204  102  104 am   BACKBONE|DICT|INTERRES
   205  104  105 1    
   206  104  225 1    
   207  105  106 1    
   208  105  107 1    
   209  105  226 1    
   210  106  227 1    
   211  106  228 1    
   212  106  229 1    
   213  107  108 2    
   214  107  109 am   BACKBONE|DICT|INTERRES
   215  109  110 1    
   216  109  230 1    
   217  110  111 1    
   218  110  112 1    
   219  110  231 1    
   220  111  232 1    
   221  111  233 1    
   222  111  234 1    
   223  112  113 2    
   224  112  114 am   BACKBONE|DICT|INTERRES
   225  114  115 1    
   226  114  235 1    
   227  115  116 1    
   228  115  117 1    
   229  115  236 1    
   230  116  237 1    
   231  116  238 1    
   232  116  239 1    
   233  117  118 2    
   234  117  119 am   BACKBONE|DICT|INTERRES
   235  119  120 1    
   236  119  240 1    
   237  120  121 1    
   238  120  124 1    
   239  120  241 1    
   240  121  122 am   BACKBONE|DICT|INTERRES
   241  121  123 2    
   242  122  242 1    
   243  122  243 1    
   244  124  125 1    
   245  124  244 1    
   246  124  245 1    
   247  125  126 1    
   248  126  246 1    
   249  126  247 1    
@<TRIPOS>SUBSTRUCTURE
     1 UNK         1 GROUP             0       ****    0 ROOT    
