@<TRIPOS>MOLECULE
3R540
247   249    1
SMALL
USER_CHARGES


@<TRIPOS>ATOM
      1 CA          4.4844  -15.3504  -44.4098 C.3       0 UNK        -0.1800 
      2 C           3.8004  -14.1354  -45.0151 C.2       0 UNK         0.5000 
      3 O           3.1491  -13.3703  -44.3019 O.2       0 UNK        -0.5000 
      4 N           3.9622  -13.9319  -46.3295 N.am      1 UNK        -0.5000 
      5 CA          3.3489  -12.8352  -47.0917 C.3       1 UNK         0.1400 
      6 C6          3.4756  -13.0309  -48.6218 C.3       23 UNK        -0.0398 
      7 S7          2.7402  -14.5632  -49.2982 S.3       23 UNK        -0.2404 
      8 C8          1.2598  -14.8491  -48.2665 C.3       23 UNK        -0.0205 
      9 C9          0.2939  -15.8470  -48.8923 C.ar      23 UNK        -0.0193 
     10 C10        -1.0663  -15.5371  -48.9881 C.ar      23 UNK        -0.1150 
     11 C11        -1.9739  -16.4435  -49.5455 C.ar      23 UNK        -0.0193 
     12 C12        -1.5045  -17.6846  -49.9926 C.ar      23 UNK        -0.1150 
     13 C13        -0.1429  -17.9934  -49.9366 C.ar      23 UNK        -0.0193 
     14 C14         0.7470  -17.0797  -49.3693 C.ar      23 UNK        -0.1150 
     15 C15         0.3777  -19.3005  -50.5128 C.3       23 UNK        -0.0205 
     16 S16         0.8809  -20.4588  -49.2095 S.3       23 UNK        -0.2404 
     17 C17        -0.7269  -20.7916  -48.4243 C.3       23 UNK        -0.0398 
     18 CA         -0.7041  -22.1120  -47.6282 C.3       11 UNK         0.1400 
     19 N           0.2519  -22.0513  -46.5239 N.am      11 UNK        -0.5000 
     20 C           0.6920  -23.0850  -45.8018 C.2       10 UNK         0.5000 
     21 O           0.2994  -24.2384  -45.9730 O.2       10 UNK        -0.5000 
     22 CA          1.6860  -22.7733  -44.6643 C.3       10 UNK         0.1400 
     23 CB          2.8247  -23.8090  -44.5799 C.3       10 UNK        -0.1800 
     24 N           2.2029  -21.3979  -44.6841 N.am      10 UNK        -0.5000 
     25 C           3.0394  -20.8232  -45.5648 C.2       9 UNK         0.5000 
     26 O           3.5528  -21.4171  -46.5125 O.2       9 UNK        -0.5000 
     27 CA          3.3411  -19.3194  -45.3681 C.3       9 UNK         0.1400 
     28 CB          2.6784  -18.4851  -46.4768 C.3       9 UNK        -0.1800 
     29 N           2.8974  -18.8056  -44.0706 N.am      9 UNK        -0.5000 
     30 C           3.4795  -19.0800  -42.8945 C.2       8 UNK         0.5000 
     31 O           4.5276  -19.7151  -42.7788 O.2       8 UNK        -0.5000 
     32 CA          2.7277  -18.6134  -41.6352 C.3       8 UNK         0.1400 
     33 CB          3.1667  -17.1999  -41.2294 C.3       8 UNK        -0.1800 
     34 N           1.2732  -18.6489  -41.8216 N.am      8 UNK        -0.5000 
     35 C           0.5487  -19.7772  -41.8614 C.2       7 UNK         0.5000 
     36 O           1.0300  -20.9003  -41.7174 O.2       7 UNK        -0.5000 
     37 CA         -0.9546  -19.6379  -42.1577 C.3       7 UNK         0.1400 
     38 CB         -1.7399  -19.3354  -40.8736 C.3       7 UNK        -0.1800 
     39 N          -1.2368  -18.6058  -43.1546 N.am      7 UNK        -0.5000 
     40 C          -0.9694  -18.7167  -44.4635 C.2       6 UNK         0.5000 
     41 O          -0.5416  -19.7469  -44.9829 O.2       6 UNK        -0.5000 
     42 CA         -1.2038  -17.4662  -45.3360 C.3       6 UNK         0.1400 
     43 CB         -2.5812  -17.5433  -46.0080 C.3       6 UNK        -0.1800 
     44 N          -1.0999  -16.2060  -44.5912 N.am      6 UNK        -0.5000 
     45 C           0.0094  -15.7740  -43.9780 C.2       5 UNK         0.5000 
     46 O           1.0869  -16.3712  -44.0215 O.2       5 UNK        -0.5000 
     47 CA         -0.1311  -14.4903  -43.1489 C.3       5 UNK         0.1400 
     48 CB          0.7266  -14.5314  -41.8735 C.3       5 UNK        -0.1800 
     49 N           0.2765  -13.3364  -43.9361 N.am      5 UNK        -0.5000 
     50 C          -0.5577  -12.4685  -44.5211 C.2       4 UNK         0.5000 
     51 O          -1.7778  -12.6340  -44.5748 O.2       4 UNK        -0.5000 
     52 CA          0.0812  -11.1953  -45.1240 C.3       4 UNK         0.1400 
     53 CB         -0.9144  -10.0238  -45.2475 C.3       4 UNK        -0.1800 
     54 N           1.2972  -10.7711  -44.4159 N.am      4 UNK        -0.5000 
     55 C           1.4238  -10.4402  -43.1191 C.2       3 UNK         0.5000 
     56 O           0.4711  -10.3286  -42.3467 O.2       3 UNK        -0.5000 
     57 CA          2.8554  -10.2353  -42.5783 C.3       3 UNK         0.1400 
     58 CB          3.1143  -11.1538  -41.3713 C.3       3 UNK        -0.1800 
     59 N           3.8669  -10.5279  -43.5952 N.am      3 UNK        -0.5000 
     60 C           4.6239   -9.6214  -44.2285 C.2       2 UNK         0.5000 
     61 O           4.6147   -8.4178  -43.9686 O.2       2 UNK        -0.5000 
     62 CA          5.5263  -10.1431  -45.3689 C.3       2 UNK         0.1400 
     63 CB          6.9446  -10.4194  -44.8476 C.3       2 UNK        -0.1800 
     64 N           5.0094  -11.3566  -46.0102 N.am      2 UNK        -0.5000 
     65 C           3.8491  -11.4350  -46.6780 C.2       1 UNK         0.5000 
     66 O           3.1354  -10.4591  -46.9075 O.2       1 UNK        -0.5000 
     67 C          -2.1166  -22.4659  -47.1343 C.2       11 UNK         0.5000 
     68 O          -2.8324  -23.1977  -47.8193 O.2       11 UNK        -0.5000 
     69 N          -2.4794  -21.9724  -45.9414 N.am      12 UNK        -0.5000 
     70 CA         -3.7398  -22.3011  -45.2739 C.3       12 UNK         0.1400 
     71 CB         -3.9715  -21.3315  -44.1058 C.3       12 UNK        -0.1800 
     72 C          -3.7768  -23.7632  -44.7880 C.2       12 UNK         0.5000 
     73 O          -4.8293  -24.3972  -44.8548 O.2       12 UNK        -0.5000 
     74 N          -2.6215  -24.2784  -44.3414 N.am      13 UNK        -0.5000 
     75 CA         -2.4391  -25.6661  -43.9108 C.3       13 UNK         0.1400 
     76 CB         -1.1475  -25.7817  -43.0859 C.3       13 UNK        -0.1800 
     77 C          -2.4241  -26.6430  -45.1006 C.2       13 UNK         0.5000 
     78 O          -3.0193  -27.7174  -45.0149 O.2       13 UNK        -0.5000 
     79 N          -1.7737  -26.2358  -46.1997 N.am      14 UNK        -0.5000 
     80 CA         -1.7281  -26.9619  -47.4714 C.3       14 UNK         0.1400 
     81 CB         -0.6079  -26.3665  -48.3387 C.3       14 UNK        -0.1800 
     82 C          -3.0630  -26.9413  -48.2443 C.2       14 UNK         0.5000 
     83 O          -3.2369  -27.7504  -49.1563 O.2       14 UNK        -0.5000 
     84 N          -3.9622  -26.0161  -47.8764 N.am      15 UNK        -0.5000 
     85 CA         -5.2574  -25.7255  -48.4948 C.3       15 UNK         0.1400 
     86 CB         -6.2246  -26.9202  -48.3613 C.3       15 UNK        -0.1800 
     87 C          -5.1001  -25.2232  -49.9432 C.2       15 UNK         0.5000 
     88 O          -5.7862  -25.6990  -50.8498 O.2       15 UNK        -0.5000 
     89 N          -4.1995  -24.2454  -50.1289 N.am      16 UNK        -0.5000 
     90 CA         -3.8456  -23.6348  -51.4169 C.3       16 UNK         0.1400 
     91 CB         -2.7486  -22.5851  -51.1902 C.3       16 UNK        -0.1800 
     92 C          -5.0316  -23.0015  -52.1706 C.2       16 UNK         0.5000 
     93 O          -4.9885  -22.9078  -53.3964 O.2       16 UNK        -0.5000 
     94 N          -6.0858  -22.6239  -51.4334 N.am      17 UNK        -0.5000 
     95 CA         -7.3647  -22.1293  -51.9464 C.3       17 UNK         0.1400 
     96 CB         -8.2565  -21.7411  -50.7577 C.3       17 UNK        -0.1800 
     97 C          -8.1035  -23.1174  -52.8748 C.2       17 UNK         0.5000 
     98 O          -8.9060  -22.6783  -53.6984 O.2       17 UNK        -0.5000 
     99 N          -7.8171  -24.4212  -52.7436 N.am      18 UNK        -0.5000 
    100 CA        -8.3384  -25.4752  -53.6164 C.3       18 UNK         0.1400 
    101 CB        -8.2936  -26.8112  -52.8576 C.3       18 UNK        -0.1800 
    102 C         -7.5773  -25.5883  -54.9551 C.2       18 UNK         0.5000 
    103 O         -8.0515  -26.2870  -55.8525 O.2       18 UNK        -0.5000 
    104 N         -6.4180  -24.9272  -55.0663 N.am      19 UNK        -0.5000 
    105 CA        -5.5539  -24.9050  -56.2422 C.3       19 UNK         0.1400 
    106 CB        -4.1868  -25.5057  -55.8544 C.3       19 UNK        -0.1800 
    107 C         -5.4766  -23.4614  -56.7766 C.2       19 UNK         0.5000 
    108 O         -6.5115  -22.7995  -56.8919 O.2       19 UNK        -0.5000 
    109 N         -4.2662  -22.9864  -57.0993 N.am      20 UNK        -0.5000 
    110 CA        -3.9728  -21.6199  -57.5331 C.3       20 UNK         0.1400 
    111 CB        -2.6221  -21.6148  -58.2712 C.3       20 UNK        -0.1800 
    112 C         -3.9946  -20.6533  -56.3317 C.2       20 UNK         0.5000 
    113 O         -2.9361  -20.2285  -55.8627 O.2       20 UNK        -0.5000 
    114 N         -5.2115  -20.3778  -55.8430 N.am      21 UNK        -0.5000 
    115 CA        -5.5688  -19.6200  -54.6422 C.3       21 UNK         0.1400 
    116 CB        -7.0870  -19.3709  -54.6612 C.3       21 UNK        -0.1800 
    117 C         -4.7893  -18.3037  -54.4618 C.2       21 UNK         0.5000 
    118 O         -5.1512  -17.2854  -55.0552 O.2       21 UNK        -0.5000 
    119 N         -3.7259  -18.3722  -53.6515 N.am      22 UNK        -0.5000 
    120 CA        -2.8127  -17.2666  -53.3150 C.3       22 UNK         0.1400 
    121 C         -1.9775  -16.7331  -54.5194 C.2       22 UNK         0.5000 
    122 N         -1.7831  -17.5139  -55.5766 N.am      22 UNK        -0.7600 
    123 O         -1.4740  -15.6133  -54.4906 O.2       22 UNK        -0.5000 
    124 C124       -3.5009  -16.1395  -52.4896 C.3       23 UNK        -0.0398 
    125 S125       -4.3819  -16.7837  -51.0192 S.3       23 UNK        -0.2404 
    126 C126       -3.4497  -16.0511  -49.6295 C.3       23 UNK        -0.0205 
    127 H127        4.9282  -15.0958  -43.4475 H         1 UNK         0.0600 
    128 H128        3.7553  -16.1424  -44.2528 H         1 UNK         0.0600 
    129 H129        5.2715  -15.7351  -45.0584 H         1 UNK         0.0600 
    130 H130        4.5070  -14.5886  -46.8707 H         1 UNK         0.3000 
    131 H131        2.2899  -12.8322  -46.8351 H         1 UNK         0.0600 
    132 H132        4.5259  -13.0081  -48.9175 H         1 UNK         0.0800 
    133 H133        3.0009  -12.1992  -49.1462 H         1 UNK         0.0800 
    134 H134        0.7495  -13.8975  -48.1126 H         1 UNK         0.0800 
    135 H135        1.5580  -15.2175  -47.2838 H         1 UNK         0.0800 
    136 H136       -1.4235  -14.5839  -48.6240 H         1 UNK         0.1150 
    137 H137       -2.1938  -18.4056  -50.4071 H         1 UNK         0.1150 
    138 H138        1.7975  -17.3272  -49.3092 H         1 UNK         0.1150 
    139 H139       -0.3689  -19.7719  -51.1540 H         1 UNK         0.0800 
    140 H140        1.2383  -19.0929  -51.1503 H         1 UNK         0.0800 
    141 H141       -0.9786  -19.9489  -47.7782 H         1 UNK         0.0800 
    142 H142       -1.4902  -20.8231  -49.2015 H         1 UNK         0.0800 
    143 H143       -0.3885  -22.9126  -48.3002 H         1 UNK         0.0600 
    144 H144        0.5574  -21.1253  -46.2545 H         1 UNK         0.3000 
    145 H145        1.1083  -22.8544  -43.7428 H         1 UNK         0.0600 
    146 H146        3.5116  -23.5742  -43.7668 H         1 UNK         0.0600 
    147 H147        2.4294  -24.8079  -44.3915 H         1 UNK         0.0600 
    148 H148        3.4000  -23.8585  -45.5045 H         1 UNK         0.0600 
    149 H149        1.8425  -20.8062  -43.9481 H         1 UNK         0.3000 
    150 H150        4.4225  -19.1867  -45.4392 H         1 UNK         0.0600 
    151 H151        2.8775  -17.4207  -46.3508 H         1 UNK         0.0600 
    152 H152        1.5977  -18.6245  -46.4929 H         1 UNK         0.0600 
    153 H153        3.0562  -18.7718  -47.4589 H         1 UNK         0.0600 
    154 H154        2.0798  -18.2053  -44.0735 H         1 UNK         0.3000 
    155 H155        2.9865  -19.2932  -40.8204 H         1 UNK         0.0600 
    156 H156        2.6455  -16.8633  -40.3332 H         1 UNK         0.0600 
    157 H157        2.9759  -16.4793  -42.0224 H         1 UNK         0.0600 
    158 H158        4.2357  -17.1714  -41.0153 H         1 UNK         0.0600 
    159 H159        0.8196  -17.7672  -42.0078 H         1 UNK         0.3000 
    160 H160       -1.2951  -20.5982  -42.5468 H         1 UNK         0.0600 
    161 H161       -1.4573  -18.3738  -40.4433 H         1 UNK         0.0600 
    162 H162       -1.5596  -20.0999  -40.1166 H         1 UNK         0.0600 
    163 H163       -2.8130  -19.3161  -41.0648 H         1 UNK         0.0600 
    164 H164       -1.6182  -17.7356  -42.8154 H         1 UNK         0.3000 
    165 H165       -0.4424  -17.4563  -46.1182 H         1 UNK         0.0600 
    166 H166       -3.3871  -17.5873  -45.2744 H         1 UNK         0.0600 
    167 H167       -2.7542  -16.6751  -46.6424 H         1 UNK         0.0600 
    168 H168       -2.6614  -18.4291  -46.6396 H         1 UNK         0.0600 
    169 H169       -1.9381  -15.6450  -44.5326 H         1 UNK         0.3000 
    170 H170       -1.1729  -14.3938  -42.8355 H         1 UNK         0.0600 
    171 H171        0.5198  -15.4251  -41.2839 H         1 UNK         0.0600 
    172 H172        1.7918  -14.5196  -42.1043 H         1 UNK         0.0600 
    173 H173        0.5213  -13.6685  -41.2396 H         1 UNK         0.0600 
    174 H174        1.2794  -13.1790  -43.9961 H         1 UNK         0.3000 
    175 H175        0.3930  -11.4642  -46.1335 H         1 UNK         0.0600 
    176 H176       -0.4363   -9.1452  -45.6807 H         1 UNK         0.0600 
    177 H177       -1.7515  -10.2877  -45.8948 H         1 UNK         0.0600 
    178 H178       -1.3275   -9.7385  -44.2797 H         1 UNK         0.0600 
    179 H179        2.1405  -10.7744  -44.9735 H         1 UNK         0.3000 
    180 H180        2.9306   -9.1985  -42.2451 H         1 UNK         0.0600 
    181 H181        4.1179  -11.0056  -40.9725 H         1 UNK         0.0600 
    182 H182        2.4120  -10.9509  -40.5619 H         1 UNK         0.0600 
    183 H183        3.0124  -12.2063  -41.6392 H         1 UNK         0.0600 
    184 H184        3.9258  -11.5006  -43.8777 H         1 UNK         0.3000 
    185 H185        5.5847   -9.3599  -46.1275 H         1 UNK         0.0600 
    186 H186        7.6121  -10.7159  -45.6570 H         1 UNK         0.0600 
    187 H187        7.3716   -9.5281  -44.3860 H         1 UNK         0.0600 
    188 H188        6.9506  -11.2121  -44.0984 H         1 UNK         0.0600 
    189 H189        5.5311  -12.2075  -45.8576 H         1 UNK         0.3000 
    190 H190       -1.8365  -21.3558  -45.4573 H         1 UNK         0.3000 
    191 H191       -4.5502  -22.1651  -45.9935 H         1 UNK         0.0600 
    192 H192       -4.9609  -21.4797  -43.6715 H         1 UNK         0.0600 
    193 H193       -3.9114  -20.2928  -44.4314 H         1 UNK         0.0600 
    194 H194       -3.2438  -21.4799  -43.3093 H         1 UNK         0.0600 
    195 H195       -1.7988  -23.6958  -44.3529 H         1 UNK         0.3000 
    196 H196       -3.2769  -25.9385  -43.2652 H         1 UNK         0.0600 
    197 H197       -1.0109  -26.8000  -42.7199 H         1 UNK         0.0600 
    198 H198       -1.1751  -25.1255  -42.2158 H         1 UNK         0.0600 
    199 H199       -0.2647  -25.5249  -43.6716 H         1 UNK         0.0600 
    200 H200       -1.2298  -25.3784  -46.1545 H         1 UNK         0.3000 
    201 H201       -1.4839  -28.0053  -47.2622 H         1 UNK         0.0600 
    202 H202        0.3551  -26.4166  -47.8301 H         1 UNK         0.0600 
    203 H203       -0.8044  -25.3222  -48.5833 H         1 UNK         0.0600 
    204 H204       -0.5074  -26.9107  -49.2786 H         1 UNK         0.0600 
    205 H205       -3.6825  -25.3776  -47.1446 H         1 UNK         0.3000 
    206 H206       -5.6835  -24.8961  -47.9286 H         1 UNK         0.0600 
    207 H207       -6.3154  -27.2382  -47.3227 H         1 UNK         0.0600 
    208 H208       -7.2233  -26.6518  -48.7077 H         1 UNK         0.0600 
    209 H209       -5.8979  -27.7788  -48.9484 H         1 UNK         0.0600 
    210 H210       -3.6879  -23.9080  -49.3159 H         1 UNK         0.3000 
    211 H211       -3.4416  -24.4253  -52.0523 H         1 UNK         0.0600 
    212 H212       -3.1120  -21.7650  -50.5705 H         1 UNK         0.0600 
    213 H213       -2.4119  -22.1585  -52.1361 H         1 UNK         0.0600 
    214 H214       -1.8769  -23.0204  -50.7011 H         1 UNK         0.0600 
    215 H215       -6.0217  -22.7447  -50.4337 H         1 UNK         0.3000 
    216 H216       -7.1600  -21.2283  -52.5233 H         1 UNK         0.0600 
    217 H217       -9.2102  -21.3369  -51.0999 H         1 UNK         0.0600 
    218 H218       -7.7838  -20.9755  -50.1422 H         1 UNK         0.0600 
    219 H219       -8.4733  -22.5998  -50.1210 H         1 UNK         0.0600 
    220 H220       -7.1400  -24.7137  -52.0459 H         1 UNK         0.3000 
    221 H221       -9.3822  -25.2559  -53.8505 H         1 UNK         0.0600 
    222 H222       -7.2694  -27.1130  -52.6354 H         1 UNK         0.0600 
    223 H223       -8.8373  -26.7498  -51.9147 H         1 UNK         0.0600 
    224 H224       -8.7496  -27.6097  -53.4442 H         1 UNK         0.0600 
    225 H225       -6.1309  -24.3119  -54.3128 H         1 UNK         0.3000 
    226 H226       -5.9765  -25.5123  -57.0447 H         1 UNK         0.0600 
    227 H227       -3.5259  -25.5874  -56.7181 H         1 UNK         0.0600 
    228 H228       -3.6816  -24.9073  -55.0946 H         1 UNK         0.0600 
    229 H229       -4.3060  -26.5121  -55.4525 H         1 UNK         0.0600 
    230 H230       -3.4657  -23.5818  -56.9450 H         1 UNK         0.3000 
    231 H231       -4.7395  -21.2955  -58.2401 H         1 UNK         0.0600 
    232 H232       -2.3669  -20.6098  -58.6098 H         1 UNK         0.0600 
    233 H233       -2.6530  -22.2556  -59.1526 H         1 UNK         0.0600 
    234 H234       -1.8094  -21.9630  -57.6325 H         1 UNK         0.0600 
    235 H235       -5.9830  -20.8607  -56.2890 H         1 UNK         0.3000 
    236 H236       -5.3485  -20.2592  -53.7866 H         1 UNK         0.0600 
    237 H237       -7.3847  -18.7640  -55.5173 H         1 UNK         0.0600 
    238 H238       -7.6426  -20.3074  -54.7131 H         1 UNK         0.0600 
    239 H239       -7.4092  -18.8488  -53.7594 H         1 UNK         0.0600 
    240 H240       -3.4784  -19.2701  -53.2633 H         1 UNK         0.3000 
    241 H241       -2.0582  -17.7150  -52.6714 H         1 UNK         0.0600 
    242 H242       -1.2356  -17.1750  -56.3513 H         1 UNK         0.3800 
    243 H243       -2.1853  -18.4469  -55.6125 H         1 UNK         0.3800 
    244 H244       -4.2178  -15.5988  -53.1088 H         1 UNK         0.0800 
    245 H245       -2.7652  -15.4012  -52.1670 H         1 UNK         0.0800 
    246 H246       -3.5445  -14.9660  -49.6946 H         1 UNK         0.0800 
    247 H247       -3.9385  -16.3463  -48.7010 H         1 UNK         0.0800 
@<TRIPOS>BOND
     1    1    2 1    
     2    1  127 1    
     3    1  128 1    
     4    1  129 1    
     5    2    3 2    
     6    2    4 am   BACKBONE|DICT|INTERRES
     7    4    5 1    
     8    4  130 1    
     9    5    6 1    
    10    5   65 1    
    11    5  131 1    
    12    6    7 1    
    13    6  132 1    
    14    6  133 1    
    15    7    8 1    
    16    8    9 1    
    17    8  134 1    
    18    8  135 1    
    19    9   10 ar   
    20    9   14 ar   
    21   10   11 ar   
    22   10  136 1    
    23   11   12 ar   
    24   11  126 1    
    25   12   13 ar   
    26   12  137 1    
    27   13   14 ar   
    28   13   15 1    
    29   14  138 1    
    30   15   16 1    
    31   15  139 1    
    32   15  140 1    
    33   16   17 1    
    34   17   18 1    
    35   17  141 1    
    36   17  142 1    
    37   18   19 1    
    38   18   67 1    
    39   18  143 1    
    40   19   20 am   BACKBONE|DICT|INTERRES
    41   19  144 1    
    42   20   21 2    
    43   20   22 1    
    44   22   23 1    
    45   22   24 1    
    46   22  145 1    
    47   23  146 1    
    48   23  147 1    
    49   23  148 1    
    50   24   25 am   BACKBONE|DICT|INTERRES
    51   24  149 1    
    52   25   26 2    
    53   25   27 1    
    54   27   28 1    
    55   27   29 1    
    56   27  150 1    
    57   28  151 1    
    58   28  152 1    
    59   28  153 1    
    60   29   30 am   BACKBONE|DICT|INTERRES
    61   29  154 1    
    62   30   31 2    
    63   30   32 1    
    64   32   33 1    
    65   32   34 1    
    66   32  155 1    
    67   33  156 1    
    68   33  157 1    
    69   33  158 1    
    70   34   35 am   BACKBONE|DICT|INTERRES
    71   34  159 1    
    72   35   36 2    
    73   35   37 1    
    74   37   38 1    
    75   37   39 1    
    76   37  160 1    
    77   38  161 1    
    78   38  162 1    
    79   38  163 1    
    80   39   40 am   BACKBONE|DICT|INTERRES
    81   39  164 1    
    82   40   41 2    
    83   40   42 1    
    84   42   43 1    
    85   42   44 1    
    86   42  165 1    
    87   43  166 1    
    88   43  167 1    
    89   43  168 1    
    90   44   45 am   BACKBONE|DICT|INTERRES
    91   44  169 1    
    92   45   46 2    
    93   45   47 1    
    94   47   48 1    
    95   47   49 1    
    96   47  170 1    
    97   48  171 1    
    98   48  172 1    
    99   48  173 1    
   100   49   50 am   BACKBONE|DICT|INTERRES
   101   49  174 1    
   102   50   51 2    
   103   50   52 1    
   104   52   53 1    
   105   52   54 1    
   106   52  175 1    
   107   53  176 1    
   108   53  177 1    
   109   53  178 1    
   110   54   55 am   BACKBONE|DICT|INTERRES
   111   54  179 1    
   112   55   56 2    
   113   55   57 1    
   114   57   58 1    
   115   57   59 1    
   116   57  180 1    
   117   58  181 1    
   118   58  182 1    
   119   58  183 1    
   120   59   60 am   BACKBONE|DICT|INTERRES
   121   59  184 1    
   122   60   61 2    
   123   60   62 1    
   124   62   63 1    
   125   62   64 1    
   126   62  185 1    
   127   63  186 1    
   128   63  187 1    
   129   63  188 1    
   130   64   65 am   BACKBONE|DICT|INTERRES
   131   64  189 1    
   132   65   66 2    
   133   67   68 2    
   134   67   69 am   BACKBONE|DICT|INTERRES
   135   69   70 1    
   136   69  190 1    
   137   70   71 1    
   138   70   72 1    
   139   70  191 1    
   140   71  192 1    
   141   71  193 1    
   142   71  194 1    
   143   72   73 2    
   144   72   74 am   BACKBONE|DICT|INTERRES
   145   74   75 1    
   146   74  195 1    
   147   75   76 1    
   148   75   77 1    
   149   75  196 1    
   150   76  197 1    
   151   76  198 1    
   152   76  199 1    
   153   77   78 2    
   154   77   79 am   BACKBONE|DICT|INTERRES
   155   79   80 1    
   156   79  200 1    
   157   80   81 1    
   158   80   82 1    
   159   80  201 1    
   160   81  202 1    
   161   81  203 1    
   162   81  204 1    
   163   82   83 2    
   164   82   84 am   BACKBONE|DICT|INTERRES
   165   84   85 1    
   166   84  205 1    
   167   85   86 1    
   168   85   87 1    
   169   85  206 1    
   170   86  207 1    
   171   86  208 1    
   172   86  209 1    
   173   87   88 2    
   174   87   89 am   BACKBONE|DICT|INTERRES
   175   89   90 1    
   176   89  210 1    
   177   90   91 1    
   178   90   92 1    
   179   90  211 1    
   180   91  212 1    
   181   91  213 1    
   182   91  214 1    
   183   92   93 2    
   184   92   94 am   BACKBONE|DICT|INTERRES
   185   94   95 1    
   186   94  215 1    
   187   95   96 1    
   188   95   97 1    
   189   95  216 1    
   190   96  217 1    
   191   96  218 1    
   192   96  219 1    
   193   97   98 2    
   194   97   99 am   BACKBONE|DICT|INTERRES
   195   99  100 1    
   196   99  220 1    
   197  100  101 1    
   198  100  102 1    
   199  100  221 1    
   200  101  222 1    
   201  101  223 1    
   202  101  224 1    
   203  102  103 2    
   204  102  104 am   BACKBONE|DICT|INTERRES
   205  104  105 1    
   206  104  225 1    
   207  105  106 1    
   208  105  107 1    
   209  105  226 1    
   210  106  227 1    
   211  106  228 1    
   212  106  229 1    
   213  107  108 2    
   214  107  109 am   BACKBONE|DICT|INTERRES
   215  109  110 1    
   216  109  230 1    
   217  110  111 1    
   218  110  112 1    
   219  110  231 1    
   220  111  232 1    
   221  111  233 1    
   222  111  234 1    
   223  112  113 2    
   224  112  114 am   BACKBONE|DICT|INTERRES
   225  114  115 1    
   226  114  235 1    
   227  115  116 1    
   228  115  117 1    
   229  115  236 1    
   230  116  237 1    
   231  116  238 1    
   232  116  239 1    
   233  117  118 2    
   234  117  119 am   BACKBONE|DICT|INTERRES
   235  119  120 1    
   236  119  240 1    
   237  120  121 1    
   238  120  124 1    
   239  120  241 1    
   240  121  122 am   BACKBONE|DICT|INTERRES
   241  121  123 2    
   242  122  242 1    
   243  122  243 1    
   244  124  125 1    
   245  124  244 1    
   246  124  245 1    
   247  125  126 1    
   248  126  246 1    
   249  126  247 1    
@<TRIPOS>SUBSTRUCTURE
     1 UNK         1 GROUP             0       ****    0 ROOT    
