@<TRIPOS>MOLECULE
3R540
247   249    1
SMALL
USER_CHARGES


@<TRIPOS>ATOM
      1 CA         -0.0702  -12.2152  -53.8624 C.3       0 UNK        -0.1800 
      2 C           0.5628  -12.1768  -52.4786 C.2       0 UNK         0.5000 
      3 O           0.8779  -11.0973  -51.9782 O.2       0 UNK        -0.5000 
      4 N           0.7491  -13.3493  -51.8624 N.am      1 UNK        -0.5000 
      5 CA          1.2837  -13.5145  -50.5053 C.3       1 UNK         0.1400 
      6 C6          1.8199  -14.9461  -50.2367 C.3       23 UNK        -0.0398 
      7 S7          2.8366  -15.6236  -51.5965 S.3       23 UNK        -0.2404 
      8 C8          3.3556  -17.2370  -50.9109 C.3       23 UNK        -0.0205 
      9 C9          2.2571  -18.2805  -50.6810 C.ar      23 UNK        -0.0193 
     10 C10         0.9291  -18.1115  -51.0993 C.ar      23 UNK        -0.1150 
     11 C11        -0.0436  -19.0723  -50.8097 C.ar      23 UNK        -0.0193 
     12 C12         0.3267  -20.2359  -50.1296 C.ar      23 UNK        -0.1150 
     13 C13         1.6551  -20.4500  -49.7597 C.ar      23 UNK        -0.0193 
     14 C14         2.6086  -19.4639  -50.0232 C.ar      23 UNK        -0.1150 
     15 C15         2.0632  -21.7605  -49.1089 C.3       23 UNK        -0.0205 
     16 S16         2.0856  -21.6457  -47.2975 S.3       23 UNK        -0.2404 
     17 C17         2.4287  -23.3866  -46.8684 C.3       23 UNK        -0.0398 
     18 CA          1.5255  -23.9680  -45.7563 C.3       11 UNK         0.1400 
     19 N           1.7223  -23.2972  -44.4715 N.am      11 UNK        -0.5000 
     20 C           1.4598  -23.8401  -43.2754 C.2       10 UNK         0.5000 
     21 O           1.0111  -24.9794  -43.1406 O.2       10 UNK        -0.5000 
     22 CA          1.6916  -22.9606  -42.0291 C.3       10 UNK         0.1400 
     23 CB          2.3424  -23.7416  -40.8698 C.3       10 UNK        -0.1800 
     24 N           2.4141  -21.7135  -42.3038 N.am      10 UNK        -0.5000 
     25 C           3.6882  -21.5469  -42.6890 C.2       9 UNK         0.5000 
     26 O           4.4890  -22.4697  -42.8396 O.2       9 UNK        -0.5000 
     27 CA          4.1383  -20.1026  -42.9920 C.3       9 UNK         0.1400 
     28 CB          4.2668  -19.8969  -44.5095 C.3       9 UNK        -0.1800 
     29 N           3.2257  -19.0881  -42.4594 N.am      9 UNK        -0.5000 
     30 C           3.1079  -18.7640  -41.1647 C.2       8 UNK         0.5000 
     31 O           3.8235  -19.2262  -40.2755 O.2       8 UNK        -0.5000 
     32 CA          1.9693  -17.7930  -40.7993 C.3       8 UNK         0.1400 
     33 CB          2.4095  -16.3366  -41.0087 C.3       8 UNK        -0.1800 
     34 N           0.7349  -18.0516  -41.5485 N.am      8 UNK        -0.5000 
     35 C          -0.0020  -19.1673  -41.4371 C.2       7 UNK         0.5000 
     36 O           0.2727  -20.0914  -40.6726 O.2       7 UNK        -0.5000 
     37 CA         -1.2300  -19.2983  -42.3543 C.3       7 UNK         0.1400 
     38 CB         -2.4228  -18.5135  -41.7894 C.3       7 UNK        -0.1800 
     39 N          -0.9549  -18.8607  -43.7206 N.am      7 UNK        -0.5000 
     40 C          -0.1586  -19.5029  -44.5861 C.2       6 UNK         0.5000 
     41 O           0.3647  -20.5929  -44.3508 O.2       6 UNK        -0.5000 
     42 CA          0.1176  -18.7942  -45.9271 C.3       6 UNK         0.1400 
     43 CB         -0.9842  -19.0970  -46.9539 C.3       6 UNK        -0.1800 
     44 N           0.2698  -17.3464  -45.7770 N.am      6 UNK        -0.5000 
     45 C           1.2554  -16.7662  -45.0767 C.2       5 UNK         0.5000 
     46 O           2.1535  -17.3876  -44.5108 O.2       5 UNK        -0.5000 
     47 CA          1.2000  -15.2380  -44.9415 C.3       5 UNK         0.1400 
     48 CB          1.8040  -14.5662  -46.1805 C.3       5 UNK        -0.1800 
     49 N          -0.1674  -14.7650  -44.7258 N.am      5 UNK        -0.5000 
     50 C          -0.8482  -14.9532  -43.5856 C.2       4 UNK         0.5000 
     51 O          -0.3773  -15.5110  -42.5950 O.2       4 UNK        -0.5000 
     52 CA         -2.3142  -14.4838  -43.5618 C.3       4 UNK         0.1400 
     53 CB         -2.3978  -12.9785  -43.2690 C.3       4 UNK        -0.1800 
     54 N          -3.0213  -14.7757  -44.8085 N.am      4 UNK        -0.5000 
     55 C          -3.2573  -16.0081  -45.2805 C.2       3 UNK         0.5000 
     56 O          -2.9424  -17.0382  -44.6886 O.2       3 UNK        -0.5000 
     57 CA         -3.9157  -16.1084  -46.6675 C.3       3 UNK         0.1400 
     58 CB         -5.4428  -16.2061  -46.5320 C.3       3 UNK        -0.1800 
     59 N          -3.5795  -14.9951  -47.5574 N.am      3 UNK        -0.5000 
     60 C          -2.3448  -14.6972  -47.9832 C.2       2 UNK         0.5000 
     61 O          -1.3319  -15.3068  -47.6283 O.2       2 UNK        -0.5000 
     62 CA         -2.2585  -13.5079  -48.9538 C.3       2 UNK         0.1400 
     63 CB         -2.4576  -12.1594  -48.2324 C.3       2 UNK        -0.1800 
     64 N          -1.0410  -13.5442  -49.7687 N.am      2 UNK        -0.5000 
     65 C           0.2085  -13.1651  -49.4561 C.2       1 UNK         0.5000 
     66 O           0.5332  -12.5736  -48.4270 O.2       1 UNK        -0.5000 
     67 C           0.0361  -24.0378  -46.1535 C.2       11 UNK         0.5000 
     68 O          -0.3337  -24.9207  -46.9267 O.2       11 UNK        -0.5000 
     69 N          -0.8072  -23.1752  -45.5612 N.am      12 UNK        -0.5000 
     70 CA         -2.2731  -23.1742  -45.6736 C.3       12 UNK         0.1400 
     71 CB         -2.8319  -21.9624  -44.9114 C.3       12 UNK        -0.1800 
     72 C          -2.9653  -24.4698  -45.1911 C.2       12 UNK         0.5000 
     73 O          -4.1546  -24.6513  -45.4496 O.2       12 UNK        -0.5000 
     74 N          -2.2234  -25.3551  -44.5107 N.am      13 UNK        -0.5000 
     75 CA         -2.6462  -26.7172  -44.1873 C.3       13 UNK         0.1400 
     76 CB         -1.6673  -27.3073  -43.1609 C.3       13 UNK        -0.1800 
     77 C          -2.7411  -27.6310  -45.4292 C.2       13 UNK         0.5000 
     78 O          -3.4858  -28.6115  -45.3915 O.2       13 UNK        -0.5000 
     79 N          -1.9928  -27.3039  -46.4930 N.am      14 UNK        -0.5000 
     80 CA         -1.9647  -28.0320  -47.7618 C.3       14 UNK         0.1400 
     81 CB         -0.5393  -28.5516  -48.0092 C.3       14 UNK        -0.1800 
     82 C          -2.4259  -27.1459  -48.9315 C.2       14 UNK         0.5000 
     83 O          -3.1743  -27.6185  -49.7885 O.2       14 UNK        -0.5000 
     84 N          -1.9726  -25.8856  -48.9570 N.am      15 UNK        -0.5000 
     85 CA         -2.3283  -24.8844  -49.9610 C.3       15 UNK         0.1400 
     86 CB         -1.2947  -23.7491  -49.9125 C.3       15 UNK        -0.1800 
     87 C          -3.7501  -24.3325  -49.7523 C.2       15 UNK         0.5000 
     88 O          -4.3121  -24.4502  -48.6624 O.2       15 UNK        -0.5000 
     89 N          -4.2987  -23.7171  -50.8066 N.am      16 UNK        -0.5000 
     90 CA         -5.6549  -23.1635  -50.8303 C.3       16 UNK         0.1400 
     91 CB         -6.0345  -22.8632  -52.2880 C.3       16 UNK        -0.1800 
     92 C          -5.8389  -21.9053  -49.9572 C.2       16 UNK         0.5000 
     93 O          -6.9645  -21.6192  -49.5481 O.2       16 UNK        -0.5000 
     94 N          -4.7452  -21.1667  -49.7157 N.am      17 UNK        -0.5000 
     95 CA         -4.6181  -19.8976  -48.9820 C.3       17 UNK         0.1400 
     96 CB         -5.1109  -20.0286  -47.5291 C.3       17 UNK        -0.1800 
     97 C          -5.2579  -18.6875  -49.6966 C.2       17 UNK         0.5000 
     98 O          -4.6477  -17.6190  -49.7315 O.2       17 UNK        -0.5000 
     99 N          -6.4490  -18.8799  -50.2706 N.am      18 UNK        -0.5000 
    100 CA        -7.1294  -17.9644  -51.1783 C.3       18 UNK         0.1400 
    101 CB        -8.5117  -17.6260  -50.5998 C.3       18 UNK        -0.1800 
    102 C         -7.2730  -18.6807  -52.5394 C.2       18 UNK         0.5000 
    103 O         -7.6156  -19.8634  -52.5410 O.2       18 UNK        -0.5000 
    104 N         -7.0716  -18.0295  -53.6951 N.am      19 UNK        -0.5000 
    105 CA        -6.5882  -16.6632  -53.9094 C.3       19 UNK         0.1400 
    106 CB        -6.6965  -16.3394  -55.4076 C.3       19 UNK        -0.1800 
    107 C         -5.1397  -16.4611  -53.4269 C.2       19 UNK         0.5000 
    108 O         -4.3981  -17.4328  -53.2816 O.2       19 UNK        -0.5000 
    109 N         -4.7840  -15.1952  -53.1779 N.am      20 UNK        -0.5000 
    110 CA        -3.5853  -14.7468  -52.4620 C.3       20 UNK         0.1400 
    111 CB        -3.5739  -13.2092  -52.4535 C.3       20 UNK        -0.1800 
    112 C         -2.2311  -15.2737  -52.9707 C.2       20 UNK         0.5000 
    113 O         -1.2921  -15.3507  -52.1778 O.2       20 UNK        -0.5000 
    114 N         -2.1403  -15.5945  -54.2658 N.am      21 UNK        -0.5000 
    115 CA        -0.9376  -16.1343  -54.9016 C.3       21 UNK         0.1400 
    116 CB        -0.8710  -15.6026  -56.3423 C.3       21 UNK        -0.1800 
    117 C         -0.8853  -17.6752  -54.8976 C.2       21 UNK         0.5000 
    118 O          0.1825  -18.2290  -55.1596 O.2       21 UNK        -0.5000 
    119 N         -2.0216  -18.3392  -54.6327 N.am      22 UNK        -0.5000 
    120 CA        -2.2036  -19.8041  -54.6559 C.3       22 UNK         0.1400 
    121 C         -1.9510  -20.4782  -56.0430 C.2       22 UNK         0.5000 
    122 N         -2.0140  -19.7493  -57.1511 N.am      22 UNK        -0.7600 
    123 O         -1.7341  -21.6838  -56.1305 O.2       22 UNK        -0.5000 
    124 C124       -1.4721  -20.5128  -53.4790 C.3       23 UNK        -0.0398 
    125 S125       -2.3456  -20.2704  -51.8971 S.3       23 UNK        -0.2404 
    126 C126       -1.4943  -18.8166  -51.2017 C.3       23 UNK        -0.0205 
    127 H127       -1.0506  -11.7397  -53.8410 H         1 UNK         0.0600 
    128 H128       -0.1935  -13.2359  -54.2222 H         1 UNK         0.0600 
    129 H129        0.5547  -11.6795  -54.5769 H         1 UNK         0.0600 
    130 H130        0.4229  -14.2030  -52.2999 H         1 UNK         0.3000 
    131 H131        2.1151  -12.8171  -50.3815 H         1 UNK         0.0600 
    132 H132        2.4214  -14.9493  -49.3263 H         1 UNK         0.0800 
    133 H133        0.9935  -15.6323  -50.0485 H         1 UNK         0.0800 
    134 H134        3.8762  -17.0560  -49.9692 H         1 UNK         0.0800 
    135 H135        4.0931  -17.6660  -51.5904 H         1 UNK         0.0800 
    136 H136        0.6316  -17.2236  -51.6364 H         1 UNK         0.1150 
    137 H137       -0.4178  -20.9824  -49.8976 H         1 UNK         0.1150 
    138 H138        3.6334  -19.6229  -49.7174 H         1 UNK         0.1150 
    139 H139        1.3783  -22.5516  -49.4138 H         1 UNK         0.0800 
    140 H140        3.0517  -22.0571  -49.4631 H         1 UNK         0.0800 
    141 H141        3.4725  -23.4520  -46.5585 H         1 UNK         0.0800 
    142 H142        2.3528  -24.0104  -47.7606 H         1 UNK         0.0800 
    143 H143        1.8412  -25.0054  -45.6241 H         1 UNK         0.0600 
    144 H144        1.9996  -22.3255  -44.5078 H         1 UNK         0.3000 
    145 H145        0.6979  -22.6559  -41.6987 H         1 UNK         0.0600 
    146 H146        2.4875  -23.1032  -39.9982 H         1 UNK         0.0600 
    147 H147        1.7123  -24.5754  -40.5582 H         1 UNK         0.0600 
    148 H148        3.3114  -24.1549  -41.1502 H         1 UNK         0.0600 
    149 H149        1.8480  -20.8787  -42.2296 H         1 UNK         0.3000 
    150 H150        5.1216  -19.9605  -42.5394 H         1 UNK         0.0600 
    151 H151        4.9425  -20.6292  -44.9532 H         1 UNK         0.0600 
    152 H152        4.6617  -18.9075  -44.7409 H         1 UNK         0.0600 
    153 H153        3.3019  -19.9944  -45.0083 H         1 UNK         0.0600 
    154 H154        2.6489  -18.5986  -43.1399 H         1 UNK         0.3000 
    155 H155        1.7480  -17.9288  -39.7387 H         1 UNK         0.0600 
    156 H156        3.3153  -16.1169  -40.4423 H         1 UNK         0.0600 
    157 H157        1.6406  -15.6403  -40.6738 H         1 UNK         0.0600 
    158 H158        2.6190  -16.1262  -42.0574 H         1 UNK         0.0600 
    159 H159        0.4137  -17.3091  -42.1615 H         1 UNK         0.3000 
    160 H160       -1.5065  -20.3537  -42.3857 H         1 UNK         0.0600 
    161 H161       -2.2255  -17.4415  -41.7645 H         1 UNK         0.0600 
    162 H162       -2.6534  -18.8303  -40.7715 H         1 UNK         0.0600 
    163 H163       -3.3179  -18.6739  -42.3908 H         1 UNK         0.0600 
    164 H164       -1.4267  -18.0150  -44.0280 H         1 UNK         0.3000 
    165 H165        1.0618  -19.1741  -46.3177 H         1 UNK         0.0600 
    166 H166       -0.8046  -18.5705  -47.8914 H         1 UNK         0.0600 
    167 H167       -1.0174  -20.1633  -47.1818 H         1 UNK         0.0600 
    168 H168       -1.9693  -18.8061  -46.5898 H         1 UNK         0.0600 
    169 H169       -0.4153  -16.7564  -46.2342 H         1 UNK         0.3000 
    170 H170        1.8024  -14.9519  -44.0769 H         1 UNK         0.0600 
    171 H171        2.8444  -14.8636  -46.3172 H         1 UNK         0.0600 
    172 H172        1.2645  -14.8414  -47.0863 H         1 UNK         0.0600 
    173 H173        1.7841  -13.4801  -46.0913 H         1 UNK         0.0600 
    174 H174       -0.6382  -14.3597  -45.5227 H         1 UNK         0.3000 
    175 H175       -2.8208  -15.0182  -42.7553 H         1 UNK         0.0600 
    176 H176       -1.8896  -12.7343  -42.3351 H         1 UNK         0.0600 
    177 H177       -1.9347  -12.3865  -44.0595 H         1 UNK         0.0600 
    178 H178       -3.4335  -12.6533  -43.1684 H         1 UNK         0.0600 
    179 H179       -3.3159  -13.9859  -45.3629 H         1 UNK         0.3000 
    180 H180       -3.5530  -17.0243  -47.1373 H         1 UNK         0.0600 
    181 H181       -5.8684  -15.2974  -46.1045 H         1 UNK         0.0600 
    182 H182       -5.7261  -17.0366  -45.8840 H         1 UNK         0.0600 
    183 H183       -5.9155  -16.3759  -47.4996 H         1 UNK         0.0600 
    184 H184       -4.3587  -14.4492  -47.8950 H         1 UNK         0.3000 
    185 H185       -3.0815  -13.6191  -49.6585 H         1 UNK         0.0600 
    186 H186       -3.4668  -12.0794  -47.8274 H         1 UNK         0.0600 
    187 H187       -1.7681  -12.0349  -47.3970 H         1 UNK         0.0600 
    188 H188       -2.3167  -11.3211  -48.9148 H         1 UNK         0.0600 
    189 H189       -1.1326  -14.0690  -50.6321 H         1 UNK         0.3000 
    190 H190       -0.4021  -22.4601  -44.9666 H         1 UNK         0.3000 
    191 H191       -2.5244  -23.0593  -46.7298 H         1 UNK         0.0600 
    192 H192       -2.5131  -21.9646  -43.8691 H         1 UNK         0.0600 
    193 H193       -3.9226  -21.9567  -44.9186 H         1 UNK         0.0600 
    194 H194       -2.5097  -21.0270  -45.3644 H         1 UNK         0.0600 
    195 H195       -1.2628  -25.1210  -44.3021 H         1 UNK         0.3000 
    196 H196       -3.6370  -26.6718  -43.7305 H         1 UNK         0.0600 
    197 H197       -1.9677  -28.3139  -42.8671 H         1 UNK         0.0600 
    198 H198       -1.6314  -26.7014  -42.2553 H         1 UNK         0.0600 
    199 H199       -0.6545  -27.3698  -43.5615 H         1 UNK         0.0600 
    200 H200       -1.4267  -26.4634  -46.4493 H         1 UNK         0.3000 
    201 H201       -2.6351  -28.8931  -47.7255 H         1 UNK         0.0600 
    202 H202       -0.2304  -29.2388  -47.2214 H         1 UNK         0.0600 
    203 H203        0.1863  -27.7378  -48.0462 H         1 UNK         0.0600 
    204 H204       -0.4782  -29.0917  -48.9548 H         1 UNK         0.0600 
    205 H205       -1.3626  -25.5629  -48.2096 H         1 UNK         0.3000 
    206 H206       -2.2815  -25.3539  -50.9459 H         1 UNK         0.0600 
    207 H207       -0.2848  -24.1375  -50.0424 H         1 UNK         0.0600 
    208 H208       -1.4668  -23.0270  -50.7108 H         1 UNK         0.0600 
    209 H209       -1.3283  -23.2097  -48.9651 H         1 UNK         0.0600 
    210 H210       -3.7729  -23.6509  -51.6662 H         1 UNK         0.3000 
    211 H211       -6.3379  -23.9268  -50.4514 H         1 UNK         0.0600 
    212 H212       -7.0688  -22.5243  -52.3572 H         1 UNK         0.0600 
    213 H213       -5.9450  -23.7514  -52.9135 H         1 UNK         0.0600 
    214 H214       -5.4041  -22.0822  -52.7161 H         1 UNK         0.0600 
    215 H215       -3.8922  -21.4773  -50.1592 H         1 UNK         0.3000 
    216 H216       -3.5463  -19.7015  -48.9348 H         1 UNK         0.0600 
    217 H217       -4.8338  -19.1522  -46.9439 H         1 UNK         0.0600 
    218 H218       -4.6680  -20.8969  -47.0425 H         1 UNK         0.0600 
    219 H219       -6.1950  -20.1291  -47.4720 H         1 UNK         0.0600 
    220 H220       -6.8538  -19.8103  -50.2081 H         1 UNK         0.3000 
    221 H221       -6.5688  -17.0365  -51.2620 H         1 UNK         0.0600 
    222 H222       -9.1295  -18.5172  -50.4800 H         1 UNK         0.0600 
    223 H223       -8.4226  -17.1481  -49.6239 H         1 UNK         0.0600 
    224 H224       -9.0489  -16.9373  -51.2529 H         1 UNK         0.0600 
    225 H225       -7.1830  -18.5671  -54.5409 H         1 UNK         0.3000 
    226 H226       -7.2396  -15.9825  -53.3576 H         1 UNK         0.0600 
    227 H227       -7.7229  -16.4429  -55.7606 H         1 UNK         0.0600 
    228 H228       -6.3879  -15.3140  -55.6152 H         1 UNK         0.0600 
    229 H229       -6.0678  -16.9986  -56.0081 H         1 UNK         0.0600 
    230 H230       -5.4579  -14.4692  -53.3757 H         1 UNK         0.3000 
    231 H231       -3.6863  -15.1005  -51.4342 H         1 UNK         0.0600 
    232 H232       -4.4381  -12.8103  -51.9220 H         1 UNK         0.0600 
    233 H233       -3.5875  -12.8048  -53.4664 H         1 UNK         0.0600 
    234 H234       -2.6842  -12.8140  -51.9629 H         1 UNK         0.0600 
    235 H235       -2.9593  -15.4915  -54.8467 H         1 UNK         0.3000 
    236 H236       -0.0500  -15.7809  -54.3721 H         1 UNK         0.0600 
    237 H237        0.0284  -15.9548  -56.8492 H         1 UNK         0.0600 
    238 H238       -1.7291  -15.9272  -56.9321 H         1 UNK         0.0600 
    239 H239       -0.8454  -14.5129  -56.3601 H         1 UNK         0.0600 
    240 H240       -2.8412  -17.8169  -54.3380 H         1 UNK         0.3000 
    241 H241       -3.2732  -19.9551  -54.5044 H         1 UNK         0.0600 
    242 H242       -1.8626  -20.1914  -58.0442 H         1 UNK         0.3800 
    243 H243       -2.2065  -18.7622  -57.1056 H         1 UNK         0.3800 
    244 H244       -1.4312  -21.5923  -53.6284 H         1 UNK         0.0800 
    245 H245       -0.4345  -20.1876  -53.3984 H         1 UNK         0.0800 
    246 H246       -1.5621  -18.0023  -51.9208 H         1 UNK         0.0800 
    247 H247       -2.0322  -18.4782  -50.3166 H         1 UNK         0.0800 
@<TRIPOS>BOND
     1    1    2 1    
     2    1  127 1    
     3    1  128 1    
     4    1  129 1    
     5    2    3 2    
     6    2    4 am   BACKBONE|DICT|INTERRES
     7    4    5 1    
     8    4  130 1    
     9    5    6 1    
    10    5   65 1    
    11    5  131 1    
    12    6    7 1    
    13    6  132 1    
    14    6  133 1    
    15    7    8 1    
    16    8    9 1    
    17    8  134 1    
    18    8  135 1    
    19    9   10 ar   
    20    9   14 ar   
    21   10   11 ar   
    22   10  136 1    
    23   11   12 ar   
    24   11  126 1    
    25   12   13 ar   
    26   12  137 1    
    27   13   14 ar   
    28   13   15 1    
    29   14  138 1    
    30   15   16 1    
    31   15  139 1    
    32   15  140 1    
    33   16   17 1    
    34   17   18 1    
    35   17  141 1    
    36   17  142 1    
    37   18   19 1    
    38   18   67 1    
    39   18  143 1    
    40   19   20 am   BACKBONE|DICT|INTERRES
    41   19  144 1    
    42   20   21 2    
    43   20   22 1    
    44   22   23 1    
    45   22   24 1    
    46   22  145 1    
    47   23  146 1    
    48   23  147 1    
    49   23  148 1    
    50   24   25 am   BACKBONE|DICT|INTERRES
    51   24  149 1    
    52   25   26 2    
    53   25   27 1    
    54   27   28 1    
    55   27   29 1    
    56   27  150 1    
    57   28  151 1    
    58   28  152 1    
    59   28  153 1    
    60   29   30 am   BACKBONE|DICT|INTERRES
    61   29  154 1    
    62   30   31 2    
    63   30   32 1    
    64   32   33 1    
    65   32   34 1    
    66   32  155 1    
    67   33  156 1    
    68   33  157 1    
    69   33  158 1    
    70   34   35 am   BACKBONE|DICT|INTERRES
    71   34  159 1    
    72   35   36 2    
    73   35   37 1    
    74   37   38 1    
    75   37   39 1    
    76   37  160 1    
    77   38  161 1    
    78   38  162 1    
    79   38  163 1    
    80   39   40 am   BACKBONE|DICT|INTERRES
    81   39  164 1    
    82   40   41 2    
    83   40   42 1    
    84   42   43 1    
    85   42   44 1    
    86   42  165 1    
    87   43  166 1    
    88   43  167 1    
    89   43  168 1    
    90   44   45 am   BACKBONE|DICT|INTERRES
    91   44  169 1    
    92   45   46 2    
    93   45   47 1    
    94   47   48 1    
    95   47   49 1    
    96   47  170 1    
    97   48  171 1    
    98   48  172 1    
    99   48  173 1    
   100   49   50 am   BACKBONE|DICT|INTERRES
   101   49  174 1    
   102   50   51 2    
   103   50   52 1    
   104   52   53 1    
   105   52   54 1    
   106   52  175 1    
   107   53  176 1    
   108   53  177 1    
   109   53  178 1    
   110   54   55 am   BACKBONE|DICT|INTERRES
   111   54  179 1    
   112   55   56 2    
   113   55   57 1    
   114   57   58 1    
   115   57   59 1    
   116   57  180 1    
   117   58  181 1    
   118   58  182 1    
   119   58  183 1    
   120   59   60 am   BACKBONE|DICT|INTERRES
   121   59  184 1    
   122   60   61 2    
   123   60   62 1    
   124   62   63 1    
   125   62   64 1    
   126   62  185 1    
   127   63  186 1    
   128   63  187 1    
   129   63  188 1    
   130   64   65 am   BACKBONE|DICT|INTERRES
   131   64  189 1    
   132   65   66 2    
   133   67   68 2    
   134   67   69 am   BACKBONE|DICT|INTERRES
   135   69   70 1    
   136   69  190 1    
   137   70   71 1    
   138   70   72 1    
   139   70  191 1    
   140   71  192 1    
   141   71  193 1    
   142   71  194 1    
   143   72   73 2    
   144   72   74 am   BACKBONE|DICT|INTERRES
   145   74   75 1    
   146   74  195 1    
   147   75   76 1    
   148   75   77 1    
   149   75  196 1    
   150   76  197 1    
   151   76  198 1    
   152   76  199 1    
   153   77   78 2    
   154   77   79 am   BACKBONE|DICT|INTERRES
   155   79   80 1    
   156   79  200 1    
   157   80   81 1    
   158   80   82 1    
   159   80  201 1    
   160   81  202 1    
   161   81  203 1    
   162   81  204 1    
   163   82   83 2    
   164   82   84 am   BACKBONE|DICT|INTERRES
   165   84   85 1    
   166   84  205 1    
   167   85   86 1    
   168   85   87 1    
   169   85  206 1    
   170   86  207 1    
   171   86  208 1    
   172   86  209 1    
   173   87   88 2    
   174   87   89 am   BACKBONE|DICT|INTERRES
   175   89   90 1    
   176   89  210 1    
   177   90   91 1    
   178   90   92 1    
   179   90  211 1    
   180   91  212 1    
   181   91  213 1    
   182   91  214 1    
   183   92   93 2    
   184   92   94 am   BACKBONE|DICT|INTERRES
   185   94   95 1    
   186   94  215 1    
   187   95   96 1    
   188   95   97 1    
   189   95  216 1    
   190   96  217 1    
   191   96  218 1    
   192   96  219 1    
   193   97   98 2    
   194   97   99 am   BACKBONE|DICT|INTERRES
   195   99  100 1    
   196   99  220 1    
   197  100  101 1    
   198  100  102 1    
   199  100  221 1    
   200  101  222 1    
   201  101  223 1    
   202  101  224 1    
   203  102  103 2    
   204  102  104 am   BACKBONE|DICT|INTERRES
   205  104  105 1    
   206  104  225 1    
   207  105  106 1    
   208  105  107 1    
   209  105  226 1    
   210  106  227 1    
   211  106  228 1    
   212  106  229 1    
   213  107  108 2    
   214  107  109 am   BACKBONE|DICT|INTERRES
   215  109  110 1    
   216  109  230 1    
   217  110  111 1    
   218  110  112 1    
   219  110  231 1    
   220  111  232 1    
   221  111  233 1    
   222  111  234 1    
   223  112  113 2    
   224  112  114 am   BACKBONE|DICT|INTERRES
   225  114  115 1    
   226  114  235 1    
   227  115  116 1    
   228  115  117 1    
   229  115  236 1    
   230  116  237 1    
   231  116  238 1    
   232  116  239 1    
   233  117  118 2    
   234  117  119 am   BACKBONE|DICT|INTERRES
   235  119  120 1    
   236  119  240 1    
   237  120  121 1    
   238  120  124 1    
   239  120  241 1    
   240  121  122 am   BACKBONE|DICT|INTERRES
   241  121  123 2    
   242  122  242 1    
   243  122  243 1    
   244  124  125 1    
   245  124  244 1    
   246  124  245 1    
   247  125  126 1    
   248  126  246 1    
   249  126  247 1    
@<TRIPOS>SUBSTRUCTURE
     1 UNK         1 GROUP             0       ****    0 ROOT    
