@<TRIPOS>MOLECULE
3R540
247   249    1
SMALL
USER_CHARGES


@<TRIPOS>ATOM
      1 CA         -2.6914  -12.4364  -49.8691 C.3       0 UNK        -0.1800 
      2 C          -1.2257  -12.0404  -49.9615 C.2       0 UNK         0.5000 
      3 O          -0.8425  -10.9897  -49.4482 O.2       0 UNK        -0.5000 
      4 N          -0.4082  -12.8767  -50.6137 N.am      1 UNK        -0.5000 
      5 CA          1.0263  -12.6536  -50.8342 C.3       1 UNK         0.1400 
      6 C6          1.4550  -13.1071  -52.2588 C.3       23 UNK        -0.0398 
      7 S7          1.8882  -14.8668  -52.5102 S.3       23 UNK        -0.2404 
      8 C8          0.2681  -15.6932  -52.6532 C.3       23 UNK        -0.0205 
      9 C9         -0.2526  -16.2011  -51.3133 C.ar      23 UNK        -0.0193 
     10 C10        -1.5726  -15.9494  -50.9263 C.ar      23 UNK        -0.1150 
     11 C11        -2.0667  -16.4439  -49.7144 C.ar      23 UNK        -0.0193 
     12 C12        -1.2189  -17.1760  -48.8793 C.ar      23 UNK        -0.1150 
     13 C13         0.1076  -17.4230  -49.2440 C.ar      23 UNK        -0.0193 
     14 C14         0.5766  -16.9483  -50.4694 C.ar      23 UNK        -0.1150 
     15 C15         1.0506  -18.1566  -48.2994 C.3       23 UNK        -0.0205 
     16 S16         1.0728  -19.9549  -48.5755 S.3       23 UNK        -0.2404 
     17 C17        -0.6036  -20.4187  -48.0401 C.3       23 UNK        -0.0398 
     18 CA         -0.6554  -21.8146  -47.3783 C.3       11 UNK         0.1400 
     19 N          -0.1396  -21.8233  -46.0050 N.am      11 UNK        -0.5000 
     20 C           0.0016  -22.9241  -45.2512 C.2       10 UNK         0.5000 
     21 O          -0.2347  -24.0627  -45.6543 O.2       10 UNK        -0.5000 
     22 CA          0.4112  -22.7224  -43.7813 C.3       10 UNK         0.1400 
     23 CB          1.9203  -22.4683  -43.6542 C.3       10 UNK        -0.1800 
     24 N          -0.3413  -21.6466  -43.1334 N.am      10 UNK        -0.5000 
     25 C          -1.6685  -21.6685  -42.9395 C.2       9 UNK         0.5000 
     26 O          -2.3860  -22.6209  -43.2440 O.2       9 UNK        -0.5000 
     27 CA         -2.3146  -20.4013  -42.3510 C.3       9 UNK         0.1400 
     28 CB         -2.1615  -20.3678  -40.8234 C.3       9 UNK        -0.1800 
     29 N          -1.7751  -19.1707  -42.9279 N.am      9 UNK        -0.5000 
     30 C          -1.8701  -18.8271  -44.2203 C.2       8 UNK         0.5000 
     31 O          -2.4716  -19.4897  -45.0658 O.2       8 UNK        -0.5000 
     32 CA         -1.1056  -17.5633  -44.6530 C.3       8 UNK         0.1400 
     33 CB         -1.8806  -16.2910  -44.2810 C.3       8 UNK        -0.1800 
     34 N           0.2476  -17.5105  -44.0963 N.am      8 UNK        -0.5000 
     35 C           1.1999  -18.4250  -44.3344 C.2       7 UNK         0.5000 
     36 O           1.0503  -19.3847  -45.0881 O.2       7 UNK        -0.5000 
     37 CA          2.5192  -18.2754  -43.5607 C.3       7 UNK         0.1400 
     38 CB          3.4564  -17.2688  -44.2466 C.3       7 UNK        -0.1800 
     39 N           2.2831  -17.8829  -42.1717 N.am      7 UNK        -0.5000 
     40 C           1.7405  -18.6900  -41.2478 C.2       6 UNK         0.5000 
     41 O           1.4388  -19.8645  -41.4596 O.2       6 UNK        -0.5000 
     42 CA          1.4447  -18.0654  -39.8716 C.3       6 UNK         0.1400 
     43 CB          2.7022  -18.0761  -38.9900 C.3       6 UNK        -0.1800 
     44 N           0.9368  -16.6964  -39.9757 N.am      6 UNK        -0.5000 
     45 C          -0.2441  -16.3645  -40.5174 C.2       5 UNK         0.5000 
     46 O          -1.0577  -17.1881  -40.9333 O.2       5 UNK        -0.5000 
     47 CA         -0.5421  -14.8593  -40.6674 C.3       5 UNK         0.1400 
     48 CB         -1.2539  -14.3241  -39.4164 C.3       5 UNK        -0.1800 
     49 N           0.6552  -14.0531  -40.9283 N.am      5 UNK        -0.5000 
     50 C           1.4445  -14.1902  -42.0013 C.2       4 UNK         0.5000 
     51 O           1.2342  -15.0056  -42.9045 O.2       4 UNK        -0.5000 
     52 CA          2.7074  -13.3191  -42.0367 C.3       4 UNK         0.1400 
     53 CB          3.7169  -13.7889  -40.9696 C.3       4 UNK        -0.1800 
     54 N           3.3053  -13.4180  -43.3633 N.am      4 UNK        -0.5000 
     55 C           4.2352  -12.6046  -43.8759 C.2       3 UNK         0.5000 
     56 O           4.6873  -11.6249  -43.2817 O.2       3 UNK        -0.5000 
     57 CA          4.7668  -12.9451  -45.2827 C.3       3 UNK         0.1400 
     58 CB          6.1057  -13.6922  -45.1765 C.3       3 UNK        -0.1800 
     59 N           3.8414  -13.7539  -46.0801 N.am      3 UNK        -0.5000 
     60 C           2.7334  -13.2808  -46.6631 C.2       2 UNK         0.5000 
     61 O           2.3582  -12.1089  -46.5779 O.2       2 UNK        -0.5000 
     62 CA          1.8836  -14.3092  -47.4339 C.3       2 UNK         0.1400 
     63 CB          0.7750  -14.8455  -46.5165 C.3       2 UNK        -0.1800 
     64 N           1.2649  -13.7574  -48.6388 N.am      2 UNK        -0.5000 
     65 C           1.9033  -13.2100  -49.6846 C.2       1 UNK         0.5000 
     66 O           3.1304  -13.1292  -49.7664 O.2       1 UNK        -0.5000 
     67 C          -2.0892  -22.3681  -47.4589 C.2       11 UNK         0.5000 
     68 O          -2.3736  -23.1558  -48.3607 O.2       11 UNK        -0.5000 
     69 N          -2.9638  -21.9586  -46.5307 N.am      12 UNK        -0.5000 
     70 CA         -4.3420  -22.4379  -46.4304 C.3       12 UNK         0.1400 
     71 CB         -5.1001  -21.6256  -45.3701 C.3       12 UNK        -0.1800 
     72 C          -4.4240  -23.9472  -46.1402 C.2       12 UNK         0.5000 
     73 O          -5.1779  -24.6524  -46.8111 O.2       12 UNK        -0.5000 
     74 N          -3.6368  -24.4086  -45.1608 N.am      13 UNK        -0.5000 
     75 CA         -3.6148  -25.7935  -44.7015 C.3       13 UNK         0.1400 
     76 CB         -2.9367  -25.8614  -43.3233 C.3       13 UNK        -0.1800 
     77 C          -2.9360  -26.7574  -45.6896 C.2       13 UNK         0.5000 
     78 O          -3.5411  -27.7628  -46.0642 O.2       13 UNK        -0.5000 
     79 N          -1.6817  -26.4660  -46.0577 N.am      14 UNK        -0.5000 
     80 CA         -0.8116  -27.4060  -46.7659 C.3       14 UNK         0.1400 
     81 CB          0.6369  -27.2111  -46.2901 C.3       14 UNK        -0.1800 
     82 C          -0.8885  -27.2711  -48.2931 C.2       14 UNK         0.5000 
     83 O          -0.7755  -28.2823  -48.9873 O.2       14 UNK        -0.5000 
     84 N          -1.0575  -26.0401  -48.7924 N.am      15 UNK        -0.5000 
     85 CA         -1.0146  -25.7236  -50.2234 C.3       15 UNK         0.1400 
     86 CB         -0.0480  -24.5481  -50.4490 C.3       15 UNK        -0.1800 
     87 C          -2.4053  -25.4307  -50.8139 C.2       15 UNK         0.5000 
     88 O          -2.4830  -25.0354  -51.9766 O.2       15 UNK        -0.5000 
     89 N          -3.4720  -25.6102  -50.0194 N.am      16 UNK        -0.5000 
     90 CA         -4.8791  -25.3851  -50.3738 C.3       16 UNK         0.1400 
     91 CB         -5.3565  -26.4481  -51.3854 C.3       16 UNK        -0.1800 
     92 C          -5.1456  -23.9391  -50.8457 C.2       16 UNK         0.5000 
     93 O          -5.7520  -23.7270  -51.8972 O.2       16 UNK        -0.5000 
     94 N          -4.6439  -22.9795  -50.0563 N.am      17 UNK        -0.5000 
     95 CA         -4.6312  -21.5343  -50.2970 C.3       17 UNK         0.1400 
     96 CB         -6.0569  -20.9571  -50.4160 C.3       17 UNK        -0.1800 
     97 C          -3.6981  -21.1715  -51.4652 C.2       17 UNK         0.5000 
     98 O          -4.1051  -20.4921  -52.4075 O.2       17 UNK        -0.5000 
     99 N          -2.4502  -21.6565  -51.3745 N.am      18 UNK        -0.5000 
    100 CA        -1.3406  -21.3982  -52.3030 C.3       18 UNK         0.1400 
    101 CB        -0.9066  -19.9185  -52.2138 C.3       18 UNK        -0.1800 
    102 C         -1.6319  -21.8418  -53.7546 C.2       18 UNK         0.5000 
    103 O         -1.1729  -21.1948  -54.6975 O.2       18 UNK        -0.5000 
    104 N         -2.4162  -22.9198  -53.9051 N.am      19 UNK        -0.5000 
    105 CA        -2.9268  -23.5576  -55.1270 C.3       19 UNK         0.1400 
    106 CB        -1.7723  -24.1193  -55.9769 C.3       19 UNK        -0.1800 
    107 C         -3.8716  -22.6898  -55.9870 C.2       19 UNK         0.5000 
    108 O         -4.8584  -23.2062  -56.5114 O.2       19 UNK        -0.5000 
    109 N         -3.5628  -21.3969  -56.1192 N.am      20 UNK        -0.5000 
    110 CA        -4.2610  -20.4100  -56.9417 C.3       20 UNK         0.1400 
    111 CB        -3.2204  -19.3932  -57.4434 C.3       20 UNK        -0.1800 
    112 C         -5.4169  -19.7004  -56.2065 C.2       20 UNK         0.5000 
    113 O         -5.9032  -18.6835  -56.7046 O.2       20 UNK        -0.5000 
    114 N         -5.8129  -20.2034  -55.0268 N.am      21 UNK        -0.5000 
    115 CA        -6.8194  -19.6354  -54.1183 C.3       21 UNK         0.1400 
    116 CB        -8.2318  -19.7293  -54.7318 C.3       21 UNK        -0.1800 
    117 C         -6.4412  -18.2085  -53.6668 C.2       21 UNK         0.5000 
    118 O         -7.2683  -17.2958  -53.7015 O.2       21 UNK        -0.5000 
    119 N         -5.1617  -18.0531  -53.3076 N.am      22 UNK        -0.5000 
    120 CA        -4.4628  -16.8022  -52.9776 C.3       22 UNK         0.1400 
    121 C         -4.3121  -15.7913  -54.1571 C.2       22 UNK         0.5000 
    122 N         -4.6728  -16.1269  -55.3907 N.am      22 UNK        -0.7600 
    123 O         -3.8124  -14.6873  -53.9590 O.2       22 UNK        -0.5000 
    124 C124       -5.0015  -16.1328  -51.6826 C.3       23 UNK        -0.0398 
    125 S125       -4.7191  -17.1628  -50.1991 S.3       23 UNK        -0.2404 
    126 C126       -3.5008  -16.1693  -49.2780 C.3       23 UNK        -0.0205 
    127 H127       -2.9102  -12.8368  -48.8794 H         1 UNK         0.0600 
    128 H128       -2.9522  -13.1854  -50.6165 H         1 UNK         0.0600 
    129 H129       -3.3278  -11.5668  -50.0339 H         1 UNK         0.0600 
    130 H130       -0.7693  -13.7461  -50.9799 H         1 UNK         0.3000 
    131 H131        1.1961  -11.5749  -50.8113 H         1 UNK         0.0600 
    132 H132        0.6992  -12.8196  -52.9911 H         1 UNK         0.0800 
    133 H133        2.3437  -12.5410  -52.5418 H         1 UNK         0.0800 
    134 H134       -0.4483  -15.0239  -53.1325 H         1 UNK         0.0800 
    135 H135        0.3763  -16.5509  -53.3184 H         1 UNK         0.0800 
    136 H136       -2.2184  -15.3775  -51.5756 H         1 UNK         0.1150 
    137 H137       -1.5936  -17.5395  -47.9351 H         1 UNK         0.1150 
    138 H138        1.5981  -17.1489  -50.7600 H         1 UNK         0.1150 
    139 H139        2.0646  -17.7747  -48.4251 H         1 UNK         0.0800 
    140 H140        0.7827  -17.9472  -47.2657 H         1 UNK         0.0800 
    141 H141       -1.2364  -20.3699  -48.9283 H         1 UNK         0.0800 
    142 H142       -0.9922  -19.6718  -47.3483 H         1 UNK         0.0800 
    143 H143       -0.0263  -22.4931  -47.9573 H         1 UNK         0.0600 
    144 H144        0.1329  -20.9237  -45.6145 H         1 UNK         0.3000 
    145 H145        0.1840  -23.6477  -43.2478 H         1 UNK         0.0600 
    146 H146        2.2179  -22.3770  -42.6095 H         1 UNK         0.0600 
    147 H147        2.4899  -23.2929  -44.0843 H         1 UNK         0.0600 
    148 H148        2.2250  -21.5582  -44.1694 H         1 UNK         0.0600 
    149 H149        0.1895  -20.8426  -42.8177 H         1 UNK         0.3000 
    150 H150       -3.3808  -20.4352  -42.5833 H         1 UNK         0.0600 
    151 H151       -2.5763  -21.2685  -40.3693 H         1 UNK         0.0600 
    152 H152       -2.6872  -19.5148  -40.3939 H         1 UNK         0.0600 
    153 H153       -1.1155  -20.3000  -40.5239 H         1 UNK         0.0600 
    154 H154       -1.3055  -18.5366  -42.2875 H         1 UNK         0.3000 
    155 H155       -1.0091  -17.5903  -45.7377 H         1 UNK         0.0600 
    156 H156       -2.8422  -16.2610  -44.7947 H         1 UNK         0.0600 
    157 H157       -1.3325  -15.3924  -44.5625 H         1 UNK         0.0600 
    158 H158       -2.0820  -16.2373  -43.2120 H         1 UNK         0.0600 
    159 H159        0.4686  -16.7241  -43.4936 H         1 UNK         0.3000 
    160 H160        3.0169  -19.2474  -43.5597 H         1 UNK         0.0600 
    161 H161        3.0230  -16.2718  -44.2933 H         1 UNK         0.0600 
    162 H162        3.6733  -17.5781  -45.2698 H         1 UNK         0.0600 
    163 H163        4.4084  -17.1953  -43.7207 H         1 UNK         0.0600 
    164 H164        2.4474  -16.9156  -41.9377 H         1 UNK         0.3000 
    165 H165        0.6804  -18.6759  -39.3860 H         1 UNK         0.0600 
    166 H166        2.4841  -17.7059  -37.9881 H         1 UNK         0.0600 
    167 H167        3.0945  -19.0883  -38.8830 H         1 UNK         0.0600 
    168 H168        3.4967  -17.4585  -39.4109 H         1 UNK         0.0600 
    169 H169        1.5414  -15.9575  -39.6496 H         1 UNK         0.3000 
    170 H170       -1.2143  -14.7394  -41.5189 H         1 UNK         0.0600 
    171 H171       -2.1621  -14.8926  -39.2112 H         1 UNK         0.0600 
    172 H172       -0.6189  -14.3891  -38.5319 H         1 UNK         0.0600 
    173 H173       -1.5471  -13.2820  -39.5446 H         1 UNK         0.0600 
    174 H174        0.8943  -13.3656  -40.2281 H         1 UNK         0.3000 
    175 H175        2.4176  -12.2834  -41.8489 H         1 UNK         0.0600 
    176 H176        4.0283  -14.8205  -41.1392 H         1 UNK         0.0600 
    177 H177        4.6131  -13.1685  -40.9676 H         1 UNK         0.0600 
    178 H178        3.2922  -13.7333  -39.9669 H         1 UNK         0.0600 
    179 H179        2.9280  -14.1668  -43.9284 H         1 UNK         0.3000 
    180 H180        4.9433  -12.0024  -45.8053 H         1 UNK         0.0600 
    181 H181        5.9922  -14.6521  -44.6707 H         1 UNK         0.0600 
    182 H182        6.8353  -13.1090  -44.6130 H         1 UNK         0.0600 
    183 H183        6.5332  -13.8789  -46.1618 H         1 UNK         0.0600 
    184 H184        4.0877  -14.7253  -46.2017 H         1 UNK         0.3000 
    185 H185        2.5199  -15.1404  -47.7440 H         1 UNK         0.0600 
    186 H186        1.1980  -15.3455  -45.6463 H         1 UNK         0.0600 
    187 H187        0.1338  -14.0422  -46.1511 H         1 UNK         0.0600 
    188 H188        0.1408  -15.5662  -47.0276 H         1 UNK         0.0600 
    189 H189        0.2569  -13.7537  -48.6603 H         1 UNK         0.3000 
    190 H190       -2.6736  -21.2604  -45.8514 H         1 UNK         0.3000 
    191 H191       -4.8324  -22.2587  -47.3872 H         1 UNK         0.0600 
    192 H192       -5.1034  -20.5637  -45.6168 H         1 UNK         0.0600 
    193 H193       -6.1400  -21.9474  -45.3024 H         1 UNK         0.0600 
    194 H194       -4.6577  -21.7363  -44.3806 H         1 UNK         0.0600 
    195 H195       -3.0654  -23.7488  -44.6391 H         1 UNK         0.3000 
    196 H196       -4.6485  -26.1237  -44.5769 H         1 UNK         0.0600 
    197 H197       -2.9042  -26.8862  -42.9515 H         1 UNK         0.0600 
    198 H198       -3.4799  -25.2660  -42.5892 H         1 UNK         0.0600 
    199 H199       -1.9116  -25.4900  -43.3583 H         1 UNK         0.0600 
    200 H200       -1.2542  -25.5922  -45.7564 H         1 UNK         0.3000 
    201 H201       -1.1010  -28.4279  -46.5104 H         1 UNK         0.0600 
    202 H202        0.7151  -27.3176  -45.2080 H         1 UNK         0.0600 
    203 H203        1.0237  -26.2277  -46.5592 H         1 UNK         0.0600 
    204 H204        1.2970  -27.9544  -46.7388 H         1 UNK         0.0600 
    205 H205       -1.1807  -25.2610  -48.1589 H         1 UNK         0.3000 
    206 H206       -0.6200  -26.5719  -50.7860 H         1 UNK         0.0600 
    207 H207        0.9304  -24.7535  -50.0146 H         1 UNK         0.0600 
    208 H208        0.1053  -24.3698  -51.5139 H         1 UNK         0.0600 
    209 H209       -0.4194  -23.6231  -50.0128 H         1 UNK         0.0600 
    210 H210       -3.2979  -25.9049  -49.0692 H         1 UNK         0.3000 
    211 H211       -5.4559  -25.5203  -49.4578 H         1 UNK         0.0600 
    212 H212       -4.8475  -26.3536  -52.3452 H         1 UNK         0.0600 
    213 H213       -6.4268  -26.3553  -51.5727 H         1 UNK         0.0600 
    214 H214       -5.1795  -27.4560  -51.0101 H         1 UNK         0.0600 
    215 H215       -4.0681  -23.2846  -49.2769 H         1 UNK         0.3000 
    216 H216       -4.1816  -21.0763  -49.4153 H         1 UNK         0.0600 
    217 H217       -6.0309  -19.8780  -50.5683 H         1 UNK         0.0600 
    218 H218       -6.6283  -21.1416  -49.5065 H         1 UNK         0.0600 
    219 H219       -6.6104  -21.3893  -51.2476 H         1 UNK         0.0600 
    220 H220       -2.2394  -22.2587  -50.5906 H         1 UNK         0.3000 
    221 H221       -0.5019  -22.0055  -51.9631 H         1 UNK         0.0600 
    222 H222       -1.6731  -19.2449  -52.5984 H         1 UNK         0.0600 
    223 H223       -0.6975  -19.6279  -51.1853 H         1 UNK         0.0600 
    224 H224        0.0032  -19.7387  -52.7873 H         1 UNK         0.0600 
    225 H225       -2.6898  -23.4044  -53.0551 H         1 UNK         0.3000 
    226 H226       -3.5192  -24.4058  -54.7797 H         1 UNK         0.0600 
    227 H227       -1.1511  -24.7997  -55.3943 H         1 UNK         0.0600 
    228 H228       -2.1547  -24.6789  -56.8313 H         1 UNK         0.0600 
    229 H229       -1.1307  -23.3285  -56.3666 H         1 UNK         0.0600 
    230 H230       -2.7176  -21.0803  -55.6487 H         1 UNK         0.3000 
    231 H231       -4.6928  -20.9104  -57.8107 H         1 UNK         0.0600 
    232 H232       -2.7808  -18.8307  -56.6184 H         1 UNK         0.0600 
    233 H233       -3.6666  -18.6745  -58.1318 H         1 UNK         0.0600 
    234 H234       -2.4106  -19.8895  -57.9788 H         1 UNK         0.0600 
    235 H235       -5.3073  -21.0023  -54.6696 H         1 UNK         0.3000 
    236 H236       -6.8106  -20.2550  -53.2231 H         1 UNK         0.0600 
    237 H237       -8.4663  -20.7530  -55.0237 H         1 UNK         0.0600 
    238 H238       -8.9894  -19.4153  -54.0130 H         1 UNK         0.0600 
    239 H239       -8.3366  -19.0966  -55.6135 H         1 UNK         0.0600 
    240 H240       -4.6005  -18.8983  -53.2303 H         1 UNK         0.3000 
    241 H241       -3.4380  -17.1150  -52.7771 H         1 UNK         0.0600 
    242 H242       -4.5494  -15.4589  -56.1347 H         1 UNK         0.3800 
    243 H243       -5.1078  -17.0185  -55.5900 H         1 UNK         0.3800 
    244 H244       -4.5446  -15.1559  -51.5247 H         1 UNK         0.0800 
    245 H245       -6.0704  -15.9363  -51.7682 H         1 UNK         0.0800 
    246 H246       -3.7300  -15.1089  -49.3712 H         1 UNK         0.0800 
    247 H247       -3.6168  -16.3989  -48.2177 H         1 UNK         0.0800 
@<TRIPOS>BOND
     1    1    2 1    
     2    1  127 1    
     3    1  128 1    
     4    1  129 1    
     5    2    3 2    
     6    2    4 am   BACKBONE|DICT|INTERRES
     7    4    5 1    
     8    4  130 1    
     9    5    6 1    
    10    5   65 1    
    11    5  131 1    
    12    6    7 1    
    13    6  132 1    
    14    6  133 1    
    15    7    8 1    
    16    8    9 1    
    17    8  134 1    
    18    8  135 1    
    19    9   10 ar   
    20    9   14 ar   
    21   10   11 ar   
    22   10  136 1    
    23   11   12 ar   
    24   11  126 1    
    25   12   13 ar   
    26   12  137 1    
    27   13   14 ar   
    28   13   15 1    
    29   14  138 1    
    30   15   16 1    
    31   15  139 1    
    32   15  140 1    
    33   16   17 1    
    34   17   18 1    
    35   17  141 1    
    36   17  142 1    
    37   18   19 1    
    38   18   67 1    
    39   18  143 1    
    40   19   20 am   BACKBONE|DICT|INTERRES
    41   19  144 1    
    42   20   21 2    
    43   20   22 1    
    44   22   23 1    
    45   22   24 1    
    46   22  145 1    
    47   23  146 1    
    48   23  147 1    
    49   23  148 1    
    50   24   25 am   BACKBONE|DICT|INTERRES
    51   24  149 1    
    52   25   26 2    
    53   25   27 1    
    54   27   28 1    
    55   27   29 1    
    56   27  150 1    
    57   28  151 1    
    58   28  152 1    
    59   28  153 1    
    60   29   30 am   BACKBONE|DICT|INTERRES
    61   29  154 1    
    62   30   31 2    
    63   30   32 1    
    64   32   33 1    
    65   32   34 1    
    66   32  155 1    
    67   33  156 1    
    68   33  157 1    
    69   33  158 1    
    70   34   35 am   BACKBONE|DICT|INTERRES
    71   34  159 1    
    72   35   36 2    
    73   35   37 1    
    74   37   38 1    
    75   37   39 1    
    76   37  160 1    
    77   38  161 1    
    78   38  162 1    
    79   38  163 1    
    80   39   40 am   BACKBONE|DICT|INTERRES
    81   39  164 1    
    82   40   41 2    
    83   40   42 1    
    84   42   43 1    
    85   42   44 1    
    86   42  165 1    
    87   43  166 1    
    88   43  167 1    
    89   43  168 1    
    90   44   45 am   BACKBONE|DICT|INTERRES
    91   44  169 1    
    92   45   46 2    
    93   45   47 1    
    94   47   48 1    
    95   47   49 1    
    96   47  170 1    
    97   48  171 1    
    98   48  172 1    
    99   48  173 1    
   100   49   50 am   BACKBONE|DICT|INTERRES
   101   49  174 1    
   102   50   51 2    
   103   50   52 1    
   104   52   53 1    
   105   52   54 1    
   106   52  175 1    
   107   53  176 1    
   108   53  177 1    
   109   53  178 1    
   110   54   55 am   BACKBONE|DICT|INTERRES
   111   54  179 1    
   112   55   56 2    
   113   55   57 1    
   114   57   58 1    
   115   57   59 1    
   116   57  180 1    
   117   58  181 1    
   118   58  182 1    
   119   58  183 1    
   120   59   60 am   BACKBONE|DICT|INTERRES
   121   59  184 1    
   122   60   61 2    
   123   60   62 1    
   124   62   63 1    
   125   62   64 1    
   126   62  185 1    
   127   63  186 1    
   128   63  187 1    
   129   63  188 1    
   130   64   65 am   BACKBONE|DICT|INTERRES
   131   64  189 1    
   132   65   66 2    
   133   67   68 2    
   134   67   69 am   BACKBONE|DICT|INTERRES
   135   69   70 1    
   136   69  190 1    
   137   70   71 1    
   138   70   72 1    
   139   70  191 1    
   140   71  192 1    
   141   71  193 1    
   142   71  194 1    
   143   72   73 2    
   144   72   74 am   BACKBONE|DICT|INTERRES
   145   74   75 1    
   146   74  195 1    
   147   75   76 1    
   148   75   77 1    
   149   75  196 1    
   150   76  197 1    
   151   76  198 1    
   152   76  199 1    
   153   77   78 2    
   154   77   79 am   BACKBONE|DICT|INTERRES
   155   79   80 1    
   156   79  200 1    
   157   80   81 1    
   158   80   82 1    
   159   80  201 1    
   160   81  202 1    
   161   81  203 1    
   162   81  204 1    
   163   82   83 2    
   164   82   84 am   BACKBONE|DICT|INTERRES
   165   84   85 1    
   166   84  205 1    
   167   85   86 1    
   168   85   87 1    
   169   85  206 1    
   170   86  207 1    
   171   86  208 1    
   172   86  209 1    
   173   87   88 2    
   174   87   89 am   BACKBONE|DICT|INTERRES
   175   89   90 1    
   176   89  210 1    
   177   90   91 1    
   178   90   92 1    
   179   90  211 1    
   180   91  212 1    
   181   91  213 1    
   182   91  214 1    
   183   92   93 2    
   184   92   94 am   BACKBONE|DICT|INTERRES
   185   94   95 1    
   186   94  215 1    
   187   95   96 1    
   188   95   97 1    
   189   95  216 1    
   190   96  217 1    
   191   96  218 1    
   192   96  219 1    
   193   97   98 2    
   194   97   99 am   BACKBONE|DICT|INTERRES
   195   99  100 1    
   196   99  220 1    
   197  100  101 1    
   198  100  102 1    
   199  100  221 1    
   200  101  222 1    
   201  101  223 1    
   202  101  224 1    
   203  102  103 2    
   204  102  104 am   BACKBONE|DICT|INTERRES
   205  104  105 1    
   206  104  225 1    
   207  105  106 1    
   208  105  107 1    
   209  105  226 1    
   210  106  227 1    
   211  106  228 1    
   212  106  229 1    
   213  107  108 2    
   214  107  109 am   BACKBONE|DICT|INTERRES
   215  109  110 1    
   216  109  230 1    
   217  110  111 1    
   218  110  112 1    
   219  110  231 1    
   220  111  232 1    
   221  111  233 1    
   222  111  234 1    
   223  112  113 2    
   224  112  114 am   BACKBONE|DICT|INTERRES
   225  114  115 1    
   226  114  235 1    
   227  115  116 1    
   228  115  117 1    
   229  115  236 1    
   230  116  237 1    
   231  116  238 1    
   232  116  239 1    
   233  117  118 2    
   234  117  119 am   BACKBONE|DICT|INTERRES
   235  119  120 1    
   236  119  240 1    
   237  120  121 1    
   238  120  124 1    
   239  120  241 1    
   240  121  122 am   BACKBONE|DICT|INTERRES
   241  121  123 2    
   242  122  242 1    
   243  122  243 1    
   244  124  125 1    
   245  124  244 1    
   246  124  245 1    
   247  125  126 1    
   248  126  246 1    
   249  126  247 1    
@<TRIPOS>SUBSTRUCTURE
     1 UNK         1 GROUP             0       ****    0 ROOT    
