@<TRIPOS>MOLECULE
3R540
247   249    1
SMALL
USER_CHARGES


@<TRIPOS>ATOM
      1 CA          2.8009   -9.9137  -47.7113 C.3       0 UNK        -0.1800 
      2 C           1.9483  -11.1149  -48.1167 C.2       0 UNK         0.5000 
      3 O           0.7316  -10.9794  -48.2299 O.2       0 UNK        -0.5000 
      4 N           2.5287  -12.2967  -48.3641 N.am      1 UNK        -0.5000 
      5 CA          3.9417  -12.6553  -48.1909 C.3       1 UNK         0.1400 
      6 C6          4.3141  -13.9208  -49.0102 C.3       23 UNK        -0.0398 
      7 S7          3.2328  -15.3656  -48.7156 S.3       23 UNK        -0.2404 
      8 C8          2.7772  -15.7935  -50.4237 C.3       23 UNK        -0.0205 
      9 C9          1.7557  -16.9163  -50.4519 C.ar      23 UNK        -0.0193 
     10 C10         0.3915  -16.6179  -50.4834 C.ar      23 UNK        -0.1150 
     11 C11        -0.5615  -17.6396  -50.4939 C.ar      23 UNK        -0.0193 
     12 C12        -0.1336  -18.9714  -50.4576 C.ar      23 UNK        -0.1150 
     13 C13         1.2288  -19.2842  -50.4416 C.ar      23 UNK        -0.0193 
     14 C14         2.1702  -18.2509  -50.4449 C.ar      23 UNK        -0.1150 
     15 C15         1.6763  -20.7397  -50.4127 C.3       23 UNK        -0.0205 
     16 S16         2.6013  -21.1798  -48.9013 S.3       23 UNK        -0.2404 
     17 C17         1.4974  -20.6075  -47.5640 C.3       23 UNK        -0.0398 
     18 CA          0.5730  -21.7065  -46.9924 C.3       11 UNK         0.1400 
     19 N           0.0505  -21.3301  -45.6786 N.am      11 UNK        -0.5000 
     20 C          -0.6538  -22.1273  -44.8649 C.2       10 UNK         0.5000 
     21 O          -0.8814  -23.3143  -45.0982 O.2       10 UNK        -0.5000 
     22 CA         -1.2504  -21.4680  -43.6069 C.3       10 UNK         0.1400 
     23 CB         -0.2077  -21.3815  -42.4829 C.3       10 UNK        -0.1800 
     24 N          -1.7953  -20.1359  -43.8834 N.am      10 UNK        -0.5000 
     25 C          -2.8421  -19.9075  -44.6900 C.2       9 UNK         0.5000 
     26 O          -3.4968  -20.8051  -45.2199 O.2       9 UNK        -0.5000 
     27 CA         -3.1925  -18.4385  -44.9928 C.3       9 UNK         0.1400 
     28 CB         -4.0388  -17.8347  -43.8628 C.3       9 UNK        -0.1800 
     29 N          -2.0103  -17.6066  -45.2255 N.am      9 UNK        -0.5000 
     30 C          -1.1618  -17.7599  -46.2522 C.2       8 UNK         0.5000 
     31 O          -1.3203  -18.5948  -47.1397 O.2       8 UNK        -0.5000 
     32 CA          0.1047  -16.8805  -46.2570 C.3       8 UNK         0.1400 
     33 CB         -0.1895  -15.4837  -46.8233 C.3       8 UNK        -0.1800 
     34 N           0.7011  -16.7636  -44.9243 N.am      8 UNK        -0.5000 
     35 C           1.2045  -17.7965  -44.2322 C.2       7 UNK         0.5000 
     36 O           1.2815  -18.9415  -44.6739 O.2       7 UNK        -0.5000 
     37 CA          1.6315  -17.5217  -42.7815 C.3       7 UNK         0.1400 
     38 CB          3.0620  -16.9632  -42.7208 C.3       7 UNK        -0.1800 
     39 N           0.7009  -16.6068  -42.1200 N.am      7 UNK        -0.5000 
     40 C          -0.5327  -16.9524  -41.7222 C.2       6 UNK         0.5000 
     41 O          -0.9858  -18.0920  -41.8288 O.2       6 UNK        -0.5000 
     42 CA         -1.4237  -15.8339  -41.1458 C.3       6 UNK         0.1400 
     43 CB         -1.1747  -15.6702  -39.6393 C.3       6 UNK        -0.1800 
     44 N          -1.2222  -14.5452  -41.8099 N.am      6 UNK        -0.5000 
     45 C          -1.5221  -14.2945  -43.0925 C.2       5 UNK         0.5000 
     46 O          -2.0804  -15.1061  -43.8280 O.2       5 UNK        -0.5000 
     47 CA         -1.0743  -12.9343  -43.6678 C.3       5 UNK         0.1400 
     48 CB         -2.2147  -11.9104  -43.5737 C.3       5 UNK        -0.1800 
     49 N           0.1251  -12.3829  -43.0273 N.am      5 UNK        -0.5000 
     50 C           1.3142  -12.9973  -42.9684 C.2       4 UNK         0.5000 
     51 O           1.5314  -14.1085  -43.4595 O.2       4 UNK        -0.5000 
     52 CA          2.4079  -12.2911  -42.1554 C.3       4 UNK         0.1400 
     53 CB          2.0152  -12.2317  -40.6631 C.3       4 UNK        -0.1800 
     54 N           3.6587  -13.0255  -42.3157 N.am      4 UNK        -0.5000 
     55 C           4.8712  -12.6091  -41.9375 C.2       3 UNK         0.5000 
     56 O           5.0898  -11.5057  -41.4373 O.2       3 UNK        -0.5000 
     57 CA          6.0498  -13.5775  -42.1558 C.3       3 UNK         0.1400 
     58 CB          6.3931  -14.2884  -40.8377 C.3       3 UNK        -0.1800 
     59 N           5.7940  -14.5982  -43.1775 N.am      3 UNK        -0.5000 
     60 C           5.8443  -14.4587  -44.5104 C.2       2 UNK         0.5000 
     61 O           5.6225  -15.4147  -45.2542 O.2       2 UNK        -0.5000 
     62 CA          6.2466  -13.0990  -45.1341 C.3       2 UNK         0.1400 
     63 CB          7.7750  -13.0067  -45.2789 C.3       2 UNK        -0.1800 
     64 N           5.6517  -12.8958  -46.4551 N.am      2 UNK        -0.5000 
     65 C           4.3395  -12.7869  -46.7016 C.2       1 UNK         0.5000 
     66 O           3.4811  -12.7657  -45.8164 O.2       1 UNK        -0.5000 
     67 C          -0.5632  -22.0789  -47.9683 C.2       11 UNK         0.5000 
     68 O          -0.4662  -23.1071  -48.6352 O.2       11 UNK        -0.5000 
     69 N          -1.6384  -21.2770  -48.0021 N.am      12 UNK        -0.5000 
     70 CA         -2.8466  -21.5411  -48.7860 C.3       12 UNK         0.1400 
     71 CB         -3.8177  -20.3567  -48.6820 C.3       12 UNK        -0.1800 
     72 C          -3.5461  -22.8438  -48.3663 C.2       12 UNK         0.5000 
     73 O          -3.9212  -23.6317  -49.2323 O.2       12 UNK        -0.5000 
     74 N          -3.6760  -23.0697  -47.0515 N.am      13 UNK        -0.5000 
     75 CA         -4.2259  -24.2980  -46.4771 C.3       13 UNK         0.1400 
     76 CB         -4.3465  -24.1555  -44.9527 C.3       13 UNK        -0.1800 
     77 C          -3.4075  -25.5456  -46.8602 C.2       13 UNK         0.5000 
     78 O          -3.9910  -26.5462  -47.2821 O.2       13 UNK        -0.5000 
     79 N          -2.0740  -25.4386  -46.7591 N.am      14 UNK        -0.5000 
     80 CA         -1.1164  -26.4622  -47.1824 C.3       14 UNK         0.1400 
     81 CB          0.2975  -26.0601  -46.7371 C.3       14 UNK        -0.1800 
     82 C          -1.1577  -26.7378  -48.6980 C.2       14 UNK         0.5000 
     83 O          -1.0424  -27.8947  -49.1063 O.2       14 UNK        -0.5000 
     84 N          -1.3754  -25.6896  -49.5039 N.am      15 UNK        -0.5000 
     85 CA         -1.5956  -25.7387  -50.9506 C.3       15 UNK         0.1400 
     86 CB         -1.3015  -24.3540  -51.5563 C.3       15 UNK        -0.1800 
     87 C          -3.0074  -26.2536  -51.3077 C.2       15 UNK         0.5000 
     88 O          -3.7733  -25.5586  -51.9795 O.2       15 UNK        -0.5000 
     89 N          -3.3106  -27.4740  -50.8434 N.am      16 UNK        -0.5000 
     90 CA         -4.5055  -28.2792  -51.1065 C.3       16 UNK         0.1400 
     91 CB         -4.4356  -28.8650  -52.5310 C.3       16 UNK        -0.1800 
     92 C          -5.8323  -27.5491  -50.8116 C.2       16 UNK         0.5000 
     93 O          -6.7577  -27.6060  -51.6235 O.2       16 UNK        -0.5000 
     94 N          -5.8943  -26.8842  -49.6472 N.am      17 UNK        -0.5000 
     95 CA         -7.0340  -26.1127  -49.1402 C.3       17 UNK         0.1400 
     96 CB         -8.2182  -27.0421  -48.7998 C.3       17 UNK        -0.1800 
     97 C          -7.4193  -24.9491  -50.0775 C.2       17 UNK         0.5000 
     98 O          -8.5661  -24.8547  -50.5193 O.2       17 UNK        -0.5000 
     99 N          -6.4321  -24.0875  -50.3542 N.am      18 UNK        -0.5000 
    100 CA        -6.4924  -22.8965  -51.2007 C.3       18 UNK         0.1400 
    101 CB        -7.4506  -21.8391  -50.6135 C.3       18 UNK        -0.1800 
    102 C         -6.7609  -23.2273  -52.6805 C.2       18 UNK         0.5000 
    103 O         -7.6096  -22.5972  -53.3144 O.2       18 UNK        -0.5000 
    104 N         -6.0027  -24.1947  -53.2172 N.am      19 UNK        -0.5000 
    105 CA        -5.9142  -24.4478  -54.6582 C.3       19 UNK         0.1400 
    106 CB        -5.3875  -25.8686  -54.9020 C.3       19 UNK        -0.1800 
    107 C         -5.0214  -23.4050  -55.3620 C.2       19 UNK         0.5000 
    108 O         -5.1837  -23.1749  -56.5613 O.2       19 UNK        -0.5000 
    109 N         -4.1122  -22.7793  -54.5991 N.am      20 UNK        -0.5000 
    110 CA        -3.3362  -21.6046  -54.9931 C.3       20 UNK         0.1400 
    111 CB        -2.2735  -21.3355  -53.9150 C.3       20 UNK        -0.1800 
    112 C         -4.2386  -20.3686  -55.1808 C.2       20 UNK         0.5000 
    113 O         -5.2791  -20.2596  -54.5261 O.2       20 UNK        -0.5000 
    114 N         -3.8123  -19.4424  -56.0488 N.am      21 UNK        -0.5000 
    115 CA        -4.5282  -18.2159  -56.4197 C.3       21 UNK         0.1400 
    116 CB        -3.9920  -17.7284  -57.7783 C.3       21 UNK        -0.1800 
    117 C         -4.4720  -17.1201  -55.3292 C.2       21 UNK         0.5000 
    118 O         -4.0723  -15.9865  -55.6024 O.2       21 UNK        -0.5000 
    119 N         -4.8662  -17.4864  -54.1072 N.am      22 UNK        -0.5000 
    120 CA        -4.8805  -16.6310  -52.9099 C.3       22 UNK         0.1400 
    121 C         -6.1608  -15.7572  -52.7647 C.2       22 UNK         0.5000 
    122 N         -7.1722  -15.9044  -53.6121 N.am      22 UNK        -0.7600 
    123 O         -6.2342  -14.9180  -51.8712 O.2       22 UNK        -0.5000 
    124 C124       -4.6223  -17.4622  -51.6272 C.3       23 UNK        -0.0398 
    125 S125       -3.0060  -18.3068  -51.6792 S.3       23 UNK        -0.2404 
    126 C126       -2.0436  -17.2842  -50.5155 C.3       23 UNK        -0.0205 
    127 H127        2.1906   -9.0112  -47.6700 H         1 UNK         0.0600 
    128 H128        3.5998   -9.7361  -48.4306 H         1 UNK         0.0600 
    129 H129        3.2383  -10.0619  -46.7244 H         1 UNK         0.0600 
    130 H130        1.9348  -13.0784  -48.5988 H         1 UNK         0.3000 
    131 H131        4.5420  -11.8384  -48.5947 H         1 UNK         0.0600 
    132 H132        4.2811  -13.6650  -50.0700 H         1 UNK         0.0800 
    133 H133        5.3462  -14.2247  -48.8289 H         1 UNK         0.0800 
    134 H134        3.6713  -16.0871  -50.9761 H         1 UNK         0.0800 
    135 H135        2.3753  -14.9132  -50.9280 H         1 UNK         0.0800 
    136 H136        0.0728  -15.5850  -50.4911 H         1 UNK         0.1150 
    137 H137       -0.8654  -19.7662  -50.4437 H         1 UNK         0.1150 
    138 H138        3.2249  -18.4868  -50.4211 H         1 UNK         0.1150 
    139 H139        0.8215  -21.4098  -50.5148 H         1 UNK         0.0800 
    140 H140        2.3114  -20.9299  -51.2787 H         1 UNK         0.0800 
    141 H141        0.9286  -19.7311  -47.8702 H         1 UNK         0.0800 
    142 H142        2.1608  -20.2530  -46.7748 H         1 UNK         0.0800 
    143 H143        1.1754  -22.6043  -46.8380 H         1 UNK         0.0600 
    144 H144        0.2436  -20.3796  -45.3747 H         1 UNK         0.3000 
    145 H145       -2.0706  -22.0992  -43.2588 H         1 UNK         0.0600 
    146 H146       -0.6424  -20.9660  -41.5736 H         1 UNK         0.0600 
    147 H147        0.1813  -22.3701  -42.2361 H         1 UNK         0.0600 
    148 H148        0.6398  -20.7565  -42.7637 H         1 UNK         0.0600 
    149 H149       -1.3402  -19.3501  -43.4318 H         1 UNK         0.3000 
    150 H150       -3.7910  -18.4242  -45.9060 H         1 UNK         0.0600 
    151 H151       -4.9416  -18.4231  -43.6945 H         1 UNK         0.0600 
    152 H152       -4.3526  -16.8193  -44.1052 H         1 UNK         0.0600 
    153 H153       -3.4898  -17.7994  -42.9220 H         1 UNK         0.0600 
    154 H154       -1.8565  -16.8416  -44.5746 H         1 UNK         0.3000 
    155 H155        0.8399  -17.3571  -46.9092 H         1 UNK         0.0600 
    156 H156       -0.5393  -15.5517  -47.8537 H         1 UNK         0.0600 
    157 H157        0.7047  -14.8596  -46.8228 H         1 UNK         0.0600 
    158 H158       -0.9603  -14.9678  -46.2524 H         1 UNK         0.0600 
    159 H159        0.7085  -15.8458  -44.4958 H         1 UNK         0.3000 
    160 H160        1.6206  -18.4700  -42.2399 H         1 UNK         0.0600 
    161 H161        3.1801  -16.0768  -43.3429 H         1 UNK         0.0600 
    162 H162        3.7776  -17.7034  -43.0805 H         1 UNK         0.0600 
    163 H163        3.3455  -16.7035  -41.7008 H         1 UNK         0.0600 
    164 H164        0.9722  -15.6328  -42.0933 H         1 UNK         0.3000 
    165 H165       -2.4647  -16.1302  -41.2903 H         1 UNK         0.0600 
    166 H166       -1.8536  -14.9363  -39.2048 H         1 UNK         0.0600 
    167 H167       -1.3358  -16.6120  -39.1129 H         1 UNK         0.0600 
    168 H168       -0.1534  -15.3482  -39.4316 H         1 UNK         0.0600 
    169 H169       -0.7736  -13.8194  -41.2717 H         1 UNK         0.3000 
    170 H170       -0.8393  -13.0873  -44.7227 H         1 UNK         0.0600 
    171 H171       -3.1153  -12.2829  -44.0640 H         1 UNK         0.0600 
    172 H172       -2.4726  -11.6888  -42.5373 H         1 UNK         0.0600 
    173 H173       -1.9455  -10.9735  -44.0618 H         1 UNK         0.0600 
    174 H174        0.0211  -11.4782  -42.5907 H         1 UNK         0.3000 
    175 H175        2.5331  -11.2818  -42.5522 H         1 UNK         0.0600 
    176 H176        2.7673  -11.7129  -40.0691 H         1 UNK         0.0600 
    177 H177        1.0774  -11.6950  -40.5167 H         1 UNK         0.0600 
    178 H178        1.8920  -13.2305  -40.2423 H         1 UNK         0.0600 
    179 H179        3.5532  -13.9111  -42.7952 H         1 UNK         0.3000 
    180 H180        6.9181  -12.9834  -42.4429 H         1 UNK         0.0600 
    181 H181        5.5671  -14.9088  -40.4871 H         1 UNK         0.0600 
    182 H182        6.6186  -13.5675  -40.0505 H         1 UNK         0.0600 
    183 H183        7.2693  -14.9274  -40.9502 H         1 UNK         0.0600 
    184 H184        5.5608  -15.5105  -42.8161 H         1 UNK         0.3000 
    185 H185        5.9021  -12.2787  -44.5052 H         1 UNK         0.0600 
    186 H186        8.2779  -13.1399  -44.3210 H         1 UNK         0.0600 
    187 H187        8.1599  -13.7721  -45.9543 H         1 UNK         0.0600 
    188 H188        8.0767  -12.0340  -45.6681 H         1 UNK         0.0600 
    189 H189        6.2960  -12.9142  -47.2317 H         1 UNK         0.3000 
    190 H190       -1.6175  -20.4055  -47.4775 H         1 UNK         0.3000 
    191 H191       -2.5441  -21.6389  -49.8302 H         1 UNK         0.0600 
    192 H192       -4.2411  -20.2599  -47.6830 H         1 UNK         0.0600 
    193 H193       -4.6478  -20.4729  -49.3797 H         1 UNK         0.0600 
    194 H194       -3.3211  -19.4193  -48.9196 H         1 UNK         0.0600 
    195 H195       -3.3884  -22.3447  -46.3999 H         1 UNK         0.3000 
    196 H196       -5.2318  -24.4222  -46.8798 H         1 UNK         0.0600 
    197 H197       -4.7967  -25.0462  -44.5129 H         1 UNK         0.0600 
    198 H198       -4.9758  -23.3063  -44.6855 H         1 UNK         0.0600 
    199 H199       -3.3755  -24.0118  -44.4798 H         1 UNK         0.0600 
    200 H200       -1.6829  -24.5853  -46.3699 H         1 UNK         0.3000 
    201 H201       -1.3805  -27.3907  -46.6723 H         1 UNK         0.0600 
    202 H202        0.3483  -25.9310  -45.6558 H         1 UNK         0.0600 
    203 H203        0.6160  -25.1259  -47.1996 H         1 UNK         0.0600 
    204 H204        1.0251  -26.8258  -47.0087 H         1 UNK         0.0600 
    205 H205       -1.4060  -24.7645  -49.0858 H         1 UNK         0.3000 
    206 H206       -0.8808  -26.4418  -51.3825 H         1 UNK         0.0600 
    207 H207       -0.2868  -24.0289  -51.3260 H         1 UNK         0.0600 
    208 H208       -1.3973  -24.3757  -52.6423 H         1 UNK         0.0600 
    209 H209       -1.9882  -23.5958  -51.1809 H         1 UNK         0.0600 
    210 H210       -2.6073  -27.9149  -50.2575 H         1 UNK         0.3000 
    211 H211       -4.4674  -29.1167  -50.4087 H         1 UNK         0.0600 
    212 H212       -4.4415  -28.0827  -53.2882 H         1 UNK         0.0600 
    213 H213       -5.2809  -29.5248  -52.7302 H         1 UNK         0.0600 
    214 H214       -3.5286  -29.4535  -52.6689 H         1 UNK         0.0600 
    215 H215       -5.0728  -26.8810  -49.0509 H         1 UNK         0.3000 
    216 H216       -6.7056  -25.6581  -48.2058 H         1 UNK         0.0600 
    217 H217       -9.0262  -26.4837  -48.3258 H         1 UNK         0.0600 
    218 H218       -7.9158  -27.8263  -48.1059 H         1 UNK         0.0600 
    219 H219       -8.6312  -27.5211  -49.6879 H         1 UNK         0.0600 
    220 H220       -5.5125  -24.2550  -49.9501 H         1 UNK         0.3000 
    221 H221       -5.4913  -22.4637  -51.1761 H         1 UNK         0.0600 
    222 H222       -8.4894  -22.1685  -50.6425 H         1 UNK         0.0600 
    223 H223       -7.1978  -21.6115  -49.5779 H         1 UNK         0.0600 
    224 H224       -7.3885  -20.9057  -51.1744 H         1 UNK         0.0600 
    225 H225       -5.3334  -24.6914  -52.6320 H         1 UNK         0.3000 
    226 H226       -6.9143  -24.3807  -55.0915 H         1 UNK         0.0600 
    227 H227       -6.0093  -26.6088  -54.3980 H         1 UNK         0.0600 
    228 H228       -5.3929  -26.1079  -55.9659 H         1 UNK         0.0600 
    229 H229       -4.3635  -25.9854  -54.5467 H         1 UNK         0.0600 
    230 H230       -4.0636  -23.0419  -53.6266 H         1 UNK         0.3000 
    231 H231       -2.8366  -21.8227  -55.9391 H         1 UNK         0.0600 
    232 H232       -1.5780  -22.1702  -53.8296 H         1 UNK         0.0600 
    233 H233       -2.7255  -21.1742  -52.9353 H         1 UNK         0.0600 
    234 H234       -1.6854  -20.4481  -54.1527 H         1 UNK         0.0600 
    235 H235       -2.9244  -19.5852  -56.5081 H         1 UNK         0.3000 
    236 H236       -5.5824  -18.4658  -56.5567 H         1 UNK         0.0600 
    237 H237       -4.5375  -16.8490  -58.1234 H         1 UNK         0.0600 
    238 H238       -2.9363  -17.4602  -57.7216 H         1 UNK         0.0600 
    239 H239       -4.1030  -18.4957  -58.5447 H         1 UNK         0.0600 
    240 H240       -5.1581  -18.4516  -53.9800 H         1 UNK         0.3000 
    241 H241       -4.0581  -15.9185  -52.9992 H         1 UNK         0.0600 
    242 H242       -7.9935  -15.3285  -53.5116 H         1 UNK         0.3800 
    243 H243       -7.1257  -16.5880  -54.3506 H         1 UNK         0.3800 
    244 H244       -4.6664  -16.8330  -50.7364 H         1 UNK         0.0800 
    245 H245       -5.3993  -18.2181  -51.5016 H         1 UNK         0.0800 
    246 H246       -2.4451  -17.3884  -49.5075 H         1 UNK         0.0800 
    247 H247       -2.1726  -16.2370  -50.7937 H         1 UNK         0.0800 
@<TRIPOS>BOND
     1    1    2 1    
     2    1  127 1    
     3    1  128 1    
     4    1  129 1    
     5    2    3 2    
     6    2    4 am   BACKBONE|DICT|INTERRES
     7    4    5 1    
     8    4  130 1    
     9    5    6 1    
    10    5   65 1    
    11    5  131 1    
    12    6    7 1    
    13    6  132 1    
    14    6  133 1    
    15    7    8 1    
    16    8    9 1    
    17    8  134 1    
    18    8  135 1    
    19    9   10 ar   
    20    9   14 ar   
    21   10   11 ar   
    22   10  136 1    
    23   11   12 ar   
    24   11  126 1    
    25   12   13 ar   
    26   12  137 1    
    27   13   14 ar   
    28   13   15 1    
    29   14  138 1    
    30   15   16 1    
    31   15  139 1    
    32   15  140 1    
    33   16   17 1    
    34   17   18 1    
    35   17  141 1    
    36   17  142 1    
    37   18   19 1    
    38   18   67 1    
    39   18  143 1    
    40   19   20 am   BACKBONE|DICT|INTERRES
    41   19  144 1    
    42   20   21 2    
    43   20   22 1    
    44   22   23 1    
    45   22   24 1    
    46   22  145 1    
    47   23  146 1    
    48   23  147 1    
    49   23  148 1    
    50   24   25 am   BACKBONE|DICT|INTERRES
    51   24  149 1    
    52   25   26 2    
    53   25   27 1    
    54   27   28 1    
    55   27   29 1    
    56   27  150 1    
    57   28  151 1    
    58   28  152 1    
    59   28  153 1    
    60   29   30 am   BACKBONE|DICT|INTERRES
    61   29  154 1    
    62   30   31 2    
    63   30   32 1    
    64   32   33 1    
    65   32   34 1    
    66   32  155 1    
    67   33  156 1    
    68   33  157 1    
    69   33  158 1    
    70   34   35 am   BACKBONE|DICT|INTERRES
    71   34  159 1    
    72   35   36 2    
    73   35   37 1    
    74   37   38 1    
    75   37   39 1    
    76   37  160 1    
    77   38  161 1    
    78   38  162 1    
    79   38  163 1    
    80   39   40 am   BACKBONE|DICT|INTERRES
    81   39  164 1    
    82   40   41 2    
    83   40   42 1    
    84   42   43 1    
    85   42   44 1    
    86   42  165 1    
    87   43  166 1    
    88   43  167 1    
    89   43  168 1    
    90   44   45 am   BACKBONE|DICT|INTERRES
    91   44  169 1    
    92   45   46 2    
    93   45   47 1    
    94   47   48 1    
    95   47   49 1    
    96   47  170 1    
    97   48  171 1    
    98   48  172 1    
    99   48  173 1    
   100   49   50 am   BACKBONE|DICT|INTERRES
   101   49  174 1    
   102   50   51 2    
   103   50   52 1    
   104   52   53 1    
   105   52   54 1    
   106   52  175 1    
   107   53  176 1    
   108   53  177 1    
   109   53  178 1    
   110   54   55 am   BACKBONE|DICT|INTERRES
   111   54  179 1    
   112   55   56 2    
   113   55   57 1    
   114   57   58 1    
   115   57   59 1    
   116   57  180 1    
   117   58  181 1    
   118   58  182 1    
   119   58  183 1    
   120   59   60 am   BACKBONE|DICT|INTERRES
   121   59  184 1    
   122   60   61 2    
   123   60   62 1    
   124   62   63 1    
   125   62   64 1    
   126   62  185 1    
   127   63  186 1    
   128   63  187 1    
   129   63  188 1    
   130   64   65 am   BACKBONE|DICT|INTERRES
   131   64  189 1    
   132   65   66 2    
   133   67   68 2    
   134   67   69 am   BACKBONE|DICT|INTERRES
   135   69   70 1    
   136   69  190 1    
   137   70   71 1    
   138   70   72 1    
   139   70  191 1    
   140   71  192 1    
   141   71  193 1    
   142   71  194 1    
   143   72   73 2    
   144   72   74 am   BACKBONE|DICT|INTERRES
   145   74   75 1    
   146   74  195 1    
   147   75   76 1    
   148   75   77 1    
   149   75  196 1    
   150   76  197 1    
   151   76  198 1    
   152   76  199 1    
   153   77   78 2    
   154   77   79 am   BACKBONE|DICT|INTERRES
   155   79   80 1    
   156   79  200 1    
   157   80   81 1    
   158   80   82 1    
   159   80  201 1    
   160   81  202 1    
   161   81  203 1    
   162   81  204 1    
   163   82   83 2    
   164   82   84 am   BACKBONE|DICT|INTERRES
   165   84   85 1    
   166   84  205 1    
   167   85   86 1    
   168   85   87 1    
   169   85  206 1    
   170   86  207 1    
   171   86  208 1    
   172   86  209 1    
   173   87   88 2    
   174   87   89 am   BACKBONE|DICT|INTERRES
   175   89   90 1    
   176   89  210 1    
   177   90   91 1    
   178   90   92 1    
   179   90  211 1    
   180   91  212 1    
   181   91  213 1    
   182   91  214 1    
   183   92   93 2    
   184   92   94 am   BACKBONE|DICT|INTERRES
   185   94   95 1    
   186   94  215 1    
   187   95   96 1    
   188   95   97 1    
   189   95  216 1    
   190   96  217 1    
   191   96  218 1    
   192   96  219 1    
   193   97   98 2    
   194   97   99 am   BACKBONE|DICT|INTERRES
   195   99  100 1    
   196   99  220 1    
   197  100  101 1    
   198  100  102 1    
   199  100  221 1    
   200  101  222 1    
   201  101  223 1    
   202  101  224 1    
   203  102  103 2    
   204  102  104 am   BACKBONE|DICT|INTERRES
   205  104  105 1    
   206  104  225 1    
   207  105  106 1    
   208  105  107 1    
   209  105  226 1    
   210  106  227 1    
   211  106  228 1    
   212  106  229 1    
   213  107  108 2    
   214  107  109 am   BACKBONE|DICT|INTERRES
   215  109  110 1    
   216  109  230 1    
   217  110  111 1    
   218  110  112 1    
   219  110  231 1    
   220  111  232 1    
   221  111  233 1    
   222  111  234 1    
   223  112  113 2    
   224  112  114 am   BACKBONE|DICT|INTERRES
   225  114  115 1    
   226  114  235 1    
   227  115  116 1    
   228  115  117 1    
   229  115  236 1    
   230  116  237 1    
   231  116  238 1    
   232  116  239 1    
   233  117  118 2    
   234  117  119 am   BACKBONE|DICT|INTERRES
   235  119  120 1    
   236  119  240 1    
   237  120  121 1    
   238  120  124 1    
   239  120  241 1    
   240  121  122 am   BACKBONE|DICT|INTERRES
   241  121  123 2    
   242  122  242 1    
   243  122  243 1    
   244  124  125 1    
   245  124  244 1    
   246  124  245 1    
   247  125  126 1    
   248  126  246 1    
   249  126  247 1    
@<TRIPOS>SUBSTRUCTURE
     1 UNK         1 GROUP             0       ****    0 ROOT    
