@<TRIPOS>MOLECULE
3R540
247   249    1
SMALL
USER_CHARGES


@<TRIPOS>ATOM
      1 CA         -7.3871  -12.5981  -45.8645 C.3       0 UNK        -0.1800 
      2 C          -5.8908  -12.3214  -45.8173 C.2       0 UNK         0.5000 
      3 O          -5.4490  -11.4709  -45.0441 O.2       0 UNK        -0.5000 
      4 N          -5.1133  -13.0287  -46.6463 N.am      1 UNK        -0.5000 
      5 CA         -3.6502  -12.9558  -46.6874 C.3       1 UNK         0.1400 
      6 C6         -3.0998  -13.5892  -47.9863 C.3       23 UNK        -0.0398 
      7 S7         -1.3901  -13.0647  -48.3485 S.3       23 UNK        -0.2404 
      8 C8         -1.3859  -13.1043  -50.1661 C.3       23 UNK        -0.0205 
      9 C9         -1.3490  -14.5304  -50.6923 C.ar      23 UNK        -0.0193 
     10 C10        -0.1272  -15.1950  -50.8051 C.ar      23 UNK        -0.1150 
     11 C11        -0.0586  -16.4929  -51.3164 C.ar      23 UNK        -0.0193 
     12 C12        -1.2467  -17.1332  -51.6943 C.ar      23 UNK        -0.1150 
     13 C13        -2.4829  -16.4876  -51.5798 C.ar      23 UNK        -0.0193 
     14 C14        -2.5227  -15.1773  -51.0869 C.ar      23 UNK        -0.1150 
     15 C15        -3.7379  -17.2179  -52.0593 C.3       23 UNK        -0.0205 
     16 S16        -5.3083  -16.7276  -51.2617 S.3       23 UNK        -0.2404 
     17 C17        -5.0462  -17.0694  -49.4878 C.3       23 UNK        -0.0398 
     18 CA         -4.9496  -18.5795  -49.1574 C.3       11 UNK         0.1400 
     19 N          -3.5939  -19.0854  -49.3806 N.am      11 UNK        -0.5000 
     20 C          -3.2113  -20.3656  -49.2993 C.2       10 UNK         0.5000 
     21 O          -3.9949  -21.3000  -49.1357 O.2       10 UNK        -0.5000 
     22 CA         -1.6946  -20.6354  -49.3238 C.3       10 UNK         0.1400 
     23 CB         -1.2554  -21.1228  -50.7037 C.3       10 UNK        -0.1800 
     24 N          -0.8793  -19.4765  -48.9380 N.am      10 UNK        -0.5000 
     25 C          -0.9281  -18.8785  -47.7409 C.2       9 UNK         0.5000 
     26 O          -1.6468  -19.2687  -46.8208 O.2       9 UNK        -0.5000 
     27 CA         -0.0852  -17.6088  -47.5528 C.3       9 UNK         0.1400 
     28 CB         -0.8531  -16.5680  -46.7222 C.3       9 UNK        -0.1800 
     29 N           1.1904  -17.9039  -46.9090 N.am      9 UNK        -0.5000 
     30 C           2.1920  -18.5844  -47.4824 C.2       8 UNK         0.5000 
     31 O           2.1571  -19.0020  -48.6378 O.2       8 UNK        -0.5000 
     32 CA          3.4477  -18.8341  -46.6357 C.3       8 UNK         0.1400 
     33 CB          4.5090  -17.7636  -46.9322 C.3       8 UNK        -0.1800 
     34 N           3.1464  -18.8515  -45.2019 N.am      8 UNK        -0.5000 
     35 C           2.8730  -19.9684  -44.5116 C.2       7 UNK         0.5000 
     36 O           2.8599  -21.0940  -45.0094 O.2       7 UNK        -0.5000 
     37 CA          2.5753  -19.8175  -43.0096 C.3       7 UNK         0.1400 
     38 CB          3.8739  -19.9217  -42.1965 C.3       7 UNK        -0.1800 
     39 N           1.8900  -18.5640  -42.6922 N.am      7 UNK        -0.5000 
     40 C           0.5764  -18.3697  -42.8819 C.2       6 UNK         0.5000 
     41 O          -0.1700  -19.2374  -43.3343 O.2       6 UNK        -0.5000 
     42 CA         -0.0143  -16.9840  -42.5492 C.3       6 UNK         0.1400 
     43 CB         -1.3735  -17.0766  -41.8256 C.3       6 UNK        -0.1800 
     44 N           0.8992  -16.0782  -41.8488 N.am      6 UNK        -0.5000 
     45 C           1.3593  -16.1496  -40.5929 C.2       5 UNK         0.5000 
     46 O           1.0401  -17.0209  -39.7831 O.2       5 UNK        -0.5000 
     47 CA          2.3816  -15.0544  -40.2155 C.3       5 UNK         0.1400 
     48 CB          3.1519  -15.3633  -38.9145 C.3       5 UNK        -0.1800 
     49 N           3.3064  -14.7563  -41.3199 N.am      5 UNK        -0.5000 
     50 C           4.1456  -15.6210  -41.9112 C.2       4 UNK         0.5000 
     51 O           4.2814  -16.7896  -41.5509 O.2       4 UNK        -0.5000 
     52 CA          4.9080  -15.0995  -43.1471 C.3       4 UNK         0.1400 
     53 CB          5.6884  -16.2096  -43.8790 C.3       4 UNK        -0.1800 
     54 N           4.0361  -14.3753  -44.0805 N.am      4 UNK        -0.5000 
     55 C           2.9353  -14.8349  -44.6930 C.2       3 UNK         0.5000 
     56 O           2.5097  -15.9909  -44.6004 O.2       3 UNK        -0.5000 
     57 CA          2.1586  -13.8039  -45.5358 C.3       3 UNK         0.1400 
     58 CB          2.2693  -14.1385  -47.0321 C.3       3 UNK        -0.1800 
     59 N           0.7452  -13.7151  -45.1542 N.am      3 UNK        -0.5000 
     60 C           0.2861  -13.4606  -43.9195 C.2       2 UNK         0.5000 
     61 O           1.0218  -13.2474  -42.9541 O.2       2 UNK        -0.5000 
     62 CA         -1.2410  -13.4713  -43.7236 C.3       2 UNK         0.1400 
     63 CB         -1.6957  -12.6217  -42.5229 C.3       2 UNK        -0.1800 
     64 N          -1.9415  -13.0304  -44.9292 N.am      2 UNK        -0.5000 
     65 C          -3.0358  -13.6135  -45.4322 C.2       1 UNK         0.5000 
     66 O          -3.5482  -14.6336  -44.9655 O.2       1 UNK        -0.5000 
     67 C          -5.4635  -18.8687  -47.7275 C.2       11 UNK         0.5000 
     68 O          -6.6727  -19.0111  -47.5483 O.2       11 UNK        -0.5000 
     69 N          -4.5508  -18.9731  -46.7519 N.am      12 UNK        -0.5000 
     70 CA         -4.8444  -19.3510  -45.3733 C.3       12 UNK         0.1400 
     71 CB         -4.1025  -18.3991  -44.4210 C.3       12 UNK        -0.1800 
     72 C          -4.4332  -20.8101  -45.1189 C.2       12 UNK         0.5000 
     73 O          -5.2464  -21.5926  -44.6280 O.2       12 UNK        -0.5000 
     74 N          -3.1849  -21.1532  -45.4677 N.am      13 UNK        -0.5000 
     75 CA         -2.5425  -22.4328  -45.1596 C.3       13 UNK         0.1400 
     76 CB         -1.0358  -22.3207  -45.4453 C.3       13 UNK        -0.1800 
     77 C          -3.1430  -23.6447  -45.8960 C.2       13 UNK         0.5000 
     78 O          -3.1108  -24.7494  -45.3525 O.2       13 UNK        -0.5000 
     79 N          -3.6764  -23.4247  -47.1039 N.am      14 UNK        -0.5000 
     80 CA         -4.3021  -24.4471  -47.9457 C.3       14 UNK         0.1400 
     81 CB         -3.3920  -24.7198  -49.1564 C.3       14 UNK        -0.1800 
     82 C          -5.7191  -24.0328  -48.3822 C.2       14 UNK         0.5000 
     83 O          -6.2691  -24.6427  -49.2990 O.2       14 UNK        -0.5000 
     84 N          -6.2789  -22.9882  -47.7498 N.am      15 UNK        -0.5000 
     85 CA         -7.6043  -22.4037  -47.9982 C.3       15 UNK         0.1400 
     86 CB         -8.7025  -23.3618  -47.4923 C.3       15 UNK        -0.1800 
     87 C          -7.8412  -21.9585  -49.4620 C.2       15 UNK         0.5000 
     88 O          -8.9859  -21.9470  -49.9175 O.2       15 UNK        -0.5000 
     89 N          -6.7536  -21.6278  -50.1770 N.am      16 UNK        -0.5000 
     90 CA         -6.6887  -21.2912  -51.6051 C.3       16 UNK         0.1400 
     91 CB         -7.5198  -20.0273  -51.9231 C.3       16 UNK        -0.1800 
     92 C          -7.0516  -22.4626  -52.5480 C.2       16 UNK         0.5000 
     93 O          -7.3306  -22.2205  -53.7237 O.2       16 UNK        -0.5000 
     94 N          -7.0407  -23.7082  -52.0467 N.am      17 UNK        -0.5000 
     95 CA         -7.3883  -24.9079  -52.8170 C.3       17 UNK         0.1400 
     96 CB         -7.6813  -26.0642  -51.8490 C.3       17 UNK        -0.1800 
     97 C          -6.3051  -25.3210  -53.8333 C.2       17 UNK         0.5000 
     98 O          -6.6121  -26.0304  -54.7924 O.2       17 UNK        -0.5000 
     99 N          -5.0668  -24.8720  -53.6100 N.am      18 UNK        -0.5000 
    100 CA        -3.8993  -25.0892  -54.4537 C.3       18 UNK         0.1400 
    101 CB        -3.3017  -26.4793  -54.1647 C.3       18 UNK        -0.1800 
    102 C         -2.8835  -23.9744  -54.1652 C.2       18 UNK         0.5000 
    103 O         -3.0469  -23.2370  -53.1882 O.2       18 UNK        -0.5000 
    104 N         -1.8415  -23.8856  -55.0045 N.am      19 UNK        -0.5000 
    105 CA        -0.7114  -22.9667  -54.8248 C.3       19 UNK         0.1400 
    106 CB         0.1766  -22.9883  -56.0778 C.3       19 UNK        -0.1800 
    107 C          0.1155  -23.2872  -53.5656 C.2       19 UNK         0.5000 
    108 O          0.5754  -22.3612  -52.9016 O.2       19 UNK        -0.5000 
    109 N          0.2400  -24.5891  -53.2567 N.am      20 UNK        -0.5000 
    110 CA         0.7162  -25.1946  -52.0084 C.3       20 UNK         0.1400 
    111 CB        -0.4781  -25.3233  -51.0390 C.3       20 UNK        -0.1800 
    112 C          1.9422  -24.4933  -51.3835 C.2       20 UNK         0.5000 
    113 O          3.0465  -24.6154  -51.9167 O.2       20 UNK        -0.5000 
    114 N          1.7121  -23.7577  -50.2863 N.am      21 UNK        -0.5000 
    115 CA         2.6956  -23.0253  -49.4856 C.3       21 UNK         0.1400 
    116 CB         1.9706  -22.4092  -48.2784 C.3       21 UNK        -0.1800 
    117 C          3.4993  -21.9461  -50.2420 C.2       21 UNK         0.5000 
    118 O          4.5674  -21.5593  -49.7643 O.2       21 UNK        -0.5000 
    119 N          3.0030  -21.5005  -51.4007 N.am      22 UNK        -0.5000 
    120 CA         3.6649  -20.5420  -52.2941 C.3       22 UNK         0.1400 
    121 C          3.6655  -20.9953  -53.7826 C.2       22 UNK         0.5000 
    122 N          3.5207  -22.2838  -54.0737 N.am      22 UNK        -0.7600 
    123 O          3.8448  -20.1853  -54.6882 O.2       22 UNK        -0.5000 
    124 C124        3.1973  -19.0827  -52.0504 C.3       23 UNK        -0.0398 
    125 S125        1.3939  -18.8111  -52.1510 S.3       23 UNK        -0.2404 
    126 C126        1.3263  -17.1282  -51.4464 C.3       23 UNK        -0.0205 
    127 H127       -7.9292  -11.6888  -46.1244 H         1 UNK         0.0600 
    128 H128       -7.7363  -12.9377  -44.8894 H         1 UNK         0.0600 
    129 H129       -7.6356  -13.3638  -46.5998 H         1 UNK         0.0600 
    130 H130       -5.5363  -13.7336  -47.2318 H         1 UNK         0.3000 
    131 H131       -3.3851  -11.8958  -46.6862 H         1 UNK         0.0600 
    132 H132       -3.1493  -14.6775  -47.9544 H         1 UNK         0.0800 
    133 H133       -3.7271  -13.2866  -48.8259 H         1 UNK         0.0800 
    134 H134       -0.5100  -12.5619  -50.5251 H         1 UNK         0.0800 
    135 H135       -2.2519  -12.5677  -50.5568 H         1 UNK         0.0800 
    136 H136        0.7804  -14.6896  -50.5049 H         1 UNK         0.1150 
    137 H137       -1.2198  -18.1307  -52.1055 H         1 UNK         0.1150 
    138 H138       -3.4637  -14.6511  -51.0186 H         1 UNK         0.1150 
    139 H139       -3.8380  -17.0347  -53.1297 H         1 UNK         0.0800 
    140 H140       -3.6158  -18.2965  -51.9554 H         1 UNK         0.0800 
    141 H141       -5.8965  -16.6126  -48.9774 H         1 UNK         0.0800 
    142 H142       -4.1685  -16.5309  -49.1301 H         1 UNK         0.0800 
    143 H143       -5.6084  -19.1263  -49.8284 H         1 UNK         0.0600 
    144 H144       -2.8774  -18.3918  -49.5322 H         1 UNK         0.3000 
    145 H145       -1.4983  -21.4347  -48.6085 H         1 UNK         0.0600 
    146 H146       -1.7869  -22.0310  -50.9898 H         1 UNK         0.0600 
    147 H147       -0.1906  -21.3514  -50.7028 H         1 UNK         0.0600 
    148 H148       -1.4384  -20.3797  -51.4793 H         1 UNK         0.0600 
    149 H149       -0.2123  -19.1417  -49.6215 H         1 UNK         0.3000 
    150 H150        0.1100  -17.1736  -48.5337 H         1 UNK         0.0600 
    151 H151       -1.8551  -16.4144  -47.1223 H         1 UNK         0.0600 
    152 H152       -0.3528  -15.6038  -46.7386 H         1 UNK         0.0600 
    153 H153       -0.9668  -16.8792  -45.6841 H         1 UNK         0.0600 
    154 H154        1.3070  -17.5929  -45.9554 H         1 UNK         0.3000 
    155 H155        3.8619  -19.7972  -46.9415 H         1 UNK         0.0600 
    156 H156        4.1709  -16.7660  -46.6535 H         1 UNK         0.0600 
    157 H157        4.7500  -17.7404  -47.9958 H         1 UNK         0.0600 
    158 H158        5.4358  -17.9702  -46.3976 H         1 UNK         0.0600 
    159 H159        3.0926  -17.9517  -44.7361 H         1 UNK         0.3000 
    160 H160        1.9323  -20.6487  -42.7116 H         1 UNK         0.0600 
    161 H161        4.6135  -19.1894  -42.5211 H         1 UNK         0.0600 
    162 H162        4.3240  -20.9083  -42.3118 H         1 UNK         0.0600 
    163 H163        3.6910  -19.7682  -41.1327 H         1 UNK         0.0600 
    164 H164        2.4577  -17.8121  -42.3206 H         1 UNK         0.3000 
    165 H165       -0.1932  -16.5161  -43.5161 H         1 UNK         0.0600 
    166 H166       -1.7755  -16.0881  -41.6044 H         1 UNK         0.0600 
    167 H167       -1.2969  -17.6260  -40.8872 H         1 UNK         0.0600 
    168 H168       -2.1091  -17.5930  -42.4412 H         1 UNK         0.0600 
    169 H169        1.2650  -15.3200  -42.4122 H         1 UNK         0.3000 
    170 H170        1.8023  -14.1453  -40.0474 H         1 UNK         0.0600 
    171 H171        2.4687  -15.4512  -38.0690 H         1 UNK         0.0600 
    172 H172        3.7076  -16.2989  -38.9821 H         1 UNK         0.0600 
    173 H173        3.8595  -14.5689  -38.6776 H         1 UNK         0.0600 
    174 H174        3.2144  -13.8333  -41.7234 H         1 UNK         0.3000 
    175 H175        5.6351  -14.3756  -42.7765 H         1 UNK         0.0600 
    176 H176        5.0356  -17.0268  -44.1810 H         1 UNK         0.0600 
    177 H177        6.1853  -15.8261  -44.7700 H         1 UNK         0.0600 
    178 H178        6.4581  -16.6338  -43.2334 H         1 UNK         0.0600 
    179 H179        4.2807  -13.4048  -44.2208 H         1 UNK         0.3000 
    180 H180        2.5949  -12.8157  -45.3773 H         1 UNK         0.0600 
    181 H181        1.8755  -15.1284  -47.2601 H         1 UNK         0.0600 
    182 H182        3.3107  -14.1244  -47.3559 H         1 UNK         0.0600 
    183 H183        1.7310  -13.4136  -47.6430 H         1 UNK         0.0600 
    184 H184        0.0737  -13.8854  -45.8876 H         1 UNK         0.3000 
    185 H185       -1.4995  -14.5091  -43.5108 H         1 UNK         0.0600 
    186 H186       -1.2410  -12.9729  -41.5956 H         1 UNK         0.0600 
    187 H187       -1.4244  -11.5730  -42.6489 H         1 UNK         0.0600 
    188 H188       -2.7765  -12.6748  -42.3906 H         1 UNK         0.0600 
    189 H189       -1.5674  -12.2073  -45.3824 H         1 UNK         0.3000 
    190 H190       -3.5667  -18.8897  -46.9819 H         1 UNK         0.3000 
    191 H191       -5.9132  -19.2622  -45.1679 H         1 UNK         0.0600 
    192 H192       -4.2917  -18.6624  -43.3797 H         1 UNK         0.0600 
    193 H193       -4.4308  -17.3690  -44.5612 H         1 UNK         0.0600 
    194 H194       -3.0232  -18.4258  -44.5767 H         1 UNK         0.0600 
    195 H195       -2.5801  -20.4416  -45.8751 H         1 UNK         0.3000 
    196 H196       -2.6673  -22.6110  -44.0895 H         1 UNK         0.0600 
    197 H197       -0.8352  -22.1266  -46.4982 H         1 UNK         0.0600 
    198 H198       -0.5829  -21.5141  -44.8684 H         1 UNK         0.0600 
    199 H199       -0.5158  -23.2413  -45.1774 H         1 UNK         0.0600 
    200 H200       -3.6644  -22.4897  -47.4950 H         1 UNK         0.3000 
    201 H201       -4.4198  -25.3805  -47.3923 H         1 UNK         0.0600 
    202 H202       -3.2841  -23.8379  -49.7885 H         1 UNK         0.0600 
    203 H203       -3.7894  -25.5221  -49.7791 H         1 UNK         0.0600 
    204 H204       -2.3979  -25.0258  -48.8321 H         1 UNK         0.0600 
    205 H205       -5.7502  -22.5632  -47.0014 H         1 UNK         0.3000 
    206 H206       -7.6561  -21.4981  -47.3935 H         1 UNK         0.0600 
    207 H207       -8.5265  -23.6509  -46.4562 H         1 UNK         0.0600 
    208 H208       -9.6853  -22.8909  -47.5321 H         1 UNK         0.0600 
    209 H209       -8.7503  -24.2718  -48.0914 H         1 UNK         0.0600 
    210 H210       -5.8529  -21.6793  -49.7089 H         1 UNK         0.3000 
    211 H211       -5.6418  -21.0563  -51.8031 H         1 UNK         0.0600 
    212 H212       -7.2667  -19.6348  -52.9086 H         1 UNK         0.0600 
    213 H213       -7.3468  -19.2272  -51.2061 H         1 UNK         0.0600 
    214 H214       -8.5894  -20.2384  -51.9254 H         1 UNK         0.0600 
    215 H215       -6.8005  -23.8533  -51.0704 H         1 UNK         0.3000 
    216 H216       -8.3021  -24.6995  -53.3773 H         1 UNK         0.0600 
    217 H217       -6.7888  -26.3614  -51.2970 H         1 UNK         0.0600 
    218 H218       -8.0394  -26.9423  -52.3875 H         1 UNK         0.0600 
    219 H219       -8.4487  -25.7901  -51.1247 H         1 UNK         0.0600 
    220 H220       -4.8994  -24.2470  -52.8311 H         1 UNK         0.3000 
    221 H221       -4.1926  -25.0208  -55.5032 H         1 UNK         0.0600 
    222 H222       -4.0187  -27.2711  -54.3819 H         1 UNK         0.0600 
    223 H223       -3.0051  -26.5773  -53.1199 H         1 UNK         0.0600 
    224 H224       -2.4201  -26.6689  -54.7776 H         1 UNK         0.0600 
    225 H225       -1.7894  -24.5160  -55.7917 H         1 UNK         0.3000 
    226 H226       -1.1121  -21.9575  -54.7072 H         1 UNK         0.0600 
    227 H227        0.5967  -23.9782  -56.2594 H         1 UNK         0.0600 
    228 H228       -0.3845  -22.6923  -56.9644 H         1 UNK         0.0600 
    229 H229        1.0097  -22.2915  -55.9743 H         1 UNK         0.0600 
    230 H230       -0.1403  -25.2447  -53.9228 H         1 UNK         0.3000 
    231 H231        1.0449  -26.2042  -52.2589 H         1 UNK         0.0600 
    232 H232       -0.9319  -24.3555  -50.8244 H         1 UNK         0.0600 
    233 H233       -0.1793  -25.7772  -50.0931 H         1 UNK         0.0600 
    234 H234       -1.2559  -25.9581  -51.4627 H         1 UNK         0.0600 
    235 H235        0.7587  -23.7009  -49.9629 H         1 UNK         0.3000 
    236 H236        3.4166  -23.7558  -49.1140 H         1 UNK         0.0600 
    237 H237        1.4754  -23.1714  -47.6767 H         1 UNK         0.0600 
    238 H238        2.6737  -21.8913  -47.6260 H         1 UNK         0.0600 
    239 H239        1.2196  -21.6819  -48.5884 H         1 UNK         0.0600 
    240 H240        2.1169  -21.8616  -51.7440 H         1 UNK         0.3000 
    241 H241        4.7305  -20.5498  -52.0591 H         1 UNK         0.0600 
    242 H242        3.3975  -22.9686  -53.3388 H         1 UNK         0.3800 
    243 H243        3.5485  -22.5784  -55.0361 H         1 UNK         0.3800 
    244 H244        3.6954  -18.3967  -52.7370 H         1 UNK         0.0800 
    245 H245        3.5223  -18.7832  -51.0530 H         1 UNK         0.0800 
    246 H246        1.7924  -17.1417  -50.4610 H         1 UNK         0.0800 
    247 H247        1.9432  -16.4781  -52.0685 H         1 UNK         0.0800 
@<TRIPOS>BOND
     1    1    2 1    
     2    1  127 1    
     3    1  128 1    
     4    1  129 1    
     5    2    3 2    
     6    2    4 am   BACKBONE|DICT|INTERRES
     7    4    5 1    
     8    4  130 1    
     9    5    6 1    
    10    5   65 1    
    11    5  131 1    
    12    6    7 1    
    13    6  132 1    
    14    6  133 1    
    15    7    8 1    
    16    8    9 1    
    17    8  134 1    
    18    8  135 1    
    19    9   10 ar   
    20    9   14 ar   
    21   10   11 ar   
    22   10  136 1    
    23   11   12 ar   
    24   11  126 1    
    25   12   13 ar   
    26   12  137 1    
    27   13   14 ar   
    28   13   15 1    
    29   14  138 1    
    30   15   16 1    
    31   15  139 1    
    32   15  140 1    
    33   16   17 1    
    34   17   18 1    
    35   17  141 1    
    36   17  142 1    
    37   18   19 1    
    38   18   67 1    
    39   18  143 1    
    40   19   20 am   BACKBONE|DICT|INTERRES
    41   19  144 1    
    42   20   21 2    
    43   20   22 1    
    44   22   23 1    
    45   22   24 1    
    46   22  145 1    
    47   23  146 1    
    48   23  147 1    
    49   23  148 1    
    50   24   25 am   BACKBONE|DICT|INTERRES
    51   24  149 1    
    52   25   26 2    
    53   25   27 1    
    54   27   28 1    
    55   27   29 1    
    56   27  150 1    
    57   28  151 1    
    58   28  152 1    
    59   28  153 1    
    60   29   30 am   BACKBONE|DICT|INTERRES
    61   29  154 1    
    62   30   31 2    
    63   30   32 1    
    64   32   33 1    
    65   32   34 1    
    66   32  155 1    
    67   33  156 1    
    68   33  157 1    
    69   33  158 1    
    70   34   35 am   BACKBONE|DICT|INTERRES
    71   34  159 1    
    72   35   36 2    
    73   35   37 1    
    74   37   38 1    
    75   37   39 1    
    76   37  160 1    
    77   38  161 1    
    78   38  162 1    
    79   38  163 1    
    80   39   40 am   BACKBONE|DICT|INTERRES
    81   39  164 1    
    82   40   41 2    
    83   40   42 1    
    84   42   43 1    
    85   42   44 1    
    86   42  165 1    
    87   43  166 1    
    88   43  167 1    
    89   43  168 1    
    90   44   45 am   BACKBONE|DICT|INTERRES
    91   44  169 1    
    92   45   46 2    
    93   45   47 1    
    94   47   48 1    
    95   47   49 1    
    96   47  170 1    
    97   48  171 1    
    98   48  172 1    
    99   48  173 1    
   100   49   50 am   BACKBONE|DICT|INTERRES
   101   49  174 1    
   102   50   51 2    
   103   50   52 1    
   104   52   53 1    
   105   52   54 1    
   106   52  175 1    
   107   53  176 1    
   108   53  177 1    
   109   53  178 1    
   110   54   55 am   BACKBONE|DICT|INTERRES
   111   54  179 1    
   112   55   56 2    
   113   55   57 1    
   114   57   58 1    
   115   57   59 1    
   116   57  180 1    
   117   58  181 1    
   118   58  182 1    
   119   58  183 1    
   120   59   60 am   BACKBONE|DICT|INTERRES
   121   59  184 1    
   122   60   61 2    
   123   60   62 1    
   124   62   63 1    
   125   62   64 1    
   126   62  185 1    
   127   63  186 1    
   128   63  187 1    
   129   63  188 1    
   130   64   65 am   BACKBONE|DICT|INTERRES
   131   64  189 1    
   132   65   66 2    
   133   67   68 2    
   134   67   69 am   BACKBONE|DICT|INTERRES
   135   69   70 1    
   136   69  190 1    
   137   70   71 1    
   138   70   72 1    
   139   70  191 1    
   140   71  192 1    
   141   71  193 1    
   142   71  194 1    
   143   72   73 2    
   144   72   74 am   BACKBONE|DICT|INTERRES
   145   74   75 1    
   146   74  195 1    
   147   75   76 1    
   148   75   77 1    
   149   75  196 1    
   150   76  197 1    
   151   76  198 1    
   152   76  199 1    
   153   77   78 2    
   154   77   79 am   BACKBONE|DICT|INTERRES
   155   79   80 1    
   156   79  200 1    
   157   80   81 1    
   158   80   82 1    
   159   80  201 1    
   160   81  202 1    
   161   81  203 1    
   162   81  204 1    
   163   82   83 2    
   164   82   84 am   BACKBONE|DICT|INTERRES
   165   84   85 1    
   166   84  205 1    
   167   85   86 1    
   168   85   87 1    
   169   85  206 1    
   170   86  207 1    
   171   86  208 1    
   172   86  209 1    
   173   87   88 2    
   174   87   89 am   BACKBONE|DICT|INTERRES
   175   89   90 1    
   176   89  210 1    
   177   90   91 1    
   178   90   92 1    
   179   90  211 1    
   180   91  212 1    
   181   91  213 1    
   182   91  214 1    
   183   92   93 2    
   184   92   94 am   BACKBONE|DICT|INTERRES
   185   94   95 1    
   186   94  215 1    
   187   95   96 1    
   188   95   97 1    
   189   95  216 1    
   190   96  217 1    
   191   96  218 1    
   192   96  219 1    
   193   97   98 2    
   194   97   99 am   BACKBONE|DICT|INTERRES
   195   99  100 1    
   196   99  220 1    
   197  100  101 1    
   198  100  102 1    
   199  100  221 1    
   200  101  222 1    
   201  101  223 1    
   202  101  224 1    
   203  102  103 2    
   204  102  104 am   BACKBONE|DICT|INTERRES
   205  104  105 1    
   206  104  225 1    
   207  105  106 1    
   208  105  107 1    
   209  105  226 1    
   210  106  227 1    
   211  106  228 1    
   212  106  229 1    
   213  107  108 2    
   214  107  109 am   BACKBONE|DICT|INTERRES
   215  109  110 1    
   216  109  230 1    
   217  110  111 1    
   218  110  112 1    
   219  110  231 1    
   220  111  232 1    
   221  111  233 1    
   222  111  234 1    
   223  112  113 2    
   224  112  114 am   BACKBONE|DICT|INTERRES
   225  114  115 1    
   226  114  235 1    
   227  115  116 1    
   228  115  117 1    
   229  115  236 1    
   230  116  237 1    
   231  116  238 1    
   232  116  239 1    
   233  117  118 2    
   234  117  119 am   BACKBONE|DICT|INTERRES
   235  119  120 1    
   236  119  240 1    
   237  120  121 1    
   238  120  124 1    
   239  120  241 1    
   240  121  122 am   BACKBONE|DICT|INTERRES
   241  121  123 2    
   242  122  242 1    
   243  122  243 1    
   244  124  125 1    
   245  124  244 1    
   246  124  245 1    
   247  125  126 1    
   248  126  246 1    
   249  126  247 1    
@<TRIPOS>SUBSTRUCTURE
     1 UNK         1 GROUP             0       ****    0 ROOT    
