@<TRIPOS>MOLECULE
3R540
247   249    1
SMALL
USER_CHARGES


@<TRIPOS>ATOM
      1 CA          5.4840  -10.7841  -46.8569 C.3       0 UNK        -0.1800 
      2 C           4.2131  -11.6181  -46.8032 C.2       0 UNK         0.5000 
      3 O           3.4033  -11.4357  -45.8958 O.2       0 UNK        -0.5000 
      4 N           4.0242  -12.5145  -47.7811 N.am      1 UNK        -0.5000 
      5 CA          2.8908  -13.4466  -47.9054 C.3       1 UNK         0.1400 
      6 C6          3.0901  -14.3804  -49.1294 C.3       23 UNK        -0.0398 
      7 S7          2.2774  -16.0072  -48.9778 S.3       23 UNK        -0.2404 
      8 C8          3.1547  -16.9077  -50.2920 C.3       23 UNK        -0.0205 
      9 C9          2.5952  -18.3048  -50.5204 C.ar      23 UNK        -0.0193 
     10 C10         1.5872  -18.5110  -51.4677 C.ar      23 UNK        -0.1150 
     11 C11         1.1425  -19.8034  -51.7606 C.ar      23 UNK        -0.0193 
     12 C12         1.6842  -20.8896  -51.0680 C.ar      23 UNK        -0.1150 
     13 C13         2.6921  -20.7019  -50.1170 C.ar      23 UNK        -0.0193 
     14 C14         3.1428  -19.4029  -49.8487 C.ar      23 UNK        -0.1150 
     15 C15         3.3353  -21.9286  -49.4721 C.3       23 UNK        -0.0205 
     16 S16         3.8443  -21.7288  -47.7297 S.3       23 UNK        -0.2404 
     17 C17         2.2832  -21.2847  -46.9021 C.3       23 UNK        -0.0398 
     18 CA          1.4763  -22.5083  -46.3973 C.3       11 UNK         0.1400 
     19 N           0.6628  -22.1736  -45.2253 N.am      11 UNK        -0.5000 
     20 C          -0.0705  -23.0379  -44.5098 C.2       10 UNK         0.5000 
     21 O          -0.1060  -24.2503  -44.7236 O.2       10 UNK        -0.5000 
     22 CA         -0.9512  -22.4354  -43.3978 C.3       10 UNK         0.1400 
     23 CB         -0.1275  -22.1457  -42.1341 C.3       10 UNK        -0.1800 
     24 N          -1.6415  -21.2167  -43.8267 N.am      10 UNK        -0.5000 
     25 C          -2.5703  -21.1811  -44.7934 C.2       9 UNK         0.5000 
     26 O          -2.9747  -22.1774  -45.3898 O.2       9 UNK        -0.5000 
     27 CA         -3.1026  -19.7990  -45.2052 C.3       9 UNK         0.1400 
     28 CB         -4.1682  -19.3017  -44.2182 C.3       9 UNK        -0.1800 
     29 N          -2.0421  -18.8011  -45.3380 N.am      9 UNK        -0.5000 
     30 C          -1.0222  -18.8829  -46.2051 C.2       8 UNK         0.5000 
     31 O          -0.8869  -19.7931  -47.0191 O.2       8 UNK        -0.5000 
     32 CA          0.0539  -17.7910  -46.1171 C.3       8 UNK         0.1400 
     33 CB         -0.4405  -16.5045  -46.7875 C.3       8 UNK        -0.1800 
     34 N           0.4512  -17.5093  -44.7380 N.am      8 UNK        -0.5000 
     35 C           0.9782  -18.4057  -43.8918 C.2       7 UNK         0.5000 
     36 O           1.2352  -19.5688  -44.1961 O.2       7 UNK        -0.5000 
     37 CA          1.1996  -17.9422  -42.4441 C.3       7 UNK         0.1400 
     38 CB          2.5129  -17.1573  -42.3118 C.3       7 UNK        -0.1800 
     39 N           0.0793  -17.1318  -41.9686 N.am      7 UNK        -0.5000 
     40 C          -1.1398  -17.6214  -41.7005 C.2       6 UNK         0.5000 
     41 O          -1.4283  -18.8168  -41.7746 O.2       6 UNK        -0.5000 
     42 CA         -2.2249  -16.5949  -41.3249 C.3       6 UNK         0.1400 
     43 CB         -2.1366  -16.2311  -39.8354 C.3       6 UNK        -0.1800 
     44 N          -2.1453  -15.3736  -42.1299 N.am      6 UNK        -0.5000 
     45 C          -2.4136  -15.3202  -43.4422 C.2       5 UNK         0.5000 
     46 O          -2.7920  -16.2900  -44.0974 O.2       5 UNK        -0.5000 
     47 CA         -2.1870  -13.9714  -44.1519 C.3       5 UNK         0.1400 
     48 CB         -3.4529  -13.1053  -44.0844 C.3       5 UNK        -0.1800 
     49 N          -1.0509  -13.2031  -43.6379 N.am      5 UNK        -0.5000 
     50 C           0.2214  -13.6192  -43.6080 C.2       4 UNK         0.5000 
     51 O           0.5734  -14.7522  -43.9387 O.2       4 UNK        -0.5000 
     52 CA          1.2625  -12.5874  -43.1335 C.3       4 UNK         0.1400 
     53 CB          2.6816  -13.1754  -43.0394 C.3       4 UNK        -0.1800 
     54 N           1.2971  -11.4283  -44.0222 N.am      4 UNK        -0.5000 
     55 C           0.4459  -10.3954  -43.9959 C.2       3 UNK         0.5000 
     56 O          -0.4991  -10.3116  -43.2099 O.2       3 UNK        -0.5000 
     57 CA          0.6765   -9.2897  -45.0367 C.3       3 UNK         0.1400 
     58 CB          1.8954   -8.4311  -44.6622 C.3       3 UNK        -0.1800 
     59 N           0.8753   -9.8595  -46.3684 N.am      3 UNK        -0.5000 
     60 C          -0.1018  -10.0517  -47.2650 C.2       2 UNK         0.5000 
     61 O          -1.2780   -9.7430  -47.0694 O.2       2 UNK        -0.5000 
     62 CA          0.2933  -10.6794  -48.6175 C.3       2 UNK         0.1400 
     63 CB          0.5324   -9.5828  -49.6669 C.3       2 UNK        -0.1800 
     64 N           1.4826  -11.5298  -48.5431 N.am      2 UNK        -0.5000 
     65 C           1.5174  -12.7333  -47.9531 C.2       1 UNK         0.5000 
     66 O           0.5331  -13.2561  -47.4331 O.2       1 UNK        -0.5000 
     67 C           0.6161  -23.1111  -47.5251 C.2       11 UNK         0.5000 
     68 O           0.9383  -24.1822  -48.0399 O.2       11 UNK        -0.5000 
     69 N          -0.4842  -22.4266  -47.8618 N.am      12 UNK        -0.5000 
     70 CA         -1.4416  -22.8476  -48.8764 C.3       12 UNK         0.1400 
     71 CB         -2.4544  -21.7285  -49.1292 C.3       12 UNK        -0.1800 
     72 C          -2.1516  -24.1594  -48.5102 C.2       12 UNK         0.5000 
     73 O          -2.2959  -25.0143  -49.3794 O.2       12 UNK        -0.5000 
     74 N          -2.5341  -24.3278  -47.2362 N.am      13 UNK        -0.5000 
     75 CA         -3.1306  -25.5583  -46.7125 C.3       13 UNK         0.1400 
     76 CB         -3.5872  -25.3475  -45.2616 C.3       13 UNK        -0.1800 
     77 C          -2.1850  -26.7683  -46.8178 C.2       13 UNK         0.5000 
     78 O          -2.6269  -27.8446  -47.2204 O.2       13 UNK        -0.5000 
     79 N          -0.8939  -26.5615  -46.5184 N.am      14 UNK        -0.5000 
     80 CA          0.1659  -27.5588  -46.6959 C.3       14 UNK         0.1400 
     81 CB          1.4570  -27.0606  -46.0292 C.3       14 UNK        -0.1800 
     82 C           0.4117  -27.9197  -48.1761 C.2       14 UNK         0.5000 
     83 O           0.7319  -29.0701  -48.4761 O.2       14 UNK        -0.5000 
     84 N           0.2162  -26.9451  -49.0741 N.am      15 UNK        -0.5000 
     85 CA          0.2638  -27.1056  -50.5295 C.3       15 UNK         0.1400 
     86 CB          0.6114  -25.7470  -51.1627 C.3       15 UNK        -0.1800 
     87 C          -1.0396  -27.6797  -51.1334 C.2       15 UNK         0.5000 
     88 O          -1.0885  -27.8906  -52.3460 O.2       15 UNK        -0.5000 
     89 N          -2.0624  -27.9179  -50.2968 N.am      16 UNK        -0.5000 
     90 CA         -3.4066  -28.4041  -50.6302 C.3       16 UNK         0.1400 
     91 CB         -3.3534  -29.8311  -51.2156 C.3       16 UNK        -0.1800 
     92 C          -4.2200  -27.4159  -51.4964 C.2       16 UNK         0.5000 
     93 O          -4.9875  -27.8367  -52.3646 O.2       16 UNK        -0.5000 
     94 N          -4.0460  -26.1182  -51.2298 N.am      17 UNK        -0.5000 
     95 CA         -4.7503  -24.9980  -51.8455 C.3       17 UNK         0.1400 
     96 CB         -3.7502  -24.2239  -52.7283 C.3       17 UNK        -0.1800 
     97 C          -5.3707  -24.1118  -50.7448 C.2       17 UNK         0.5000 
     98 O          -5.5286  -24.5545  -49.6042 O.2       17 UNK        -0.5000 
     99 N          -5.7098  -22.8699  -51.1029 N.am      18 UNK        -0.5000 
    100 CA        -6.1426  -21.8080  -50.2010 C.3       18 UNK         0.1400 
    101 CB        -7.6693  -21.6536  -50.2780 C.3       18 UNK        -0.1800 
    102 C         -5.4425  -20.5217  -50.6525 C.2       18 UNK         0.5000 
    103 O         -5.2547  -20.3356  -51.8569 O.2       18 UNK        -0.5000 
    104 N         -5.0710  -19.6559  -49.7005 N.am      19 UNK        -0.5000 
    105 CA        -4.2860  -18.4403  -49.9532 C.3       19 UNK         0.1400 
    106 CB        -3.8945  -17.7944  -48.6169 C.3       19 UNK        -0.1800 
    107 C         -4.9953  -17.4231  -50.8645 C.2       19 UNK         0.5000 
    108 O         -4.3414  -16.7677  -51.6759 O.2       19 UNK        -0.5000 
    109 N         -6.3281  -17.3516  -50.7492 N.am      20 UNK        -0.5000 
    110 CA        -7.1946  -16.5295  -51.5948 C.3       20 UNK         0.1400 
    111 CB        -8.6041  -16.5026  -50.9839 C.3       20 UNK        -0.1800 
    112 C         -7.2514  -17.0077  -53.0599 C.2       20 UNK         0.5000 
    113 O         -7.5354  -16.1988  -53.9443 O.2       20 UNK        -0.5000 
    114 N         -6.9847  -18.3006  -53.2899 N.am      21 UNK        -0.5000 
    115 CA        -6.9209  -18.9075  -54.6152 C.3       21 UNK         0.1400 
    116 CB        -7.4460  -20.3514  -54.5450 C.3       21 UNK        -0.1800 
    117 C         -5.4889  -18.8695  -55.1720 C.2       21 UNK         0.5000 
    118 O         -5.3061  -18.4963  -56.3317 O.2       21 UNK        -0.5000 
    119 N         -4.5057  -19.2687  -54.3518 N.am      22 UNK        -0.5000 
    120 CA        -3.0962  -19.3806  -54.7561 C.3       22 UNK         0.1400 
    121 C         -2.3206  -18.0327  -54.8267 C.2       22 UNK         0.5000 
    122 N         -2.7481  -16.9789  -54.1417 N.am      22 UNK        -0.7600 
    123 O         -1.3241  -17.9365  -55.5379 O.2       22 UNK        -0.5000 
    124 C124       -2.3537  -20.5083  -53.9825 C.3       23 UNK        -0.0398 
    125 S125       -1.5751  -20.0640  -52.3841 S.3       23 UNK        -0.2404 
    126 C126        0.1685  -20.0412  -52.9048 C.3       23 UNK        -0.0205 
    127 H127        5.2339   -9.7246  -46.9121 H         1 UNK         0.0600 
    128 H128        6.0989  -11.0352  -47.7214 H         1 UNK         0.0600 
    129 H129        6.0767  -10.9489  -45.9572 H         1 UNK         0.0600 
    130 H130        4.7307  -12.5950  -48.4986 H         1 UNK         0.3000 
    131 H131        2.9010  -14.0568  -46.9993 H         1 UNK         0.0600 
    132 H132        4.1544  -14.5809  -49.2622 H         1 UNK         0.0800 
    133 H133        2.7651  -13.9004  -50.0546 H         1 UNK         0.0800 
    134 H134        3.0977  -16.3350  -51.2191 H         1 UNK         0.0800 
    135 H135        4.2142  -16.9709  -50.0385 H         1 UNK         0.0800 
    136 H136        1.1828  -17.6696  -52.0130 H         1 UNK         0.1150 
    137 H137        1.3528  -21.8904  -51.3083 H         1 UNK         0.1150 
    138 H138        3.9431  -19.2456  -49.1397 H         1 UNK         0.1150 
    139 H139        2.6712  -22.7898  -49.5471 H         1 UNK         0.0800 
    140 H140        4.2210  -22.1862  -50.0539 H         1 UNK         0.0800 
    141 H141        1.6842  -20.6255  -47.5325 H         1 UNK         0.0800 
    142 H142        2.5843  -20.6709  -46.0541 H         1 UNK         0.0800 
    143 H143        2.1784  -23.2783  -46.0706 H         1 UNK         0.0600 
    144 H144        0.6652  -21.1965  -44.9426 H         1 UNK         0.3000 
    145 H145       -1.7118  -23.1756  -43.1412 H         1 UNK         0.0600 
    146 H146       -0.7613  -21.7773  -41.3272 H         1 UNK         0.0600 
    147 H147        0.3656  -23.0498  -41.7750 H         1 UNK         0.0600 
    148 H148        0.6465  -21.4001  -42.3159 H         1 UNK         0.0600 
    149 H149       -1.3758  -20.3522  -43.3699 H         1 UNK         0.3000 
    150 H150       -3.5767  -19.9122  -46.1815 H         1 UNK         0.0600 
    151 H151       -4.9696  -20.0330  -44.1062 H         1 UNK         0.0600 
    152 H152       -4.6220  -18.3733  -44.5655 H         1 UNK         0.0600 
    153 H153       -3.7484  -19.1186  -43.2289 H         1 UNK         0.0600 
    154 H154       -2.1141  -17.9815  -44.7417 H         1 UNK         0.3000 
    155 H155        0.9398  -18.1395  -46.6523 H         1 UNK         0.0600 
    156 H156        0.2921  -15.7067  -46.6792 H         1 UNK         0.0600 
    157 H157       -0.6036  -16.6600  -47.8546 H         1 UNK         0.0600 
    158 H158       -1.3802  -16.1555  -46.3626 H         1 UNK         0.0600 
    159 H159        0.3254  -16.5536  -44.4133 H         1 UNK         0.3000 
    160 H160        1.2715  -18.8302  -41.8122 H         1 UNK         0.0600 
    161 H161        2.5358  -16.2912  -42.9727 H         1 UNK         0.0600 
    162 H162        3.3653  -17.7857  -42.5726 H         1 UNK         0.0600 
    163 H163        2.6659  -16.8081  -41.2907 H         1 UNK         0.0600 
    164 H164        0.2172  -16.1320  -41.9530 H         1 UNK         0.3000 
    165 H165       -3.1971  -17.0591  -41.5049 H         1 UNK         0.0600 
    166 H166       -2.9486  -15.5648  -39.5437 H         1 UNK         0.0600 
    167 H167       -2.2095  -17.1230  -39.2115 H         1 UNK         0.0600 
    168 H168       -1.1940  -15.7380  -39.5944 H         1 UNK         0.0600 
    169 H169       -1.8410  -14.5315  -41.6641 H         1 UNK         0.3000 
    170 H170       -1.9805  -14.1843  -45.2022 H         1 UNK         0.0600 
    171 H171       -4.3146  -13.6403  -44.4859 H         1 UNK         0.0600 
    172 H172       -3.6909  -12.8195  -43.0591 H         1 UNK         0.0600 
    173 H173       -3.3370  -12.1924  -44.6693 H         1 UNK         0.0600 
    174 H174       -1.2318  -12.2417  -43.3706 H         1 UNK         0.3000 
    175 H175        0.9713  -12.2612  -42.1329 H         1 UNK         0.0600 
    176 H176        2.7185  -13.9908  -42.3170 H         1 UNK         0.0600 
    177 H177        3.0217  -13.5652  -44.0000 H         1 UNK         0.0600 
    178 H178        3.3992  -12.4225  -42.7132 H         1 UNK         0.0600 
    179 H179        2.0379  -11.4310  -44.7213 H         1 UNK         0.3000 
    180 H180       -0.2004   -8.6386  -45.0365 H         1 UNK         0.0600 
    181 H181        2.8171   -9.0140  -44.6496 H         1 UNK         0.0600 
    182 H182        1.7721   -7.9904  -43.6722 H         1 UNK         0.0600 
    183 H183        2.0292   -7.6114  -45.3682 H         1 UNK         0.0600 
    184 H184        1.8025  -10.2094  -46.5743 H         1 UNK         0.3000 
    185 H185       -0.5459  -11.2930  -48.9524 H         1 UNK         0.0600 
    186 H186       -0.3458   -8.9441  -49.7715 H         1 UNK         0.0600 
    187 H187        1.3731   -8.9429  -49.3962 H         1 UNK         0.0600 
    188 H188        0.7381  -10.0126  -50.6474 H         1 UNK         0.0600 
    189 H189        2.3353  -11.1588  -48.9360 H         1 UNK         0.3000 
    190 H190       -0.6658  -21.5280  -47.4166 H         1 UNK         0.3000 
    191 H191       -0.8868  -23.0109  -49.8023 H         1 UNK         0.0600 
    192 H192       -3.0790  -21.5395  -48.2556 H         1 UNK         0.0600 
    193 H193       -3.1045  -21.9960  -49.9606 H         1 UNK         0.0600 
    194 H194       -1.9568  -20.7957  -49.3949 H         1 UNK         0.0600 
    195 H195       -2.4354  -23.5565  -46.5813 H         1 UNK         0.3000 
    196 H196       -4.0142  -25.7769  -47.3162 H         1 UNK         0.0600 
    197 H197       -4.0306  -26.2571  -44.8547 H         1 UNK         0.0600 
    198 H198       -4.3411  -24.5629  -45.1972 H         1 UNK         0.0600 
    199 H199       -2.7561  -25.0678  -44.6138 H         1 UNK         0.0600 
    200 H200       -0.6116  -25.6537  -46.1622 H         1 UNK         0.3000 
    201 H201       -0.1471  -28.4710  -46.1839 H         1 UNK         0.0600 
    202 H202        1.3021  -26.8659  -44.9678 H         1 UNK         0.0600 
    203 H203        1.8203  -26.1406  -46.4869 H         1 UNK         0.0600 
    204 H204        2.2508  -27.8038  -46.1120 H         1 UNK         0.0600 
    205 H205        0.0033  -26.0147  -48.7327 H         1 UNK         0.3000 
    206 H206        1.0662  -27.8039  -50.7753 H         1 UNK         0.0600 
    207 H207        1.5290  -25.3362  -50.7409 H         1 UNK         0.0600 
    208 H208        0.7634  -25.8436  -52.2382 H         1 UNK         0.0600 
    209 H209       -0.1825  -25.0164  -51.0112 H         1 UNK         0.0600 
    210 H210       -1.9264  -27.6840  -49.3214 H         1 UNK         0.3000 
    211 H211       -3.9394  -28.4668  -49.6804 H         1 UNK         0.0600 
    212 H212       -2.8978  -29.8485  -52.2059 H         1 UNK         0.0600 
    213 H213       -4.3553  -30.2509  -51.3113 H         1 UNK         0.0600 
    214 H214       -2.7832  -30.5002  -50.5712 H         1 UNK         0.0600 
    215 H215       -3.4115  -25.8525  -50.4765 H         1 UNK         0.3000 
    216 H216       -5.5699  -25.3591  -52.4694 H         1 UNK         0.0600 
    217 H217       -2.9803  -23.7345  -52.1294 H         1 UNK         0.0600 
    218 H218       -4.2496  -23.4590  -53.3230 H         1 UNK         0.0600 
    219 H219       -3.2482  -24.8917  -53.4288 H         1 UNK         0.0600 
    220 H220       -5.5072  -22.5501  -52.0411 H         1 UNK         0.3000 
    221 H221       -5.8440  -22.0319  -49.1744 H         1 UNK         0.0600 
    222 H222       -8.1715  -22.5726  -49.9753 H         1 UNK         0.0600 
    223 H223       -7.9995  -21.4099  -51.2889 H         1 UNK         0.0600 
    224 H224       -8.0169  -20.8593  -49.6164 H         1 UNK         0.0600 
    225 H225       -5.2793  -19.8640  -48.7351 H         1 UNK         0.3000 
    226 H226       -3.3672  -18.7393  -50.4599 H         1 UNK         0.0600 
    227 H227       -3.2707  -18.4683  -48.0337 H         1 UNK         0.0600 
    228 H228       -3.3187  -16.8814  -48.7749 H         1 UNK         0.0600 
    229 H229       -4.7681  -17.5353  -48.0177 H         1 UNK         0.0600 
    230 H230       -6.7819  -17.9303  -50.0580 H         1 UNK         0.3000 
    231 H231       -6.8011  -15.5108  -51.5960 H         1 UNK         0.0600 
    232 H232       -9.0431  -17.5003  -50.9407 H         1 UNK         0.0600 
    233 H233       -9.2736  -15.8747  -51.5734 H         1 UNK         0.0600 
    234 H234       -8.5884  -16.0973  -49.9720 H         1 UNK         0.0600 
    235 H235       -6.6973  -18.8849  -52.5162 H         1 UNK         0.3000 
    236 H236       -7.5649  -18.3571  -55.3046 H         1 UNK         0.0600 
    237 H237       -8.4748  -20.3778  -54.1860 H         1 UNK         0.0600 
    238 H238       -7.4341  -20.8168  -55.5314 H         1 UNK         0.0600 
    239 H239       -6.8461  -20.9757  -53.8829 H         1 UNK         0.0600 
    240 H240       -4.7327  -19.5770  -53.4089 H         1 UNK         0.3000 
    241 H241       -3.1184  -19.7282  -55.7914 H         1 UNK         0.0600 
    242 H242       -2.2401  -16.1123  -54.2085 H         1 UNK         0.3800 
    243 H243       -3.5113  -17.0551  -53.4783 H         1 UNK         0.3800 
    244 H244       -1.5873  -20.9284  -54.6351 H         1 UNK         0.0800 
    245 H245       -3.0368  -21.3373  -53.7958 H         1 UNK         0.0800 
    246 H246        0.4107  -20.9893  -53.3874 H         1 UNK         0.0800 
    247 H247        0.3036  -19.2724  -53.6670 H         1 UNK         0.0800 
@<TRIPOS>BOND
     1    1    2 1    
     2    1  127 1    
     3    1  128 1    
     4    1  129 1    
     5    2    3 2    
     6    2    4 am   BACKBONE|DICT|INTERRES
     7    4    5 1    
     8    4  130 1    
     9    5    6 1    
    10    5   65 1    
    11    5  131 1    
    12    6    7 1    
    13    6  132 1    
    14    6  133 1    
    15    7    8 1    
    16    8    9 1    
    17    8  134 1    
    18    8  135 1    
    19    9   10 ar   
    20    9   14 ar   
    21   10   11 ar   
    22   10  136 1    
    23   11   12 ar   
    24   11  126 1    
    25   12   13 ar   
    26   12  137 1    
    27   13   14 ar   
    28   13   15 1    
    29   14  138 1    
    30   15   16 1    
    31   15  139 1    
    32   15  140 1    
    33   16   17 1    
    34   17   18 1    
    35   17  141 1    
    36   17  142 1    
    37   18   19 1    
    38   18   67 1    
    39   18  143 1    
    40   19   20 am   BACKBONE|DICT|INTERRES
    41   19  144 1    
    42   20   21 2    
    43   20   22 1    
    44   22   23 1    
    45   22   24 1    
    46   22  145 1    
    47   23  146 1    
    48   23  147 1    
    49   23  148 1    
    50   24   25 am   BACKBONE|DICT|INTERRES
    51   24  149 1    
    52   25   26 2    
    53   25   27 1    
    54   27   28 1    
    55   27   29 1    
    56   27  150 1    
    57   28  151 1    
    58   28  152 1    
    59   28  153 1    
    60   29   30 am   BACKBONE|DICT|INTERRES
    61   29  154 1    
    62   30   31 2    
    63   30   32 1    
    64   32   33 1    
    65   32   34 1    
    66   32  155 1    
    67   33  156 1    
    68   33  157 1    
    69   33  158 1    
    70   34   35 am   BACKBONE|DICT|INTERRES
    71   34  159 1    
    72   35   36 2    
    73   35   37 1    
    74   37   38 1    
    75   37   39 1    
    76   37  160 1    
    77   38  161 1    
    78   38  162 1    
    79   38  163 1    
    80   39   40 am   BACKBONE|DICT|INTERRES
    81   39  164 1    
    82   40   41 2    
    83   40   42 1    
    84   42   43 1    
    85   42   44 1    
    86   42  165 1    
    87   43  166 1    
    88   43  167 1    
    89   43  168 1    
    90   44   45 am   BACKBONE|DICT|INTERRES
    91   44  169 1    
    92   45   46 2    
    93   45   47 1    
    94   47   48 1    
    95   47   49 1    
    96   47  170 1    
    97   48  171 1    
    98   48  172 1    
    99   48  173 1    
   100   49   50 am   BACKBONE|DICT|INTERRES
   101   49  174 1    
   102   50   51 2    
   103   50   52 1    
   104   52   53 1    
   105   52   54 1    
   106   52  175 1    
   107   53  176 1    
   108   53  177 1    
   109   53  178 1    
   110   54   55 am   BACKBONE|DICT|INTERRES
   111   54  179 1    
   112   55   56 2    
   113   55   57 1    
   114   57   58 1    
   115   57   59 1    
   116   57  180 1    
   117   58  181 1    
   118   58  182 1    
   119   58  183 1    
   120   59   60 am   BACKBONE|DICT|INTERRES
   121   59  184 1    
   122   60   61 2    
   123   60   62 1    
   124   62   63 1    
   125   62   64 1    
   126   62  185 1    
   127   63  186 1    
   128   63  187 1    
   129   63  188 1    
   130   64   65 am   BACKBONE|DICT|INTERRES
   131   64  189 1    
   132   65   66 2    
   133   67   68 2    
   134   67   69 am   BACKBONE|DICT|INTERRES
   135   69   70 1    
   136   69  190 1    
   137   70   71 1    
   138   70   72 1    
   139   70  191 1    
   140   71  192 1    
   141   71  193 1    
   142   71  194 1    
   143   72   73 2    
   144   72   74 am   BACKBONE|DICT|INTERRES
   145   74   75 1    
   146   74  195 1    
   147   75   76 1    
   148   75   77 1    
   149   75  196 1    
   150   76  197 1    
   151   76  198 1    
   152   76  199 1    
   153   77   78 2    
   154   77   79 am   BACKBONE|DICT|INTERRES
   155   79   80 1    
   156   79  200 1    
   157   80   81 1    
   158   80   82 1    
   159   80  201 1    
   160   81  202 1    
   161   81  203 1    
   162   81  204 1    
   163   82   83 2    
   164   82   84 am   BACKBONE|DICT|INTERRES
   165   84   85 1    
   166   84  205 1    
   167   85   86 1    
   168   85   87 1    
   169   85  206 1    
   170   86  207 1    
   171   86  208 1    
   172   86  209 1    
   173   87   88 2    
   174   87   89 am   BACKBONE|DICT|INTERRES
   175   89   90 1    
   176   89  210 1    
   177   90   91 1    
   178   90   92 1    
   179   90  211 1    
   180   91  212 1    
   181   91  213 1    
   182   91  214 1    
   183   92   93 2    
   184   92   94 am   BACKBONE|DICT|INTERRES
   185   94   95 1    
   186   94  215 1    
   187   95   96 1    
   188   95   97 1    
   189   95  216 1    
   190   96  217 1    
   191   96  218 1    
   192   96  219 1    
   193   97   98 2    
   194   97   99 am   BACKBONE|DICT|INTERRES
   195   99  100 1    
   196   99  220 1    
   197  100  101 1    
   198  100  102 1    
   199  100  221 1    
   200  101  222 1    
   201  101  223 1    
   202  101  224 1    
   203  102  103 2    
   204  102  104 am   BACKBONE|DICT|INTERRES
   205  104  105 1    
   206  104  225 1    
   207  105  106 1    
   208  105  107 1    
   209  105  226 1    
   210  106  227 1    
   211  106  228 1    
   212  106  229 1    
   213  107  108 2    
   214  107  109 am   BACKBONE|DICT|INTERRES
   215  109  110 1    
   216  109  230 1    
   217  110  111 1    
   218  110  112 1    
   219  110  231 1    
   220  111  232 1    
   221  111  233 1    
   222  111  234 1    
   223  112  113 2    
   224  112  114 am   BACKBONE|DICT|INTERRES
   225  114  115 1    
   226  114  235 1    
   227  115  116 1    
   228  115  117 1    
   229  115  236 1    
   230  116  237 1    
   231  116  238 1    
   232  116  239 1    
   233  117  118 2    
   234  117  119 am   BACKBONE|DICT|INTERRES
   235  119  120 1    
   236  119  240 1    
   237  120  121 1    
   238  120  124 1    
   239  120  241 1    
   240  121  122 am   BACKBONE|DICT|INTERRES
   241  121  123 2    
   242  122  242 1    
   243  122  243 1    
   244  124  125 1    
   245  124  244 1    
   246  124  245 1    
   247  125  126 1    
   248  126  246 1    
   249  126  247 1    
@<TRIPOS>SUBSTRUCTURE
     1 UNK         1 GROUP             0       ****    0 ROOT    
