@<TRIPOS>MOLECULE
3R540
247   249    1
SMALL
USER_CHARGES


@<TRIPOS>ATOM
      1 CA          4.5392  -14.1576  -47.0532 C.3       0 UNK        -0.1800 
      2 C           3.1203  -14.6673  -46.8446 C.2       0 UNK         0.5000 
      3 O           2.2240  -13.8726  -46.5632 O.2       0 UNK        -0.5000 
      4 N           2.9139  -15.9830  -47.0040 N.am      1 UNK        -0.5000 
      5 CA          1.6220  -16.6707  -46.8850 C.3       1 UNK         0.1400 
      6 C6          0.5782  -16.1150  -47.9029 C.3       23 UNK        -0.0398 
      7 S7         -0.7511  -17.2809  -48.3593 S.3       23 UNK        -0.2404 
      8 C8         -2.1974  -16.1826  -48.2373 C.3       23 UNK        -0.0205 
      9 C9         -3.4899  -16.9080  -48.5744 C.ar      23 UNK        -0.0193 
     10 C10        -4.1054  -16.7219  -49.8142 C.ar      23 UNK        -0.1150 
     11 C11        -5.3110  -17.3636  -50.1100 C.ar      23 UNK        -0.0193 
     12 C12        -5.9025  -18.1916  -49.1510 C.ar      23 UNK        -0.1150 
     13 C13        -5.2987  -18.3950  -47.9055 C.ar      23 UNK        -0.0193 
     14 C14        -4.0851  -17.7484  -47.6313 C.ar      23 UNK        -0.1150 
     15 C15        -5.9930  -19.3276  -46.9097 C.3       23 UNK        -0.0205 
     16 S16        -5.2114  -19.4465  -45.2598 S.3       23 UNK        -0.2404 
     17 C17        -5.3109  -21.2379  -44.9425 C.3       23 UNK        -0.0398 
     18 CA         -4.2209  -22.0394  -45.6939 C.3       11 UNK         0.1400 
     19 N          -2.8628  -21.5580  -45.4124 N.am      11 UNK        -0.5000 
     20 C          -1.7455  -21.9934  -46.0106 C.2       10 UNK         0.5000 
     21 O          -1.7504  -22.8157  -46.9264 O.2       10 UNK        -0.5000 
     22 CA         -0.3961  -21.4741  -45.4821 C.3       10 UNK         0.1400 
     23 CB          0.2071  -20.4585  -46.4613 C.3       10 UNK        -0.1800 
     24 N          -0.4369  -20.8707  -44.1479 N.am      10 UNK        -0.5000 
     25 C          -0.8164  -21.4706  -43.0092 C.2       9 UNK         0.5000 
     26 O          -1.3236  -22.5933  -42.9629 O.2       9 UNK        -0.5000 
     27 CA         -0.5830  -20.6548  -41.7185 C.3       9 UNK         0.1400 
     28 CB         -0.6222  -21.5206  -40.4426 C.3       9 UNK        -0.1800 
     29 N           0.6497  -19.8546  -41.7796 N.am      9 UNK        -0.5000 
     30 C           1.9043  -20.3096  -41.9330 C.2       8 UNK         0.5000 
     31 O           2.2012  -21.5042  -41.9680 O.2       8 UNK        -0.5000 
     32 CA          3.0192  -19.2621  -42.1237 C.3       8 UNK         0.1400 
     33 CB          3.6136  -19.3650  -43.5383 C.3       8 UNK        -0.1800 
     34 N           2.5962  -17.8772  -41.9022 N.am      8 UNK        -0.5000 
     35 C           2.4073  -17.3189  -40.6982 C.2       7 UNK         0.5000 
     36 O           2.4316  -17.9536  -39.6425 O.2       7 UNK        -0.5000 
     37 CA          2.1887  -15.7909  -40.6906 C.3       7 UNK         0.1400 
     38 CB          2.2448  -15.1692  -39.2803 C.3       7 UNK        -0.1800 
     39 N           3.1045  -15.0951  -41.6011 N.am      7 UNK        -0.5000 
     40 C           4.4467  -15.1263  -41.5806 C.2       6 UNK         0.5000 
     41 O           5.1072  -15.7130  -40.7225 O.2       6 UNK        -0.5000 
     42 CA          5.1900  -14.3924  -42.7058 C.3       6 UNK         0.1400 
     43 CB          5.4476  -15.3409  -43.8876 C.3       6 UNK        -0.1800 
     44 N           4.4889  -13.1866  -43.1553 N.am      6 UNK        -0.5000 
     45 C           5.1060  -12.0609  -43.5438 C.2       5 UNK         0.5000 
     46 O           6.3282  -11.9606  -43.6612 O.2       5 UNK        -0.5000 
     47 CA          4.2288  -10.8233  -43.8358 C.3       5 UNK         0.1400 
     48 CB          3.9814  -10.6773  -45.3449 C.3       5 UNK        -0.1800 
     49 N           2.9387  -10.8391  -43.1466 N.am      5 UNK        -0.5000 
     50 C           2.7644  -10.8119  -41.8185 C.2       4 UNK         0.5000 
     51 O           3.6835  -10.6331  -41.0185 O.2       4 UNK        -0.5000 
     52 CA          1.3350  -11.0489  -41.2817 C.3       4 UNK         0.1400 
     53 CB          0.7813   -9.7637  -40.6458 C.3       4 UNK        -0.1800 
     54 N           0.3502  -11.5504  -42.2514 N.am      4 UNK        -0.5000 
     55 C           0.4356  -12.6781  -42.9693 C.2       3 UNK         0.5000 
     56 O           1.4404  -13.3926  -43.0050 O.2       3 UNK        -0.5000 
     57 CA         -0.7958  -13.0302  -43.8240 C.3       3 UNK         0.1400 
     58 CB         -0.8142  -12.1911  -45.1112 C.3       3 UNK        -0.1800 
     59 N          -0.8146  -14.4436  -44.1919 N.am      3 UNK        -0.5000 
     60 C          -1.0099  -15.4655  -43.3474 C.2       2 UNK         0.5000 
     61 O          -1.3067  -15.3254  -42.1608 O.2       2 UNK        -0.5000 
     62 CA         -0.8494  -16.8894  -43.9195 C.3       2 UNK         0.1400 
     63 CB         -2.2180  -17.5727  -44.0547 C.3       2 UNK        -0.1800 
     64 N          -0.1766  -16.9182  -45.2204 N.am      2 UNK        -0.5000 
     65 C           1.1322  -16.7119  -45.4136 C.2       1 UNK         0.5000 
     66 O           1.9319  -16.5867  -44.4812 O.2       1 UNK        -0.5000 
     67 C          -4.3888  -23.5520  -45.4291 C.2       11 UNK         0.5000 
     68 O          -5.2128  -24.1852  -46.0886 O.2       11 UNK        -0.5000 
     69 N          -3.5620  -24.1233  -44.5380 N.am      12 UNK        -0.5000 
     70 CA         -3.4544  -25.5669  -44.3020 C.3       12 UNK         0.1400 
     71 CB         -2.5453  -25.8053  -43.0871 C.3       12 UNK        -0.1800 
     72 C          -2.9359  -26.3555  -45.5256 C.2       12 UNK         0.5000 
     73 O          -3.2189  -27.5482  -45.6397 O.2       12 UNK        -0.5000 
     74 N          -2.2137  -25.6720  -46.4233 N.am      13 UNK        -0.5000 
     75 CA         -1.7284  -26.1758  -47.7074 C.3       13 UNK         0.1400 
     76 CB         -0.2140  -25.9099  -47.7910 C.3       13 UNK        -0.1800 
     77 C          -2.4771  -25.5139  -48.8839 C.2       13 UNK         0.5000 
     78 O          -1.9737  -25.5390  -50.0070 O.2       13 UNK        -0.5000 
     79 N          -3.6386  -24.8952  -48.6113 N.am      14 UNK        -0.5000 
     80 CA         -4.4951  -24.1520  -49.5457 C.3       14 UNK         0.1400 
     81 CB         -5.1453  -25.1121  -50.5639 C.3       14 UNK        -0.1800 
     82 C          -3.7871  -22.9575  -50.2237 C.2       14 UNK         0.5000 
     83 O          -4.1130  -22.6221  -51.3599 O.2       14 UNK        -0.5000 
     84 N          -2.8270  -22.3464  -49.5145 N.am      15 UNK        -0.5000 
     85 CA         -1.9256  -21.2798  -49.9639 C.3       15 UNK         0.1400 
     86 CB         -2.6955  -20.0463  -50.4693 C.3       15 UNK        -0.1800 
     87 C          -0.8364  -21.7656  -50.9450 C.2       15 UNK         0.5000 
     88 O          -0.2351  -20.9462  -51.6424 O.2       15 UNK        -0.5000 
     89 N          -0.5652  -23.0809  -50.9471 N.am      16 UNK        -0.5000 
     90 CA          0.5116  -23.7734  -51.6584 C.3       16 UNK         0.1400 
     91 CB          1.8717  -23.4517  -51.0004 C.3       16 UNK        -0.1800 
     92 C           0.4707  -23.5135  -53.1769 C.2       16 UNK         0.5000 
     93 O          -0.4269  -24.0183  -53.8496 O.2       16 UNK        -0.5000 
     94 N           1.4175  -22.7201  -53.6948 N.am      17 UNK        -0.5000 
     95 CA          1.5136  -22.3382  -55.1056 C.3       17 UNK         0.1400 
     96 CB          2.8256  -21.5698  -55.3249 C.3       17 UNK        -0.1800 
     97 C           0.3139  -21.5133  -55.6152 C.2       17 UNK         0.5000 
     98 O           0.0277  -21.5454  -56.8126 O.2       17 UNK        -0.5000 
     99 N          -0.3758  -20.8063  -54.7090 N.am      18 UNK        -0.5000 
    100 CA        -1.5565  -20.0003  -55.0177 C.3       18 UNK         0.1400 
    101 CB        -1.6301  -18.8200  -54.0380 C.3       18 UNK        -0.1800 
    102 C         -2.8686  -20.8104  -55.0219 C.2       18 UNK         0.5000 
    103 O         -3.9118  -20.2387  -55.3411 O.2       18 UNK        -0.5000 
    104 N         -2.8210  -22.1169  -54.7090 N.am      19 UNK        -0.5000 
    105 CA        -3.9829  -23.0152  -54.6269 C.3       19 UNK         0.1400 
    106 CB        -3.5336  -24.4059  -54.1562 C.3       19 UNK        -0.1800 
    107 C         -4.8108  -23.1355  -55.9209 C.2       19 UNK         0.5000 
    108 O         -5.9911  -23.4777  -55.8479 O.2       19 UNK        -0.5000 
    109 N         -4.2095  -22.8021  -57.0715 N.am      20 UNK        -0.5000 
    110 CA        -4.8864  -22.6696  -58.3637 C.3       20 UNK         0.1400 
    111 CB        -3.8362  -22.3827  -59.4474 C.3       20 UNK        -0.1800 
    112 C         -5.9868  -21.5852  -58.3766 C.2       20 UNK         0.5000 
    113 O         -6.9400  -21.7080  -59.1470 O.2       20 UNK        -0.5000 
    114 N         -5.8451  -20.5642  -57.5201 N.am      21 UNK        -0.5000 
    115 CA        -6.8385  -19.5184  -57.2868 C.3       21 UNK         0.1400 
    116 CB        -6.1557  -18.1454  -57.3957 C.3       21 UNK        -0.1800 
    117 C         -7.4961  -19.6819  -55.9055 C.2       21 UNK         0.5000 
    118 O         -8.7127  -19.5260  -55.7927 O.2       21 UNK        -0.5000 
    119 N         -6.6851  -19.9765  -54.8817 N.am      22 UNK        -0.5000 
    120 CA        -7.1011  -20.0507  -53.4716 C.3       22 UNK         0.1400 
    121 C         -7.8417  -21.3570  -53.0646 C.2       22 UNK         0.5000 
    122 N         -7.8393  -22.4170  -53.8624 N.am      22 UNK        -0.7600 
    123 O         -8.4523  -21.4032  -52.0004 O.2       22 UNK        -0.5000 
    124 C124       -5.9155  -19.7670  -52.5156 C.3       23 UNK        -0.0398 
    125 S125       -5.1897  -18.1122  -52.7800 S.3       23 UNK        -0.2404 
    126 C126       -5.9788  -17.1408  -51.4588 C.3       23 UNK        -0.0205 
    127 H127        4.8399  -13.5266  -46.2182 H         1 UNK         0.0600 
    128 H128        4.5912  -13.5610  -47.9637 H         1 UNK         0.0600 
    129 H129        5.2556  -14.9749  -47.1375 H         1 UNK         0.0600 
    130 H130        3.7031  -16.5816  -47.2016 H         1 UNK         0.3000 
    131 H131        1.8282  -17.7076  -47.1538 H         1 UNK         0.0600 
    132 H132        0.1515  -15.1765  -47.5455 H         1 UNK         0.0800 
    133 H133        1.0826  -15.8617  -48.8366 H         1 UNK         0.0800 
    134 H134       -2.2683  -15.7718  -47.2291 H         1 UNK         0.0800 
    135 H135       -2.0574  -15.3318  -48.9063 H         1 UNK         0.0800 
    136 H136       -3.6485  -16.0771  -50.5518 H         1 UNK         0.1150 
    137 H137       -6.8380  -18.6844  -49.3759 H         1 UNK         0.1150 
    138 H138       -3.5856  -17.8895  -46.6866 H         1 UNK         0.1150 
    139 H139       -7.0228  -18.9954  -46.7712 H         1 UNK         0.0800 
    140 H140       -6.0507  -20.3168  -47.3644 H         1 UNK         0.0800 
    141 H141       -6.3091  -21.5848  -45.2169 H         1 UNK         0.0800 
    142 H142       -5.2212  -21.3914  -43.8656 H         1 UNK         0.0800 
    143 H143       -4.3809  -21.8994  -46.7648 H         1 UNK         0.0600 
    144 H144       -2.7762  -20.8806  -44.6704 H         1 UNK         0.3000 
    145 H145        0.2741  -22.3341  -45.4264 H         1 UNK         0.0600 
    146 H146        1.1838  -20.1118  -46.1237 H         1 UNK         0.0600 
    147 H147        0.3485  -20.9001  -47.4483 H         1 UNK         0.0600 
    148 H148       -0.4402  -19.5898  -46.5760 H         1 UNK         0.0600 
    149 H149       -0.0280  -19.9526  -44.0714 H         1 UNK         0.3000 
    150 H150       -1.4082  -19.9439  -41.6574 H         1 UNK         0.0600 
    151 H151       -1.5940  -22.0021  -40.3275 H         1 UNK         0.0600 
    152 H152       -0.4523  -20.9166  -39.5513 H         1 UNK         0.0600 
    153 H153        0.1305  -22.3091  -40.4621 H         1 UNK         0.0600 
    154 H154        0.5331  -18.8542  -41.7232 H         1 UNK         0.3000 
    155 H155        3.8091  -19.4969  -41.4071 H         1 UNK         0.0600 
    156 H156        2.8606  -19.1831  -44.3054 H         1 UNK         0.0600 
    157 H157        4.0302  -20.3568  -43.7182 H         1 UNK         0.0600 
    158 H158        4.4193  -18.6447  -43.6824 H         1 UNK         0.0600 
    159 H159        2.5335  -17.2897  -42.7300 H         1 UNK         0.3000 
    160 H160        1.1851  -15.6242  -41.0816 H         1 UNK         0.0600 
    161 H161        3.2106  -15.3333  -38.8016 H         1 UNK         0.0600 
    162 H162        1.4809  -15.6012  -38.6330 H         1 UNK         0.0600 
    163 H163        2.0674  -14.0945  -39.3181 H         1 UNK         0.0600 
    164 H164        2.6303  -14.5883  -42.3449 H         1 UNK         0.3000 
    165 H165        6.1571  -14.1057  -42.2867 H         1 UNK         0.0600 
    166 H166        6.0953  -14.8774  -44.6310 H         1 UNK         0.0600 
    167 H167        5.9421  -16.2547  -43.5558 H         1 UNK         0.0600 
    168 H168        4.5176  -15.6327  -44.3748 H         1 UNK         0.0600 
    169 H169        3.4771  -13.1843  -43.0859 H         1 UNK         0.3000 
    170 H170        4.7808   -9.9457  -43.4931 H         1 UNK         0.0600 
    171 H171        3.3740  -11.4956  -45.7326 H         1 UNK         0.0600 
    172 H172        3.4675   -9.7430  -45.5713 H         1 UNK         0.0600 
    173 H173        4.9209  -10.6734  -45.8991 H         1 UNK         0.0600 
    174 H174        2.1262  -11.0079  -43.7206 H         1 UNK         0.3000 
    175 H175        1.4219  -11.8039  -40.4979 H         1 UNK         0.0600 
    176 H176        0.6388   -8.9785  -41.3893 H         1 UNK         0.0600 
    177 H177       -0.1769   -9.9442  -40.1583 H         1 UNK         0.0600 
    178 H178        1.4602   -9.3758  -39.8851 H         1 UNK         0.0600 
    179 H179       -0.5006  -11.0103  -42.3179 H         1 UNK         0.3000 
    180 H180       -1.6956  -12.8134  -43.2447 H         1 UNK         0.0600 
    181 H181       -1.6886  -12.4216  -45.7201 H         1 UNK         0.0600 
    182 H182        0.0736  -12.3686  -45.7197 H         1 UNK         0.0600 
    183 H183       -0.8497  -11.1243  -44.8873 H         1 UNK         0.0600 
    184 H184       -0.5127  -14.6586  -45.1288 H         1 UNK         0.3000 
    185 H185       -0.2493  -17.4604  -43.2099 H         1 UNK         0.0600 
    186 H186       -2.1330  -18.5595  -44.5082 H         1 UNK         0.0600 
    187 H187       -2.6875  -17.7022  -43.0787 H         1 UNK         0.0600 
    188 H188       -2.9003  -16.9806  -44.6652 H         1 UNK         0.0600 
    189 H189       -0.7626  -17.0543  -46.0333 H         1 UNK         0.3000 
    190 H190       -2.8973  -23.5394  -44.0406 H         1 UNK         0.3000 
    191 H191       -4.4512  -25.9446  -44.0654 H         1 UNK         0.0600 
    192 H192       -2.4737  -26.8683  -42.8536 H         1 UNK         0.0600 
    193 H193       -2.9314  -25.3026  -42.2001 H         1 UNK         0.0600 
    194 H194       -1.5336  -25.4383  -43.2653 H         1 UNK         0.0600 
    195 H195       -2.0501  -24.6834  -46.2670 H         1 UNK         0.3000 
    196 H196       -1.8941  -27.2518  -47.7861 H         1 UNK         0.0600 
    197 H197        0.0076  -24.8418  -47.7866 H         1 UNK         0.0600 
    198 H198        0.3120  -26.3644  -46.9514 H         1 UNK         0.0600 
    199 H199        0.2116  -26.3299  -48.7031 H         1 UNK         0.0600 
    200 H200       -3.9761  -24.9228  -47.6566 H         1 UNK         0.3000 
    201 H201       -5.2964  -23.7202  -48.9446 H         1 UNK         0.0600 
    202 H202       -5.8846  -24.5937  -51.1760 H         1 UNK         0.0600 
    203 H203       -5.6596  -25.9309  -50.0610 H         1 UNK         0.0600 
    204 H204       -4.4075  -25.5438  -51.2407 H         1 UNK         0.0600 
    205 H205       -2.6123  -22.7066  -48.5882 H         1 UNK         0.3000 
    206 H206       -1.3897  -20.9638  -49.0696 H         1 UNK         0.0600 
    207 H207       -3.4951  -19.7750  -49.7825 H         1 UNK         0.0600 
    208 H208       -2.0368  -19.1821  -50.5567 H         1 UNK         0.0600 
    209 H209       -3.1382  -20.2182  -51.4487 H         1 UNK         0.0600 
    210 H210       -1.1736  -23.6926  -50.4144 H         1 UNK         0.3000 
    211 H211        0.3290  -24.8411  -51.5289 H         1 UNK         0.0600 
    212 H212        2.6851  -23.9823  -51.4970 H         1 UNK         0.0600 
    213 H213        1.8776  -23.7645  -49.9560 H         1 UNK         0.0600 
    214 H214        2.1029  -22.3862  -51.0234 H         1 UNK         0.0600 
    215 H215        2.0994  -22.3169  -53.0690 H         1 UNK         0.3000 
    216 H216        1.5516  -23.2557  -55.6965 H         1 UNK         0.0600 
    217 H217        2.8563  -20.6516  -54.7370 H         1 UNK         0.0600 
    218 H218        2.9461  -21.2927  -56.3731 H         1 UNK         0.0600 
    219 H219        3.6892  -22.1754  -55.0494 H         1 UNK         0.0600 
    220 H220       -0.1052  -20.8550  -53.7314 H         1 UNK         0.3000 
    221 H221       -1.4473  -19.5805  -56.0198 H         1 UNK         0.0600 
    222 H222       -0.7257  -18.2133  -54.0830 H         1 UNK         0.0600 
    223 H223       -1.7544  -19.1561  -53.0108 H         1 UNK         0.0600 
    224 H224       -2.4702  -18.1656  -54.2731 H         1 UNK         0.0600 
    225 H225       -1.9270  -22.5278  -54.4680 H         1 UNK         0.3000 
    226 H226       -4.6548  -22.6029  -53.8737 H         1 UNK         0.0600 
    227 H227       -2.8475  -24.8680  -54.8666 H         1 UNK         0.0600 
    228 H228       -3.0332  -24.3532  -53.1891 H         1 UNK         0.0600 
    229 H229       -4.3873  -25.0745  -54.0383 H         1 UNK         0.0600 
    230 H230       -3.2364  -22.5351  -57.0386 H         1 UNK         0.3000 
    231 H231       -5.3637  -23.6252  -58.5899 H         1 UNK         0.0600 
    232 H232       -3.3065  -21.4485  -59.2562 H         1 UNK         0.0600 
    233 H233       -4.3013  -22.3015  -60.4308 H         1 UNK         0.0600 
    234 H234       -3.0977  -23.1826  -59.5037 H         1 UNK         0.0600 
    235 H235       -5.0380  -20.5542  -56.9049 H         1 UNK         0.3000 
    236 H236       -7.6291  -19.5623  -58.0387 H         1 UNK         0.0600 
    237 H237       -5.3501  -18.0352  -56.6682 H         1 UNK         0.0600 
    238 H238       -5.7318  -17.9958  -58.3887 H         1 UNK         0.0600 
    239 H239       -6.8693  -17.3392  -57.2210 H         1 UNK         0.0600 
    240 H240       -5.6844  -20.0511  -55.0478 H         1 UNK         0.3000 
    241 H241       -7.8295  -19.2532  -53.3116 H         1 UNK         0.0600 
    242 H242       -7.3043  -22.4415  -54.7221 H         1 UNK         0.3800 
    243 H243       -8.3391  -23.2427  -53.5749 H         1 UNK         0.3800 
    244 H244       -5.1314  -20.5082  -52.6701 H         1 UNK         0.0800 
    245 H245       -6.2164  -19.8641  -51.4719 H         1 UNK         0.0800 
    246 H246       -5.9153  -16.0833  -51.7186 H         1 UNK         0.0800 
    247 H247       -7.0429  -17.3773  -51.4121 H         1 UNK         0.0800 
@<TRIPOS>BOND
     1    1    2 1    
     2    1  127 1    
     3    1  128 1    
     4    1  129 1    
     5    2    3 2    
     6    2    4 am   BACKBONE|DICT|INTERRES
     7    4    5 1    
     8    4  130 1    
     9    5    6 1    
    10    5   65 1    
    11    5  131 1    
    12    6    7 1    
    13    6  132 1    
    14    6  133 1    
    15    7    8 1    
    16    8    9 1    
    17    8  134 1    
    18    8  135 1    
    19    9   10 ar   
    20    9   14 ar   
    21   10   11 ar   
    22   10  136 1    
    23   11   12 ar   
    24   11  126 1    
    25   12   13 ar   
    26   12  137 1    
    27   13   14 ar   
    28   13   15 1    
    29   14  138 1    
    30   15   16 1    
    31   15  139 1    
    32   15  140 1    
    33   16   17 1    
    34   17   18 1    
    35   17  141 1    
    36   17  142 1    
    37   18   19 1    
    38   18   67 1    
    39   18  143 1    
    40   19   20 am   BACKBONE|DICT|INTERRES
    41   19  144 1    
    42   20   21 2    
    43   20   22 1    
    44   22   23 1    
    45   22   24 1    
    46   22  145 1    
    47   23  146 1    
    48   23  147 1    
    49   23  148 1    
    50   24   25 am   BACKBONE|DICT|INTERRES
    51   24  149 1    
    52   25   26 2    
    53   25   27 1    
    54   27   28 1    
    55   27   29 1    
    56   27  150 1    
    57   28  151 1    
    58   28  152 1    
    59   28  153 1    
    60   29   30 am   BACKBONE|DICT|INTERRES
    61   29  154 1    
    62   30   31 2    
    63   30   32 1    
    64   32   33 1    
    65   32   34 1    
    66   32  155 1    
    67   33  156 1    
    68   33  157 1    
    69   33  158 1    
    70   34   35 am   BACKBONE|DICT|INTERRES
    71   34  159 1    
    72   35   36 2    
    73   35   37 1    
    74   37   38 1    
    75   37   39 1    
    76   37  160 1    
    77   38  161 1    
    78   38  162 1    
    79   38  163 1    
    80   39   40 am   BACKBONE|DICT|INTERRES
    81   39  164 1    
    82   40   41 2    
    83   40   42 1    
    84   42   43 1    
    85   42   44 1    
    86   42  165 1    
    87   43  166 1    
    88   43  167 1    
    89   43  168 1    
    90   44   45 am   BACKBONE|DICT|INTERRES
    91   44  169 1    
    92   45   46 2    
    93   45   47 1    
    94   47   48 1    
    95   47   49 1    
    96   47  170 1    
    97   48  171 1    
    98   48  172 1    
    99   48  173 1    
   100   49   50 am   BACKBONE|DICT|INTERRES
   101   49  174 1    
   102   50   51 2    
   103   50   52 1    
   104   52   53 1    
   105   52   54 1    
   106   52  175 1    
   107   53  176 1    
   108   53  177 1    
   109   53  178 1    
   110   54   55 am   BACKBONE|DICT|INTERRES
   111   54  179 1    
   112   55   56 2    
   113   55   57 1    
   114   57   58 1    
   115   57   59 1    
   116   57  180 1    
   117   58  181 1    
   118   58  182 1    
   119   58  183 1    
   120   59   60 am   BACKBONE|DICT|INTERRES
   121   59  184 1    
   122   60   61 2    
   123   60   62 1    
   124   62   63 1    
   125   62   64 1    
   126   62  185 1    
   127   63  186 1    
   128   63  187 1    
   129   63  188 1    
   130   64   65 am   BACKBONE|DICT|INTERRES
   131   64  189 1    
   132   65   66 2    
   133   67   68 2    
   134   67   69 am   BACKBONE|DICT|INTERRES
   135   69   70 1    
   136   69  190 1    
   137   70   71 1    
   138   70   72 1    
   139   70  191 1    
   140   71  192 1    
   141   71  193 1    
   142   71  194 1    
   143   72   73 2    
   144   72   74 am   BACKBONE|DICT|INTERRES
   145   74   75 1    
   146   74  195 1    
   147   75   76 1    
   148   75   77 1    
   149   75  196 1    
   150   76  197 1    
   151   76  198 1    
   152   76  199 1    
   153   77   78 2    
   154   77   79 am   BACKBONE|DICT|INTERRES
   155   79   80 1    
   156   79  200 1    
   157   80   81 1    
   158   80   82 1    
   159   80  201 1    
   160   81  202 1    
   161   81  203 1    
   162   81  204 1    
   163   82   83 2    
   164   82   84 am   BACKBONE|DICT|INTERRES
   165   84   85 1    
   166   84  205 1    
   167   85   86 1    
   168   85   87 1    
   169   85  206 1    
   170   86  207 1    
   171   86  208 1    
   172   86  209 1    
   173   87   88 2    
   174   87   89 am   BACKBONE|DICT|INTERRES
   175   89   90 1    
   176   89  210 1    
   177   90   91 1    
   178   90   92 1    
   179   90  211 1    
   180   91  212 1    
   181   91  213 1    
   182   91  214 1    
   183   92   93 2    
   184   92   94 am   BACKBONE|DICT|INTERRES
   185   94   95 1    
   186   94  215 1    
   187   95   96 1    
   188   95   97 1    
   189   95  216 1    
   190   96  217 1    
   191   96  218 1    
   192   96  219 1    
   193   97   98 2    
   194   97   99 am   BACKBONE|DICT|INTERRES
   195   99  100 1    
   196   99  220 1    
   197  100  101 1    
   198  100  102 1    
   199  100  221 1    
   200  101  222 1    
   201  101  223 1    
   202  101  224 1    
   203  102  103 2    
   204  102  104 am   BACKBONE|DICT|INTERRES
   205  104  105 1    
   206  104  225 1    
   207  105  106 1    
   208  105  107 1    
   209  105  226 1    
   210  106  227 1    
   211  106  228 1    
   212  106  229 1    
   213  107  108 2    
   214  107  109 am   BACKBONE|DICT|INTERRES
   215  109  110 1    
   216  109  230 1    
   217  110  111 1    
   218  110  112 1    
   219  110  231 1    
   220  111  232 1    
   221  111  233 1    
   222  111  234 1    
   223  112  113 2    
   224  112  114 am   BACKBONE|DICT|INTERRES
   225  114  115 1    
   226  114  235 1    
   227  115  116 1    
   228  115  117 1    
   229  115  236 1    
   230  116  237 1    
   231  116  238 1    
   232  116  239 1    
   233  117  118 2    
   234  117  119 am   BACKBONE|DICT|INTERRES
   235  119  120 1    
   236  119  240 1    
   237  120  121 1    
   238  120  124 1    
   239  120  241 1    
   240  121  122 am   BACKBONE|DICT|INTERRES
   241  121  123 2    
   242  122  242 1    
   243  122  243 1    
   244  124  125 1    
   245  124  244 1    
   246  124  245 1    
   247  125  126 1    
   248  126  246 1    
   249  126  247 1    
@<TRIPOS>SUBSTRUCTURE
     1 UNK         1 GROUP             0       ****    0 ROOT    
