@<TRIPOS>MOLECULE
3R540
247   249    1
SMALL
USER_CHARGES


@<TRIPOS>ATOM
      1 CA          4.1840  -10.3796  -50.7978 C.3       0 UNK        -0.1800 
      2 C           3.5993  -11.2254  -49.6762 C.2       0 UNK         0.5000 
      3 O           3.7934  -10.9073  -48.5033 O.2       0 UNK        -0.5000 
      4 N           2.8646  -12.2889  -50.0296 N.am      1 UNK        -0.5000 
      5 CA          2.2681  -13.2672  -49.1052 C.3       1 UNK         0.1400 
      6 C6          1.7141  -14.5086  -49.8461 C.3       23 UNK        -0.0398 
      7 S7          2.9375  -15.3445  -50.9192 S.3       23 UNK        -0.2404 
      8 C8          3.3762  -16.8274  -49.9416 C.3       23 UNK        -0.0205 
      9 C9          2.4084  -18.0104  -50.0469 C.ar      23 UNK        -0.0193 
     10 C10         1.0377  -17.8400  -50.2772 C.ar      23 UNK        -0.1150 
     11 C11         0.1661  -18.9297  -50.2735 C.ar      23 UNK        -0.0193 
     12 C12         0.6750  -20.2138  -50.0668 C.ar      23 UNK        -0.1150 
     13 C13         2.0441  -20.4129  -49.8723 C.ar      23 UNK        -0.0193 
     14 C14         2.9015  -19.3073  -49.8572 C.ar      23 UNK        -0.1150 
     15 C15         2.5862  -21.8255  -49.6836 C.3       23 UNK        -0.0205 
     16 S16         3.3523  -22.1081  -48.0504 S.3       23 UNK        -0.2404 
     17 C17         2.0419  -21.5939  -46.8893 C.3       23 UNK        -0.0398 
     18 CA          1.1722  -22.7474  -46.3345 C.3       11 UNK         0.1400 
     19 N           0.4110  -22.3125  -45.1607 N.am      11 UNK        -0.5000 
     20 C          -0.3613  -23.0906  -44.3905 C.2       10 UNK         0.5000 
     21 O          -0.4693  -24.3077  -44.5374 O.2       10 UNK        -0.5000 
     22 CA         -1.1912  -22.3785  -43.3046 C.3       10 UNK         0.1400 
     23 CB         -0.3413  -22.0980  -42.0566 C.3       10 UNK        -0.1800 
     24 N          -1.7922  -21.1314  -43.7853 N.am      10 UNK        -0.5000 
     25 C          -2.7272  -21.0684  -44.7452 C.2       9 UNK         0.5000 
     26 O          -3.2230  -22.0613  -45.2776 O.2       9 UNK        -0.5000 
     27 CA         -3.1414  -19.6657  -45.2303 C.3       9 UNK         0.1400 
     28 CB         -4.1716  -19.0330  -44.2841 C.3       9 UNK        -0.1800 
     29 N          -2.0000  -18.7645  -45.3915 N.am      9 UNK        -0.5000 
     30 C          -1.0046  -18.9584  -46.2676 C.2       8 UNK         0.5000 
     31 O          -0.9819  -19.8874  -47.0720 O.2       8 UNK        -0.5000 
     32 CA          0.1942  -17.9963  -46.1884 C.3       8 UNK         0.1400 
     33 CB         -0.0892  -16.6940  -46.9476 C.3       8 UNK        -0.1800 
     34 N           0.5712  -17.6971  -44.8051 N.am      8 UNK        -0.5000 
     35 C           1.0570  -18.6039  -43.9445 C.2       7 UNK         0.5000 
     36 O           1.3002  -19.7689  -44.2504 O.2       7 UNK        -0.5000 
     37 CA          1.2508  -18.1571  -42.4868 C.3       7 UNK         0.1400 
     38 CB          2.6330  -17.5176  -42.2866 C.3       7 UNK        -0.1800 
     39 N           0.2006  -17.2308  -42.0661 N.am      7 UNK        -0.5000 
     40 C          -1.0619  -17.6024  -41.8055 C.2       6 UNK         0.5000 
     41 O          -1.4463  -18.7717  -41.8452 O.2       6 UNK        -0.5000 
     42 CA         -2.0746  -16.4810  -41.4942 C.3       6 UNK         0.1400 
     43 CB         -2.0764  -16.1582  -39.9929 C.3       6 UNK        -0.1800 
     44 N          -1.8201  -15.2534  -42.2514 N.am      6 UNK        -0.5000 
     45 C          -1.8795  -15.1616  -43.5872 C.2       5 UNK         0.5000 
     46 O          -2.2600  -16.0847  -44.3063 O.2       5 UNK        -0.5000 
     47 CA         -1.3914  -13.8494  -44.2384 C.3       5 UNK         0.1400 
     48 CB         -2.5887  -12.9650  -44.6156 C.3       5 UNK        -0.1800 
     49 N          -0.4450  -13.0610  -43.4380 N.am      5 UNK        -0.5000 
     50 C           0.7257  -13.4970  -42.9488 C.2       4 UNK         0.5000 
     51 O           1.1170  -14.6595  -43.0578 O.2       4 UNK        -0.5000 
     52 CA          1.5838  -12.4465  -42.2135 C.3       4 UNK         0.1400 
     53 CB          2.8920  -13.0268  -41.6344 C.3       4 UNK        -0.1800 
     54 N           1.8444  -11.2748  -43.0575 N.am      4 UNK        -0.5000 
     55 C           2.5014  -11.2582  -44.2263 C.2       3 UNK         0.5000 
     56 O           3.0825  -12.2286  -44.7159 O.2       3 UNK        -0.5000 
     57 CA          2.4679   -9.9316  -45.0046 C.3       3 UNK         0.1400 
     58 CB          3.8838   -9.4313  -45.3324 C.3       3 UNK        -0.1800 
     59 N           1.7187  -10.1250  -46.2429 N.am      3 UNK        -0.5000 
     60 C           0.3849  -10.2602  -46.2993 C.2       2 UNK         0.5000 
     61 O          -0.3569  -10.0773  -45.3329 O.2       2 UNK        -0.5000 
     62 CA         -0.2281  -10.6911  -47.6478 C.3       2 UNK         0.1400 
     63 CB         -0.7121   -9.4649  -48.4361 C.3       2 UNK        -0.1800 
     64 N           0.6961  -11.4604  -48.4824 N.am      2 UNK        -0.5000 
     65 C           1.1763  -12.6760  -48.1803 C.2       1 UNK         0.5000 
     66 O           0.7917  -13.3280  -47.2104 O.2       1 UNK        -0.5000 
     67 C           0.2473  -23.3463  -47.4141 C.2       11 UNK         0.5000 
     68 O           0.5212  -24.4406  -47.9061 O.2       11 UNK        -0.5000 
     69 N          -0.8551  -22.6484  -47.7244 N.am      12 UNK        -0.5000 
     70 CA         -1.8921  -23.1017  -48.6500 C.3       12 UNK         0.1400 
     71 CB         -2.9346  -21.9964  -48.8517 C.3       12 UNK        -0.1800 
     72 C          -2.5673  -24.4019  -48.1901 C.2       12 UNK         0.5000 
     73 O          -2.7117  -25.3173  -48.9974 O.2       12 UNK        -0.5000 
     74 N          -2.9189  -24.4845  -46.8992 N.am      13 UNK        -0.5000 
     75 CA         -3.4971  -25.6759  -46.2763 C.3       13 UNK         0.1400 
     76 CB         -3.9083  -25.3590  -44.8308 C.3       13 UNK        -0.1800 
     77 C          -2.5588  -26.8966  -46.3296 C.2       13 UNK         0.5000 
     78 O          -3.0168  -27.9954  -46.6440 O.2       13 UNK        -0.5000 
     79 N          -1.2620  -26.6771  -46.0691 N.am      14 UNK        -0.5000 
     80 CA         -0.2091  -27.6897  -46.1719 C.3       14 UNK         0.1400 
     81 CB          1.0863  -27.1455  -45.5506 C.3       14 UNK        -0.1800 
     82 C           0.0330  -28.1595  -47.6199 C.2       14 UNK         0.5000 
     83 O           0.2384  -29.3526  -47.8454 O.2       14 UNK        -0.5000 
     84 N          -0.0190  -27.2209  -48.5744 N.am      15 UNK        -0.5000 
     85 CA          0.1110  -27.4733  -50.0118 C.3       15 UNK         0.1400 
     86 CB          0.4474  -26.1476  -50.7149 C.3       15 UNK        -0.1800 
     87 C          -1.1428  -28.1086  -50.6493 C.2       15 UNK         0.5000 
     88 O          -1.0551  -28.5982  -51.7761 O.2       15 UNK        -0.5000 
     89 N          -2.2784  -28.0653  -49.9366 N.am      16 UNK        -0.5000 
     90 CA         -3.6304  -28.4280  -50.3753 C.3       16 UNK         0.1400 
     91 CB         -3.7331  -29.9342  -50.6942 C.3       16 UNK        -0.1800 
     92 C          -4.1352  -27.5185  -51.5179 C.2       16 UNK         0.5000 
     93 O          -4.7788  -27.9908  -52.4572 O.2       16 UNK        -0.5000 
     94 N          -3.8215  -26.2236  -51.4082 N.am      17 UNK        -0.5000 
     95 CA         -4.2079  -25.1570  -52.3246 C.3       17 UNK         0.1400 
     96 CB         -2.9491  -24.3417  -52.6670 C.3       17 UNK        -0.1800 
     97 C          -5.2584  -24.2504  -51.6626 C.2       17 UNK         0.5000 
     98 O          -5.4039  -24.2537  -50.4376 O.2       17 UNK        -0.5000 
     99 N          -5.9560  -23.4594  -52.4848 N.am      18 UNK        -0.5000 
    100 CA        -6.8496  -22.3996  -52.0268 C.3       18 UNK         0.1400 
    101 CB        -7.8806  -22.0926  -53.1249 C.3       18 UNK        -0.1800 
    102 C         -6.0225  -21.1487  -51.6935 C.2       18 UNK         0.5000 
    103 O         -5.3300  -20.6348  -52.5744 O.2       18 UNK        -0.5000 
    104 N         -6.1274  -20.6600  -50.4503 N.am      19 UNK        -0.5000 
    105 CA        -5.4043  -19.4809  -49.9577 C.3       19 UNK         0.1400 
    106 CB        -5.6880  -19.2969  -48.4594 C.3       19 UNK        -0.1800 
    107 C         -5.7280  -18.1910  -50.7366 C.2       19 UNK         0.5000 
    108 O         -4.8538  -17.3428  -50.9106 O.2       19 UNK        -0.5000 
    109 N         -6.9691  -18.0919  -51.2305 N.am      20 UNK        -0.5000 
    110 CA        -7.4538  -16.9950  -52.0666 C.3       20 UNK         0.1400 
    111 CB        -8.9848  -17.0870  -52.1611 C.3       20 UNK        -0.1800 
    112 C         -6.8300  -16.9626  -53.4768 C.2       20 UNK         0.5000 
    113 O         -6.8317  -15.9006  -54.1006 O.2       20 UNK        -0.5000 
    114 N         -6.3225  -18.1055  -53.9639 N.am      21 UNK        -0.5000 
    115 CA        -5.6746  -18.2118  -55.2706 C.3       21 UNK         0.1400 
    116 CB        -5.7628  -19.6570  -55.7870 C.3       21 UNK        -0.1800 
    117 C         -4.2161  -17.7301  -55.2145 C.2       21 UNK         0.5000 
    118 O         -3.8011  -16.9589  -56.0809 O.2       21 UNK        -0.5000 
    119 N         -3.4699  -18.1862  -54.2002 N.am      22 UNK        -0.5000 
    120 CA        -2.0723  -17.7898  -53.9616 C.3       22 UNK         0.1400 
    121 C         -1.9024  -16.4195  -53.2460 C.2       22 UNK         0.5000 
    122 N         -2.8690  -15.9431  -52.4715 N.am      22 UNK        -0.7600 
    123 O         -0.8769  -15.7654  -53.4121 O.2       22 UNK        -0.5000 
    124 C124       -1.2429  -18.9110  -53.2826 C.3       23 UNK        -0.0398 
    125 S125       -2.0355  -19.6720  -51.8244 S.3       23 UNK        -0.2404 
    126 C126       -1.3281  -18.7022  -50.4548 C.3       23 UNK        -0.0205 
    127 H127        3.8131   -9.3570  -50.7290 H         1 UNK         0.0600 
    128 H128        3.9218  -10.7720  -51.7807 H         1 UNK         0.0600 
    129 H129        5.2709  -10.3551  -50.7202 H         1 UNK         0.0600 
    130 H130        2.7457  -12.4995  -51.0107 H         1 UNK         0.3000 
    131 H131        3.0696  -13.6082  -48.4462 H         1 UNK         0.0600 
    132 H132        1.3366  -15.2264  -49.1183 H         1 UNK         0.0800 
    133 H133        0.8613  -14.2311  -50.4686 H         1 UNK         0.0800 
    134 H134        4.3656  -17.1477  -50.2717 H         1 UNK         0.0800 
    135 H135        3.4822  -16.5500  -48.8920 H         1 UNK         0.0800 
    136 H136        0.6258  -16.8581  -50.4435 H         1 UNK         0.1150 
    137 H137       -0.0006  -21.0571  -50.0606 H         1 UNK         0.1150 
    138 H138        3.9573  -19.4608  -49.6824 H         1 UNK         0.1150 
    139 H139        1.7987  -22.5650  -49.8368 H         1 UNK         0.0800 
    140 H140        3.3322  -22.0195  -50.4553 H         1 UNK         0.0800 
    141 H141        1.4249  -20.8129  -47.3291 H         1 UNK         0.0800 
    142 H142        2.5647  -21.1136  -46.0623 H         1 UNK         0.0800 
    143 H143        1.8393  -23.5431  -45.9968 H         1 UNK         0.0600 
    144 H144        0.4912  -21.3281  -44.9198 H         1 UNK         0.3000 
    145 H145       -2.0028  -23.0490  -43.0150 H         1 UNK         0.0600 
    146 H146        0.0751  -23.0221  -41.6541 H         1 UNK         0.0600 
    147 H147        0.4925  -21.4313  -42.2754 H         1 UNK         0.0600 
    148 H148       -0.9382  -21.6387  -41.2684 H         1 UNK         0.0600 
    149 H149       -1.4676  -20.2708  -43.3596 H         1 UNK         0.3000 
    150 H150       -3.6089  -19.7817  -46.2097 H         1 UNK         0.0600 
    151 H151       -5.0506  -19.6707  -44.1830 H         1 UNK         0.0600 
    152 H152       -4.5105  -18.0676  -44.6605 H         1 UNK         0.0600 
    153 H153       -3.7618  -18.8772  -43.2863 H         1 UNK         0.0600 
    154 H154       -1.9830  -17.9321  -44.8094 H         1 UNK         0.3000 
    155 H155        1.0444  -18.4835  -46.6703 H         1 UNK         0.0600 
    156 H156        0.7775  -16.0344  -46.9239 H         1 UNK         0.0600 
    157 H157       -0.3220  -16.8959  -47.9926 H         1 UNK         0.0600 
    158 H158       -0.9363  -16.1509  -46.5323 H         1 UNK         0.0600 
    159 H159        0.3955  -16.7605  -44.4702 H         1 UNK         0.3000 
    160 H160        1.1995  -19.0448  -41.8529 H         1 UNK         0.0600 
    161 H161        2.7865  -16.6623  -42.9448 H         1 UNK         0.0600 
    162 H162        3.4249  -18.2365  -42.4998 H         1 UNK         0.0600 
    163 H163        2.7678  -17.1795  -41.2591 H         1 UNK         0.0600 
    164 H164        0.4338  -16.2435  -42.1031 H         1 UNK         0.3000 
    165 H165       -3.0670  -16.8457  -41.7676 H         1 UNK         0.0600 
    166 H166       -2.8428  -15.4227  -39.7482 H         1 UNK         0.0600 
    167 H167       -2.2844  -17.0515  -39.4024 H         1 UNK         0.0600 
    168 H168       -1.1139  -15.7639  -39.6642 H         1 UNK         0.0600 
    169 H169       -1.5025  -14.4506  -41.7293 H         1 UNK         0.3000 
    170 H170       -0.8732  -14.1261  -45.1580 H         1 UNK         0.0600 
    171 H171       -3.3013  -13.5131  -45.2336 H         1 UNK         0.0600 
    172 H172       -3.1220  -12.6127  -43.7319 H         1 UNK         0.0600 
    173 H173       -2.2717  -12.0932  -45.1875 H         1 UNK         0.0600 
    174 H174       -0.6724  -12.0831  -43.3265 H         1 UNK         0.3000 
    175 H175        0.9852  -12.0952  -41.3718 H         1 UNK         0.0600 
    176 H176        3.5320  -13.4502  -42.4088 H         1 UNK         0.0600 
    177 H177        3.4633  -12.2625  -41.1078 H         1 UNK         0.0600 
    178 H178        2.6797  -13.8236  -40.9205 H         1 UNK         0.0600 
    179 H179        1.3877  -10.4225  -42.7628 H         1 UNK         0.3000 
    180 H180        1.9707   -9.1664  -44.4045 H         1 UNK         0.0600 
    181 H181        4.4397  -10.1522  -45.9329 H         1 UNK         0.0600 
    182 H182        4.4544   -9.2558  -44.4197 H         1 UNK         0.0600 
    183 H183        3.8520   -8.4915  -45.8839 H         1 UNK         0.0600 
    184 H184        2.2684  -10.3496  -47.0644 H         1 UNK         0.3000 
    185 H185       -1.0917  -11.3228  -47.4296 H         1 UNK         0.0600 
    186 H186       -1.4246   -8.8815  -47.8514 H         1 UNK         0.0600 
    187 H187        0.1147   -8.8045  -48.7005 H         1 UNK         0.0600 
    188 H188       -1.2148   -9.7607  -49.3571 H         1 UNK         0.0600 
    189 H189        1.0630  -10.9973  -49.3008 H         1 UNK         0.3000 
    190 H190       -0.9868  -21.7272  -47.3120 H         1 UNK         0.3000 
    191 H191       -1.4110  -23.2937  -49.6108 H         1 UNK         0.0600 
    192 H192       -2.4642  -21.0815  -49.1992 H         1 UNK         0.0600 
    193 H193       -3.4691  -21.7671  -47.9306 H         1 UNK         0.0600 
    194 H194       -3.6728  -22.2864  -49.5995 H         1 UNK         0.0600 
    195 H195       -2.8034  -23.6676  -46.3060 H         1 UNK         0.3000 
    196 H196       -4.3999  -25.9302  -46.8356 H         1 UNK         0.0600 
    197 H197       -4.3733  -26.2251  -44.3585 H         1 UNK         0.0600 
    198 H198       -4.6301  -24.5427  -44.7968 H         1 UNK         0.0600 
    199 H199       -3.0520  -25.0726  -44.2206 H         1 UNK         0.0600 
    200 H200       -0.9742  -25.7490  -45.7714 H         1 UNK         0.3000 
    201 H201       -0.5234  -28.5588  -45.5904 H         1 UNK         0.0600 
    202 H202        0.9401  -26.8833  -44.5026 H         1 UNK         0.0600 
    203 H203        1.4401  -26.2547  -46.0704 H         1 UNK         0.0600 
    204 H204        1.8829  -27.8893  -45.5926 H         1 UNK         0.0600 
    205 H205       -0.1224  -26.2489  -48.2958 H         1 UNK         0.3000 
    206 H206        0.9431  -28.1628  -50.1675 H         1 UNK         0.0600 
    207 H207        1.3650  -25.7119  -50.3191 H         1 UNK         0.0600 
    208 H208        0.5935  -26.2958  -51.7855 H         1 UNK         0.0600 
    209 H209       -0.3512  -25.4152  -50.5915 H         1 UNK         0.0600 
    210 H210       -2.2333  -27.5889  -49.0449 H         1 UNK         0.3000 
    211 H211       -4.2823  -28.2298  -49.5233 H         1 UNK         0.0600 
    212 H212       -3.1631  -30.2034  -51.5836 H         1 UNK         0.0600 
    213 H213       -4.7693  -30.2238  -50.8723 H         1 UNK         0.0600 
    214 H214       -3.3661  -30.5378  -49.8640 H         1 UNK         0.0600 
    215 H215       -3.3705  -25.9122  -50.5481 H         1 UNK         0.3000 
    216 H216       -4.6279  -25.5707  -53.2436 H         1 UNK         0.0600 
    217 H217       -2.1848  -24.9714  -53.1230 H         1 UNK         0.0600 
    218 H218       -2.5147  -23.8811  -51.7789 H         1 UNK         0.0600 
    219 H219       -3.1753  -23.5414  -53.3727 H         1 UNK         0.0600 
    220 H220       -5.7517  -23.4730  -53.4735 H         1 UNK         0.3000 
    221 H221       -7.3890  -22.7304  -51.1365 H         1 UNK         0.0600 
    222 H222       -7.4034  -21.7753  -54.0528 H         1 UNK         0.0600 
    223 H223       -8.4912  -22.9682  -53.3461 H         1 UNK         0.0600 
    224 H224       -8.5567  -21.2950  -52.8142 H         1 UNK         0.0600 
    225 H225       -6.7122  -21.1410  -49.7822 H         1 UNK         0.3000 
    226 H226       -4.3386  -19.6748  -50.0761 H         1 UNK         0.0600 
    227 H227       -5.4147  -20.1869  -47.8929 H         1 UNK         0.0600 
    228 H228       -5.1118  -18.4642  -48.0534 H         1 UNK         0.0600 
    229 H229       -6.7423  -19.0908  -48.2713 H         1 UNK         0.0600 
    230 H230       -7.6198  -18.8396  -51.0408 H         1 UNK         0.3000 
    231 H231       -7.1971  -16.0548  -51.5741 H         1 UNK         0.0600 
    232 H232       -9.3904  -16.2651  -52.7526 H         1 UNK         0.0600 
    233 H233       -9.4455  -17.0328  -51.1745 H         1 UNK         0.0600 
    234 H234       -9.3034  -18.0182  -52.6313 H         1 UNK         0.0600 
    235 H235       -6.2962  -18.9305  -53.3771 H         1 UNK         0.3000 
    236 H236       -6.2099  -17.5789  -55.9820 H         1 UNK         0.0600 
    237 H237       -6.7975  -19.9963  -55.8341 H         1 UNK         0.0600 
    238 H238       -5.3500  -19.7329  -56.7936 H         1 UNK         0.0600 
    239 H239       -5.2088  -20.3529  -55.1573 H         1 UNK         0.0600 
    240 H240       -3.8764  -18.8210  -53.5251 H         1 UNK         0.3000 
    241 H241       -1.6112  -17.6458  -54.9410 H         1 UNK         0.0600 
    242 H242       -3.6708  -16.5104  -52.2159 H         1 UNK         0.3800 
    243 H243       -2.7453  -15.0453  -52.0338 H         1 UNK         0.3800 
    244 H244       -1.0878  -19.7138  -54.0043 H         1 UNK         0.0800 
    245 H245       -0.2408  -18.5622  -53.0271 H         1 UNK         0.0800 
    246 H246       -1.5464  -17.6468  -50.6165 H         1 UNK         0.0800 
    247 H247       -1.8351  -18.9632  -49.5269 H         1 UNK         0.0800 
@<TRIPOS>BOND
     1    1    2 1    
     2    1  127 1    
     3    1  128 1    
     4    1  129 1    
     5    2    3 2    
     6    2    4 am   BACKBONE|DICT|INTERRES
     7    4    5 1    
     8    4  130 1    
     9    5    6 1    
    10    5   65 1    
    11    5  131 1    
    12    6    7 1    
    13    6  132 1    
    14    6  133 1    
    15    7    8 1    
    16    8    9 1    
    17    8  134 1    
    18    8  135 1    
    19    9   10 ar   
    20    9   14 ar   
    21   10   11 ar   
    22   10  136 1    
    23   11   12 ar   
    24   11  126 1    
    25   12   13 ar   
    26   12  137 1    
    27   13   14 ar   
    28   13   15 1    
    29   14  138 1    
    30   15   16 1    
    31   15  139 1    
    32   15  140 1    
    33   16   17 1    
    34   17   18 1    
    35   17  141 1    
    36   17  142 1    
    37   18   19 1    
    38   18   67 1    
    39   18  143 1    
    40   19   20 am   BACKBONE|DICT|INTERRES
    41   19  144 1    
    42   20   21 2    
    43   20   22 1    
    44   22   23 1    
    45   22   24 1    
    46   22  145 1    
    47   23  146 1    
    48   23  147 1    
    49   23  148 1    
    50   24   25 am   BACKBONE|DICT|INTERRES
    51   24  149 1    
    52   25   26 2    
    53   25   27 1    
    54   27   28 1    
    55   27   29 1    
    56   27  150 1    
    57   28  151 1    
    58   28  152 1    
    59   28  153 1    
    60   29   30 am   BACKBONE|DICT|INTERRES
    61   29  154 1    
    62   30   31 2    
    63   30   32 1    
    64   32   33 1    
    65   32   34 1    
    66   32  155 1    
    67   33  156 1    
    68   33  157 1    
    69   33  158 1    
    70   34   35 am   BACKBONE|DICT|INTERRES
    71   34  159 1    
    72   35   36 2    
    73   35   37 1    
    74   37   38 1    
    75   37   39 1    
    76   37  160 1    
    77   38  161 1    
    78   38  162 1    
    79   38  163 1    
    80   39   40 am   BACKBONE|DICT|INTERRES
    81   39  164 1    
    82   40   41 2    
    83   40   42 1    
    84   42   43 1    
    85   42   44 1    
    86   42  165 1    
    87   43  166 1    
    88   43  167 1    
    89   43  168 1    
    90   44   45 am   BACKBONE|DICT|INTERRES
    91   44  169 1    
    92   45   46 2    
    93   45   47 1    
    94   47   48 1    
    95   47   49 1    
    96   47  170 1    
    97   48  171 1    
    98   48  172 1    
    99   48  173 1    
   100   49   50 am   BACKBONE|DICT|INTERRES
   101   49  174 1    
   102   50   51 2    
   103   50   52 1    
   104   52   53 1    
   105   52   54 1    
   106   52  175 1    
   107   53  176 1    
   108   53  177 1    
   109   53  178 1    
   110   54   55 am   BACKBONE|DICT|INTERRES
   111   54  179 1    
   112   55   56 2    
   113   55   57 1    
   114   57   58 1    
   115   57   59 1    
   116   57  180 1    
   117   58  181 1    
   118   58  182 1    
   119   58  183 1    
   120   59   60 am   BACKBONE|DICT|INTERRES
   121   59  184 1    
   122   60   61 2    
   123   60   62 1    
   124   62   63 1    
   125   62   64 1    
   126   62  185 1    
   127   63  186 1    
   128   63  187 1    
   129   63  188 1    
   130   64   65 am   BACKBONE|DICT|INTERRES
   131   64  189 1    
   132   65   66 2    
   133   67   68 2    
   134   67   69 am   BACKBONE|DICT|INTERRES
   135   69   70 1    
   136   69  190 1    
   137   70   71 1    
   138   70   72 1    
   139   70  191 1    
   140   71  192 1    
   141   71  193 1    
   142   71  194 1    
   143   72   73 2    
   144   72   74 am   BACKBONE|DICT|INTERRES
   145   74   75 1    
   146   74  195 1    
   147   75   76 1    
   148   75   77 1    
   149   75  196 1    
   150   76  197 1    
   151   76  198 1    
   152   76  199 1    
   153   77   78 2    
   154   77   79 am   BACKBONE|DICT|INTERRES
   155   79   80 1    
   156   79  200 1    
   157   80   81 1    
   158   80   82 1    
   159   80  201 1    
   160   81  202 1    
   161   81  203 1    
   162   81  204 1    
   163   82   83 2    
   164   82   84 am   BACKBONE|DICT|INTERRES
   165   84   85 1    
   166   84  205 1    
   167   85   86 1    
   168   85   87 1    
   169   85  206 1    
   170   86  207 1    
   171   86  208 1    
   172   86  209 1    
   173   87   88 2    
   174   87   89 am   BACKBONE|DICT|INTERRES
   175   89   90 1    
   176   89  210 1    
   177   90   91 1    
   178   90   92 1    
   179   90  211 1    
   180   91  212 1    
   181   91  213 1    
   182   91  214 1    
   183   92   93 2    
   184   92   94 am   BACKBONE|DICT|INTERRES
   185   94   95 1    
   186   94  215 1    
   187   95   96 1    
   188   95   97 1    
   189   95  216 1    
   190   96  217 1    
   191   96  218 1    
   192   96  219 1    
   193   97   98 2    
   194   97   99 am   BACKBONE|DICT|INTERRES
   195   99  100 1    
   196   99  220 1    
   197  100  101 1    
   198  100  102 1    
   199  100  221 1    
   200  101  222 1    
   201  101  223 1    
   202  101  224 1    
   203  102  103 2    
   204  102  104 am   BACKBONE|DICT|INTERRES
   205  104  105 1    
   206  104  225 1    
   207  105  106 1    
   208  105  107 1    
   209  105  226 1    
   210  106  227 1    
   211  106  228 1    
   212  106  229 1    
   213  107  108 2    
   214  107  109 am   BACKBONE|DICT|INTERRES
   215  109  110 1    
   216  109  230 1    
   217  110  111 1    
   218  110  112 1    
   219  110  231 1    
   220  111  232 1    
   221  111  233 1    
   222  111  234 1    
   223  112  113 2    
   224  112  114 am   BACKBONE|DICT|INTERRES
   225  114  115 1    
   226  114  235 1    
   227  115  116 1    
   228  115  117 1    
   229  115  236 1    
   230  116  237 1    
   231  116  238 1    
   232  116  239 1    
   233  117  118 2    
   234  117  119 am   BACKBONE|DICT|INTERRES
   235  119  120 1    
   236  119  240 1    
   237  120  121 1    
   238  120  124 1    
   239  120  241 1    
   240  121  122 am   BACKBONE|DICT|INTERRES
   241  121  123 2    
   242  122  242 1    
   243  122  243 1    
   244  124  125 1    
   245  124  244 1    
   246  124  245 1    
   247  125  126 1    
   248  126  246 1    
   249  126  247 1    
@<TRIPOS>SUBSTRUCTURE
     1 UNK         1 GROUP             0       ****    0 ROOT    
