@<TRIPOS>MOLECULE
3R540
247   249    1
SMALL
USER_CHARGES


@<TRIPOS>ATOM
      1 CA         -2.0772  -14.5699  -43.5286 C.3       0 UNK        -0.1800 
      2 C          -2.3119  -13.3254  -44.3689 C.2       0 UNK         0.5000 
      3 O          -2.6686  -12.2775  -43.8304 O.2       0 UNK        -0.5000 
      4 N          -2.1224  -13.4413  -45.6903 N.am      1 UNK        -0.5000 
      5 CA         -2.2388  -12.3348  -46.6482 C.3       1 UNK         0.1400 
      6 C6         -2.4578  -12.8304  -48.0987 C.3       23 UNK        -0.0398 
      7 S7         -1.1709  -13.9671  -48.7317 S.3       23 UNK        -0.2404 
      8 C8         -2.0081  -15.5833  -48.6539 C.3       23 UNK        -0.0205 
      9 C9         -1.5367  -16.4918  -49.7773 C.ar      23 UNK        -0.0193 
     10 C10        -2.2265  -16.5110  -50.9929 C.ar      23 UNK        -0.1150 
     11 C11        -1.7889  -17.3195  -52.0450 C.ar      23 UNK        -0.0193 
     12 C12        -0.6541  -18.1155  -51.8714 C.ar      23 UNK        -0.1150 
     13 C13         0.0344  -18.1216  -50.6553 C.ar      23 UNK        -0.0193 
     14 C14        -0.4094  -17.3020  -49.6118 C.ar      23 UNK        -0.1150 
     15 C15         1.2732  -18.9917  -50.4945 C.3       23 UNK        -0.0205 
     16 S16         0.8594  -20.6977  -50.0067 S.3       23 UNK        -0.2404 
     17 C17         0.6678  -20.5015  -48.2052 C.3       23 UNK        -0.0398 
     18 CA         -0.3290  -21.4859  -47.5512 C.3       11 UNK         0.1400 
     19 N          -0.2057  -21.4521  -46.0912 N.am      11 UNK        -0.5000 
     20 C          -0.8312  -22.2738  -45.2375 C.2       10 UNK         0.5000 
     21 O          -1.5622  -23.1982  -45.5875 O.2       10 UNK        -0.5000 
     22 CA         -0.6494  -21.9828  -43.7371 C.3       10 UNK         0.1400 
     23 CB          0.6963  -22.5246  -43.2329 C.3       10 UNK        -0.1800 
     24 N          -0.7559  -20.5571  -43.4255 N.am      10 UNK        -0.5000 
     25 C          -1.8588  -19.8181  -43.6137 C.2       9 UNK         0.5000 
     26 O          -2.9256  -20.2734  -44.0238 O.2       9 UNK        -0.5000 
     27 CA         -1.7328  -18.3059  -43.3590 C.3       9 UNK         0.1400 
     28 CB         -1.7943  -17.9868  -41.8580 C.3       9 UNK        -0.1800 
     29 N          -0.5100  -17.7465  -43.9363 N.am      9 UNK        -0.5000 
     30 C          -0.2336  -17.7272  -45.2483 C.2       8 UNK         0.5000 
     31 O          -1.0041  -18.1279  -46.1187 O.2       8 UNK        -0.5000 
     32 CA          1.1561  -17.2142  -45.6544 C.3       8 UNK         0.1400 
     33 CB          1.1614  -15.6814  -45.7512 C.3       8 UNK        -0.1800 
     34 N           2.1913  -17.6723  -44.7271 N.am      8 UNK        -0.5000 
     35 C           2.5919  -18.9493  -44.6295 C.2       7 UNK         0.5000 
     36 O           2.1522  -19.8566  -45.3349 O.2       7 UNK        -0.5000 
     37 CA          3.6193  -19.2767  -43.5311 C.3       7 UNK         0.1400 
     38 CB          5.0433  -18.9554  -44.0079 C.3       7 UNK        -0.1800 
     39 N           3.3513  -18.5624  -42.2832 N.am      7 UNK        -0.5000 
     40 C           2.2683  -18.7525  -41.5156 C.2       6 UNK         0.5000 
     41 O           1.4055  -19.5973  -41.7505 O.2       6 UNK        -0.5000 
     42 CA          2.0952  -17.8021  -40.3151 C.3       6 UNK         0.1400 
     43 CB          2.7667  -18.3853  -39.0634 C.3       6 UNK        -0.1800 
     44 N           2.6199  -16.4566  -40.5665 N.am      6 UNK        -0.5000 
     45 C           2.1642  -15.6282  -41.5148 C.2       5 UNK         0.5000 
     46 O           1.2256  -15.9019  -42.2668 O.2       5 UNK        -0.5000 
     47 CA          2.9018  -14.2886  -41.6646 C.3       5 UNK         0.1400 
     48 CB          3.2297  -13.9914  -43.1337 C.3       5 UNK        -0.1800 
     49 N           2.0990  -13.1981  -41.1232 N.am      5 UNK        -0.5000 
     50 C           2.0229  -12.8954  -39.8204 C.2       4 UNK         0.5000 
     51 O           2.6240  -13.5272  -38.9489 O.2       4 UNK        -0.5000 
     52 CA          1.1312  -11.6991  -39.4164 C.3       4 UNK         0.1400 
     53 CB          1.6545  -10.9701  -38.1607 C.3       4 UNK        -0.1800 
     54 N           0.8733  -10.7396  -40.4975 N.am      4 UNK        -0.5000 
     55 C           1.7659   -9.9968  -41.1691 C.2       3 UNK         0.5000 
     56 O           2.9832  -10.0208  -40.9769 O.2       3 UNK        -0.5000 
     57 CA          1.1801   -9.0789  -42.2606 C.3       3 UNK         0.1400 
     58 CB          1.7461   -7.6531  -42.1501 C.3       3 UNK        -0.1800 
     59 N           1.3871   -9.5666  -43.6276 N.am      3 UNK        -0.5000 
     60 C           1.0775  -10.7817  -44.0996 C.2       2 UNK         0.5000 
     61 O           0.6863  -11.7218  -43.4021 O.2       2 UNK        -0.5000 
     62 CA          1.2068  -10.9733  -45.6204 C.3       2 UNK         0.1400 
     63 CB          2.5329  -11.6513  -45.9954 C.3       2 UNK        -0.1800 
     64 N           0.0949  -11.8016  -46.0762 N.am      2 UNK        -0.5000 
     65 C          -1.0708  -11.3283  -46.5359 C.2       1 UNK         0.5000 
     66 O          -1.2613  -10.1466  -46.8284 O.2       1 UNK        -0.5000 
     67 C          -1.7854  -21.2490  -48.0100 C.2       11 UNK         0.5000 
     68 O          -2.3036  -22.0259  -48.8123 O.2       11 UNK        -0.5000 
     69 N          -2.4390  -20.2227  -47.4469 N.am      12 UNK        -0.5000 
     70 CA         -3.8424  -19.8960  -47.6989 C.3       12 UNK         0.1400 
     71 CB         -4.1815  -18.5508  -47.0401 C.3       12 UNK        -0.1800 
     72 C          -4.8144  -20.9950  -47.2285 C.2       12 UNK         0.5000 
     73 O          -5.7761  -21.2907  -47.9379 O.2       12 UNK        -0.5000 
     74 N          -4.5409  -21.5906  -46.0585 N.am      13 UNK        -0.5000 
     75 CA         -5.3093  -22.7003  -45.4910 C.3       13 UNK         0.1400 
     76 CB         -4.8925  -22.9229  -44.0292 C.3       13 UNK        -0.1800 
     77 C          -5.1683  -24.0013  -46.3026 C.2       13 UNK         0.5000 
     78 O          -6.1627  -24.6992  -46.5059 O.2       13 UNK        -0.5000 
     79 N          -3.9443  -24.2956  -46.7621 N.am      14 UNK        -0.5000 
     80 CA         -3.6280  -25.4251  -47.6380 C.3       14 UNK         0.1400 
     81 CB         -2.1033  -25.5957  -47.7038 C.3       14 UNK        -0.1800 
     82 C          -4.2180  -25.2695  -49.0519 C.2       14 UNK         0.5000 
     83 O          -4.5746  -26.2728  -49.6722 O.2       14 UNK        -0.5000 
     84 N          -4.3160  -24.0190  -49.5268 N.am      15 UNK        -0.5000 
     85 CA         -4.8489  -23.6010  -50.8230 C.3       15 UNK         0.1400 
     86 CB         -6.3795  -23.8026  -50.8703 C.3       15 UNK        -0.1800 
     87 C          -4.0782  -24.2788  -51.9708 C.2       15 UNK         0.5000 
     88 O          -2.8582  -24.1353  -52.0268 O.2       15 UNK        -0.5000 
     89 N          -4.7695  -25.0390  -52.8304 N.am      16 UNK        -0.5000 
     90 CA         -4.2160  -25.7626  -53.9809 C.3       16 UNK         0.1400 
     91 CB         -5.3727  -26.4300  -54.7410 C.3       16 UNK        -0.1800 
     92 C          -3.1147  -26.7960  -53.6545 C.2       16 UNK         0.5000 
     93 O          -2.3974  -27.2120  -54.5648 O.2       16 UNK        -0.5000 
     94 N          -2.9877  -27.1948  -52.3810 N.am      17 UNK        -0.5000 
     95 CA         -1.9205  -28.0718  -51.8993 C.3       17 UNK         0.1400 
     96 CB         -2.3885  -28.7712  -50.6136 C.3       17 UNK        -0.1800 
     97 C          -0.5768  -27.3436  -51.6742 C.2       17 UNK         0.5000 
     98 O           0.4362  -28.0246  -51.5062 O.2       17 UNK        -0.5000 
     99 N          -0.5734  -26.0020  -51.6624 N.am      18 UNK        -0.5000 
    100 CA         0.6188  -25.1767  -51.4455 C.3       18 UNK         0.1400 
    101 CB         0.5643  -24.5613  -50.0379 C.3       18 UNK        -0.1800 
    102 C          0.7557  -24.0770  -52.5099 C.2       18 UNK         0.5000 
    103 O          1.8403  -23.8988  -53.0664 O.2       18 UNK        -0.5000 
    104 N         -0.3403  -23.3603  -52.7710 N.am      19 UNK        -0.5000 
    105 CA        -0.4464  -22.2870  -53.7507 C.3       19 UNK         0.1400 
    106 CB        -1.4762  -21.2738  -53.2272 C.3       19 UNK        -0.1800 
    107 C         -0.9088  -22.8330  -55.1102 C.2       19 UNK         0.5000 
    108 O         -1.3659  -23.9741  -55.2063 O.2       19 UNK        -0.5000 
    109 N         -0.8702  -21.9737  -56.1353 N.am      20 UNK        -0.5000 
    110 CA        -1.3759  -22.2338  -57.4879 C.3       20 UNK         0.1400 
    111 CB        -0.6678  -21.2789  -58.4664 C.3       20 UNK        -0.1800 
    112 C         -2.9195  -22.1456  -57.5829 C.2       20 UNK         0.5000 
    113 O         -3.4456  -21.5501  -58.5246 O.2       20 UNK        -0.5000 
    114 N         -3.6121  -22.7349  -56.5966 N.am      21 UNK        -0.5000 
    115 CA        -5.0688  -22.8235  -56.4390 C.3       21 UNK         0.1400 
    116 CB        -5.6606  -23.7851  -57.4899 C.3       21 UNK        -0.1800 
    117 C         -5.7762  -21.4510  -56.4050 C.2       21 UNK         0.5000 
    118 O         -6.8405  -21.2874  -57.0058 O.2       21 UNK        -0.5000 
    119 N         -5.1649  -20.4848  -55.7072 N.am      22 UNK        -0.5000 
    120 CA        -5.7140  -19.1382  -55.4898 C.3       22 UNK         0.1400 
    121 C         -6.9786  -19.1118  -54.5797 C.2       22 UNK         0.5000 
    122 N         -7.7839  -18.0607  -54.6632 N.am      22 UNK        -0.7600 
    123 O         -7.2297  -20.0176  -53.7870 O.2       22 UNK        -0.5000 
    124 C124       -4.6211  -18.1447  -55.0155 C.3       23 UNK        -0.0398 
    125 S125       -3.8546  -18.5547  -53.4092 S.3       23 UNK        -0.2404 
    126 C126       -2.5277  -17.3119  -53.3739 C.3       23 UNK        -0.0205 
    127 H127       -2.0645  -15.4633  -44.1499 H         1 UNK         0.0600 
    128 H128       -2.8680  -14.6852  -42.7876 H         1 UNK         0.0600 
    129 H129       -1.1228  -14.4972  -43.0062 H         1 UNK         0.0600 
    130 H130       -1.8467  -14.3289  -46.0823 H         1 UNK         0.3000 
    131 H131       -3.1367  -11.7741  -46.3784 H         1 UNK         0.0600 
    132 H132       -3.4344  -13.3100  -48.1671 H         1 UNK         0.0800 
    133 H133       -2.5173  -11.9795  -48.7799 H         1 UNK         0.0800 
    134 H134       -1.8107  -16.0463  -47.6868 H         1 UNK         0.0800 
    135 H135       -3.0900  -15.4629  -48.7213 H         1 UNK         0.0800 
    136 H136       -3.0984  -15.8858  -51.1255 H         1 UNK         0.1150 
    137 H137       -0.3009  -18.7306  -52.6858 H         1 UNK         0.1150 
    138 H138        0.1260  -17.2803  -48.6746 H         1 UNK         0.1150 
    139 H139        1.8170  -19.0247  -51.4397 H         1 UNK         0.0800 
    140 H140        1.9601  -18.5534  -49.7688 H         1 UNK         0.0800 
    141 H141        1.6596  -20.6474  -47.7763 H         1 UNK         0.0800 
    142 H142        0.3891  -19.4759  -47.9702 H         1 UNK         0.0800 
    143 H143       -0.0527  -22.4954  -47.8613 H         1 UNK         0.0600 
    144 H144        0.4179  -20.7467  -45.7115 H         1 UNK         0.3000 
    145 H145       -1.4461  -22.5009  -43.1995 H         1 UNK         0.0600 
    146 H146        0.7943  -22.3928  -42.1552 H         1 UNK         0.0600 
    147 H147        0.7906  -23.5911  -43.4407 H         1 UNK         0.0600 
    148 H148        1.5383  -22.0207  -43.7081 H         1 UNK         0.0600 
    149 H149        0.0687  -20.1150  -43.0286 H         1 UNK         0.3000 
    150 H150       -2.5820  -17.8195  -43.8430 H         1 UNK         0.0600 
    151 H151       -2.7408  -18.3188  -41.4300 H         1 UNK         0.0600 
    152 H152       -1.7118  -16.9153  -41.6763 H         1 UNK         0.0600 
    153 H153       -0.9960  -18.4810  -41.3055 H         1 UNK         0.0600 
    154 H154        0.1656  -17.3500  -43.2918 H         1 UNK         0.3000 
    155 H155        1.3917  -17.6145  -46.6422 H         1 UNK         0.0600 
    156 H156        2.1586  -15.2993  -45.9696 H         1 UNK         0.0600 
    157 H157        0.8116  -15.2165  -44.8299 H         1 UNK         0.0600 
    158 H158        0.5041  -15.3454  -46.5530 H         1 UNK         0.0600 
    159 H159        2.5491  -16.9944  -44.0713 H         1 UNK         0.3000 
    160 H160        3.5597  -20.3481  -43.3278 H         1 UNK         0.0600 
    161 H161        5.1744  -17.8903  -44.2028 H         1 UNK         0.0600 
    162 H162        5.2748  -19.4891  -44.9307 H         1 UNK         0.0600 
    163 H163        5.7841  -19.2551  -43.2664 H         1 UNK         0.0600 
    164 H164        4.0143  -17.8522  -42.0105 H         1 UNK         0.3000 
    165 H165        1.0254  -17.7107  -40.1178 H         1 UNK         0.0600 
    166 H166        3.8463  -18.4757  -39.1895 H         1 UNK         0.0600 
    167 H167        2.5812  -17.7607  -38.1893 H         1 UNK         0.0600 
    168 H168        2.3775  -19.3795  -38.8394 H         1 UNK         0.0600 
    169 H169        3.3681  -16.1431  -39.9642 H         1 UNK         0.3000 
    170 H170        3.8491  -14.3412  -41.1234 H         1 UNK         0.0600 
    171 H171        3.8181  -14.7942  -43.5794 H         1 UNK         0.0600 
    172 H172        2.3210  -13.8791  -43.7214 H         1 UNK         0.0600 
    173 H173        3.8042  -13.0700  -43.2303 H         1 UNK         0.0600 
    174 H174        1.5537  -12.6604  -41.7898 H         1 UNK         0.3000 
    175 H175        0.1616  -12.1296  -39.1625 H         1 UNK         0.0600 
    176 H176        1.0011  -10.1428  -37.8836 H         1 UNK         0.0600 
    177 H177        1.6999  -11.6442  -37.3046 H         1 UNK         0.0600 
    178 H178        2.6569  -10.5695  -38.3139 H         1 UNK         0.0600 
    179 H179       -0.0937  -10.6771  -40.7853 H         1 UNK         0.3000 
    180 H180        0.1010   -9.0133  -42.1067 H         1 UNK         0.0600 
    181 H181        1.2426   -6.9729  -42.8373 H         1 UNK         0.0600 
    182 H182        1.6094   -7.2554  -41.1435 H         1 UNK         0.0600 
    183 H183        2.8138   -7.6249  -42.3717 H         1 UNK         0.0600 
    184 H184        1.7319   -8.8789  -44.2814 H         1 UNK         0.3000 
    185 H185        1.1751   -9.9955  -46.1059 H         1 UNK         0.0600 
    186 H186        2.6634  -11.6751  -47.0773 H         1 UNK         0.0600 
    187 H187        3.3837  -11.1127  -45.5764 H         1 UNK         0.0600 
    188 H188        2.5817  -12.6784  -45.6382 H         1 UNK         0.0600 
    189 H189        0.1277  -12.7698  -45.7949 H         1 UNK         0.3000 
    190 H190       -1.9366  -19.6013  -46.8177 H         1 UNK         0.3000 
    191 H191       -3.9658  -19.7846  -48.7783 H         1 UNK         0.0600 
    192 H192       -5.2209  -18.2758  -47.2227 H         1 UNK         0.0600 
    193 H193       -3.5589  -17.7521  -47.4403 H         1 UNK         0.0600 
    194 H194       -4.0321  -18.5814  -45.9605 H         1 UNK         0.0600 
    195 H195       -3.7660  -21.2425  -45.5010 H         1 UNK         0.3000 
    196 H196       -6.3638  -22.4167  -45.5007 H         1 UNK         0.0600 
    197 H197       -5.4619  -23.7374  -43.5797 H         1 UNK         0.0600 
    198 H198       -5.0714  -22.0309  -43.4287 H         1 UNK         0.0600 
    199 H199       -3.8352  -23.1753  -43.9457 H         1 UNK         0.0600 
    200 H200       -3.1632  -23.7042  -46.4895 H         1 UNK         0.3000 
    201 H201       -4.0552  -26.3291  -47.1996 H         1 UNK         0.0600 
    202 H202       -1.6931  -25.8409  -46.7241 H         1 UNK         0.0600 
    203 H203       -1.6188  -24.6819  -48.0462 H         1 UNK         0.0600 
    204 H204       -1.8172  -26.3955  -48.3861 H         1 UNK         0.0600 
    205 H205       -3.8762  -23.2796  -48.9883 H         1 UNK         0.3000 
    206 H206       -4.6486  -22.5319  -50.9077 H         1 UNK         0.0600 
    207 H207       -6.8620  -23.2668  -50.0524 H         1 UNK         0.0600 
    208 H208       -6.8007  -23.4127  -51.7979 H         1 UNK         0.0600 
    209 H209       -6.6629  -24.8522  -50.7851 H         1 UNK         0.0600 
    210 H210       -5.7617  -25.1431  -52.6757 H         1 UNK         0.3000 
    211 H211       -3.7604  -25.0227  -54.6390 H         1 UNK         0.0600 
    212 H212       -5.8745  -27.1795  -54.1278 H         1 UNK         0.0600 
    213 H213       -5.0133  -26.9296  -55.6417 H         1 UNK         0.0600 
    214 H214       -6.1178  -25.6988  -55.0543 H         1 UNK         0.0600 
    215 H215       -3.6155  -26.8154  -51.6823 H         1 UNK         0.3000 
    216 H216       -1.7419  -28.8474  -52.6472 H         1 UNK         0.0600 
    217 H217       -1.6366  -29.4747  -50.2540 H         1 UNK         0.0600 
    218 H218       -3.3053  -29.3359  -50.7835 H         1 UNK         0.0600 
    219 H219       -2.5791  -28.0593  -49.8124 H         1 UNK         0.0600 
    220 H220       -1.4411  -25.5066  -51.8415 H         1 UNK         0.3000 
    221 H221        1.5216  -25.7874  -51.5099 H         1 UNK         0.0600 
    222 H222       -0.3212  -23.9371  -49.9110 H         1 UNK         0.0600 
    223 H223        0.5470  -25.3344  -49.2699 H         1 UNK         0.0600 
    224 H224        1.4367  -23.9343  -49.8500 H         1 UNK         0.0600 
    225 H225       -1.2213  -23.6199  -52.3313 H         1 UNK         0.3000 
    226 H226        0.5194  -21.7916  -53.8692 H         1 UNK         0.0600 
    227 H227       -1.2329  -20.9453  -52.2170 H         1 UNK         0.0600 
    228 H228       -1.5103  -20.3886  -53.8616 H         1 UNK         0.0600 
    229 H229       -2.4826  -21.6929  -53.1996 H         1 UNK         0.0600 
    230 H230       -0.5174  -21.0418  -55.9718 H         1 UNK         0.3000 
    231 H231       -1.1030  -23.2532  -57.7689 H         1 UNK         0.0600 
    232 H232       -0.9552  -21.4877  -59.4977 H         1 UNK         0.0600 
    233 H233        0.4155  -21.3862  -58.4080 H         1 UNK         0.0600 
    234 H234       -0.9141  -20.2367  -58.2598 H         1 UNK         0.0600 
    235 H235       -3.0584  -23.2173  -55.8962 H         1 UNK         0.3000 
    236 H236       -5.2437  -23.2647  -55.4573 H         1 UNK         0.0600 
    237 H237       -5.5639  -23.3872  -58.5005 H         1 UNK         0.0600 
    238 H238       -5.1619  -24.7540  -57.4623 H         1 UNK         0.0600 
    239 H239       -6.7209  -23.9627  -57.3065 H         1 UNK         0.0600 
    240 H240       -4.3066  -20.6973  -55.2222 H         1 UNK         0.3000 
    241 H241       -6.0455  -18.7883  -56.4697 H         1 UNK         0.0600 
    242 H242       -8.6019  -18.0259  -54.0746 H         1 UNK         0.3800 
    243 H243       -7.6065  -17.3032  -55.3046 H         1 UNK         0.3800 
    244 H244       -3.8325  -18.0965  -55.7678 H         1 UNK         0.0800 
    245 H245       -5.0295  -17.1347  -54.9544 H         1 UNK         0.0800 
    246 H246       -1.8306  -17.5029  -54.1913 H         1 UNK         0.0800 
    247 H247       -2.9511  -16.3226  -53.5546 H         1 UNK         0.0800 
@<TRIPOS>BOND
     1    1    2 1    
     2    1  127 1    
     3    1  128 1    
     4    1  129 1    
     5    2    3 2    
     6    2    4 am   BACKBONE|DICT|INTERRES
     7    4    5 1    
     8    4  130 1    
     9    5    6 1    
    10    5   65 1    
    11    5  131 1    
    12    6    7 1    
    13    6  132 1    
    14    6  133 1    
    15    7    8 1    
    16    8    9 1    
    17    8  134 1    
    18    8  135 1    
    19    9   10 ar   
    20    9   14 ar   
    21   10   11 ar   
    22   10  136 1    
    23   11   12 ar   
    24   11  126 1    
    25   12   13 ar   
    26   12  137 1    
    27   13   14 ar   
    28   13   15 1    
    29   14  138 1    
    30   15   16 1    
    31   15  139 1    
    32   15  140 1    
    33   16   17 1    
    34   17   18 1    
    35   17  141 1    
    36   17  142 1    
    37   18   19 1    
    38   18   67 1    
    39   18  143 1    
    40   19   20 am   BACKBONE|DICT|INTERRES
    41   19  144 1    
    42   20   21 2    
    43   20   22 1    
    44   22   23 1    
    45   22   24 1    
    46   22  145 1    
    47   23  146 1    
    48   23  147 1    
    49   23  148 1    
    50   24   25 am   BACKBONE|DICT|INTERRES
    51   24  149 1    
    52   25   26 2    
    53   25   27 1    
    54   27   28 1    
    55   27   29 1    
    56   27  150 1    
    57   28  151 1    
    58   28  152 1    
    59   28  153 1    
    60   29   30 am   BACKBONE|DICT|INTERRES
    61   29  154 1    
    62   30   31 2    
    63   30   32 1    
    64   32   33 1    
    65   32   34 1    
    66   32  155 1    
    67   33  156 1    
    68   33  157 1    
    69   33  158 1    
    70   34   35 am   BACKBONE|DICT|INTERRES
    71   34  159 1    
    72   35   36 2    
    73   35   37 1    
    74   37   38 1    
    75   37   39 1    
    76   37  160 1    
    77   38  161 1    
    78   38  162 1    
    79   38  163 1    
    80   39   40 am   BACKBONE|DICT|INTERRES
    81   39  164 1    
    82   40   41 2    
    83   40   42 1    
    84   42   43 1    
    85   42   44 1    
    86   42  165 1    
    87   43  166 1    
    88   43  167 1    
    89   43  168 1    
    90   44   45 am   BACKBONE|DICT|INTERRES
    91   44  169 1    
    92   45   46 2    
    93   45   47 1    
    94   47   48 1    
    95   47   49 1    
    96   47  170 1    
    97   48  171 1    
    98   48  172 1    
    99   48  173 1    
   100   49   50 am   BACKBONE|DICT|INTERRES
   101   49  174 1    
   102   50   51 2    
   103   50   52 1    
   104   52   53 1    
   105   52   54 1    
   106   52  175 1    
   107   53  176 1    
   108   53  177 1    
   109   53  178 1    
   110   54   55 am   BACKBONE|DICT|INTERRES
   111   54  179 1    
   112   55   56 2    
   113   55   57 1    
   114   57   58 1    
   115   57   59 1    
   116   57  180 1    
   117   58  181 1    
   118   58  182 1    
   119   58  183 1    
   120   59   60 am   BACKBONE|DICT|INTERRES
   121   59  184 1    
   122   60   61 2    
   123   60   62 1    
   124   62   63 1    
   125   62   64 1    
   126   62  185 1    
   127   63  186 1    
   128   63  187 1    
   129   63  188 1    
   130   64   65 am   BACKBONE|DICT|INTERRES
   131   64  189 1    
   132   65   66 2    
   133   67   68 2    
   134   67   69 am   BACKBONE|DICT|INTERRES
   135   69   70 1    
   136   69  190 1    
   137   70   71 1    
   138   70   72 1    
   139   70  191 1    
   140   71  192 1    
   141   71  193 1    
   142   71  194 1    
   143   72   73 2    
   144   72   74 am   BACKBONE|DICT|INTERRES
   145   74   75 1    
   146   74  195 1    
   147   75   76 1    
   148   75   77 1    
   149   75  196 1    
   150   76  197 1    
   151   76  198 1    
   152   76  199 1    
   153   77   78 2    
   154   77   79 am   BACKBONE|DICT|INTERRES
   155   79   80 1    
   156   79  200 1    
   157   80   81 1    
   158   80   82 1    
   159   80  201 1    
   160   81  202 1    
   161   81  203 1    
   162   81  204 1    
   163   82   83 2    
   164   82   84 am   BACKBONE|DICT|INTERRES
   165   84   85 1    
   166   84  205 1    
   167   85   86 1    
   168   85   87 1    
   169   85  206 1    
   170   86  207 1    
   171   86  208 1    
   172   86  209 1    
   173   87   88 2    
   174   87   89 am   BACKBONE|DICT|INTERRES
   175   89   90 1    
   176   89  210 1    
   177   90   91 1    
   178   90   92 1    
   179   90  211 1    
   180   91  212 1    
   181   91  213 1    
   182   91  214 1    
   183   92   93 2    
   184   92   94 am   BACKBONE|DICT|INTERRES
   185   94   95 1    
   186   94  215 1    
   187   95   96 1    
   188   95   97 1    
   189   95  216 1    
   190   96  217 1    
   191   96  218 1    
   192   96  219 1    
   193   97   98 2    
   194   97   99 am   BACKBONE|DICT|INTERRES
   195   99  100 1    
   196   99  220 1    
   197  100  101 1    
   198  100  102 1    
   199  100  221 1    
   200  101  222 1    
   201  101  223 1    
   202  101  224 1    
   203  102  103 2    
   204  102  104 am   BACKBONE|DICT|INTERRES
   205  104  105 1    
   206  104  225 1    
   207  105  106 1    
   208  105  107 1    
   209  105  226 1    
   210  106  227 1    
   211  106  228 1    
   212  106  229 1    
   213  107  108 2    
   214  107  109 am   BACKBONE|DICT|INTERRES
   215  109  110 1    
   216  109  230 1    
   217  110  111 1    
   218  110  112 1    
   219  110  231 1    
   220  111  232 1    
   221  111  233 1    
   222  111  234 1    
   223  112  113 2    
   224  112  114 am   BACKBONE|DICT|INTERRES
   225  114  115 1    
   226  114  235 1    
   227  115  116 1    
   228  115  117 1    
   229  115  236 1    
   230  116  237 1    
   231  116  238 1    
   232  116  239 1    
   233  117  118 2    
   234  117  119 am   BACKBONE|DICT|INTERRES
   235  119  120 1    
   236  119  240 1    
   237  120  121 1    
   238  120  124 1    
   239  120  241 1    
   240  121  122 am   BACKBONE|DICT|INTERRES
   241  121  123 2    
   242  122  242 1    
   243  122  243 1    
   244  124  125 1    
   245  124  244 1    
   246  124  245 1    
   247  125  126 1    
   248  126  246 1    
   249  126  247 1    
@<TRIPOS>SUBSTRUCTURE
     1 UNK         1 GROUP             0       ****    0 ROOT    
