@<TRIPOS>MOLECULE
3R540
247   249    1
SMALL
USER_CHARGES


@<TRIPOS>ATOM
      1 CA          6.0404  -12.5030  -46.3782 C.3       0 UNK        -0.1800 
      2 C           4.9357  -13.5206  -46.6185 C.2       0 UNK         0.5000 
      3 O           3.8322  -13.3610  -46.0966 O.2       0 UNK        -0.5000 
      4 N           5.2149  -14.5553  -47.4225 N.am      1 UNK        -0.5000 
      5 CA          4.2796  -15.6349  -47.7678 C.3       1 UNK         0.1400 
      6 C6          4.9683  -16.7707  -48.5670 C.3       23 UNK        -0.0398 
      7 S7          5.6893  -16.2259  -50.1614 S.3       23 UNK        -0.2404 
      8 C8          5.2194  -17.5674  -51.3040 C.3       23 UNK        -0.0205 
      9 C9          3.7138  -17.7786  -51.4018 C.ar      23 UNK        -0.0193 
     10 C10         2.8908  -16.8022  -51.9727 C.ar      23 UNK        -0.1150 
     11 C11         1.5082  -16.9998  -52.0653 C.ar      23 UNK        -0.0193 
     12 C12         0.9570  -18.1951  -51.5910 C.ar      23 UNK        -0.1150 
     13 C13         1.7665  -19.1733  -51.0076 C.ar      23 UNK        -0.0193 
     14 C14         3.1450  -18.9636  -50.9266 C.ar      23 UNK        -0.1150 
     15 C15         1.1505  -20.4384  -50.4315 C.3       23 UNK        -0.0205 
     16 S16         1.1014  -20.3309  -48.6176 S.3       23 UNK        -0.2404 
     17 C17        -0.3332  -21.3682  -48.1631 C.3       23 UNK        -0.0398 
     18 CA          0.0307  -22.7381  -47.5277 C.3       11 UNK         0.1400 
     19 N           1.1752  -22.6461  -46.6172 N.am      11 UNK        -0.5000 
     20 C           1.7080  -23.6341  -45.8861 C.2       10 UNK         0.5000 
     21 O           1.3480  -24.8072  -45.9613 O.2       10 UNK        -0.5000 
     22 CA          2.7826  -23.2395  -44.8522 C.3       10 UNK         0.1400 
     23 CB          4.1773  -23.6450  -45.3507 C.3       10 UNK        -0.1800 
     24 N           2.7959  -21.8134  -44.5019 N.am      10 UNK        -0.5000 
     25 C           1.7696  -21.1221  -43.9853 C.2       9 UNK         0.5000 
     26 O           0.6615  -21.6138  -43.7502 O.2       9 UNK        -0.5000 
     27 CA          2.0181  -19.6169  -43.7834 C.3       9 UNK         0.1400 
     28 CB          1.9892  -18.8858  -45.1361 C.3       9 UNK        -0.1800 
     29 N           1.0272  -19.0048  -42.9039 N.am      9 UNK        -0.5000 
     30 C           0.9205  -19.2023  -41.5868 C.2       8 UNK         0.5000 
     31 O           1.7192  -19.8760  -40.9339 O.2       8 UNK        -0.5000 
     32 CA         -0.2729  -18.5400  -40.8660 C.3       8 UNK         0.1400 
     33 CB          0.0536  -17.0814  -40.4905 C.3       8 UNK        -0.1800 
     34 N          -1.5691  -18.6315  -41.5596 N.am      8 UNK        -0.5000 
     35 C          -1.9452  -18.0793  -42.7218 C.2       7 UNK         0.5000 
     36 O          -1.1952  -17.4264  -43.4478 O.2       7 UNK        -0.5000 
     37 CA         -3.4134  -18.2789  -43.1223 C.3       7 UNK         0.1400 
     38 CB         -4.3214  -17.3145  -42.3421 C.3       7 UNK        -0.1800 
     39 N          -3.5781  -18.0176  -44.5496 N.am      7 UNK        -0.5000 
     40 C          -4.1503  -18.8501  -45.4263 C.2       6 UNK         0.5000 
     41 O          -4.6235  -19.9431  -45.1145 O.2       6 UNK        -0.5000 
     42 CA         -4.2453  -18.3967  -46.8974 C.3       6 UNK         0.1400 
     43 CB         -5.7078  -18.1188  -47.2802 C.3       6 UNK        -0.1800 
     44 N          -3.4557  -17.2129  -47.2329 N.am      6 UNK        -0.5000 
     45 C          -2.1225  -17.1705  -47.3336 C.2       5 UNK         0.5000 
     46 O          -1.3908  -18.1181  -47.0477 O.2       5 UNK        -0.5000 
     47 CA         -1.4979  -15.8601  -47.8567 C.3       5 UNK         0.1400 
     48 CB         -2.5155  -14.8043  -48.3492 C.3       5 UNK        -0.1800 
     49 N          -0.5875  -15.2600  -46.8844 N.am      5 UNK        -0.5000 
     50 C          -0.8782  -14.8374  -45.6456 C.2       4 UNK         0.5000 
     51 O          -1.9948  -14.9178  -45.1298 O.2       4 UNK        -0.5000 
     52 CA          0.2667  -14.1376  -44.8860 C.3       4 UNK         0.1400 
     53 CB          1.3276  -15.1386  -44.4061 C.3       4 UNK        -0.1800 
     54 N           0.9242  -13.1229  -45.7085 N.am      4 UNK        -0.5000 
     55 C           0.3582  -11.9817  -46.1252 C.2       3 UNK         0.5000 
     56 O          -0.7598  -11.5997  -45.7785 O.2       3 UNK        -0.5000 
     57 CA          1.1760  -11.1372  -47.1169 C.3       3 UNK         0.1400 
     58 CB          2.2139  -10.2713  -46.3852 C.3       3 UNK        -0.1800 
     59 N           1.8463  -11.9861  -48.1021 N.am      3 UNK        -0.5000 
     60 C           1.2434  -12.4989  -49.1843 C.2       2 UNK         0.5000 
     61 O           0.0872  -12.2314  -49.5103 O.2       2 UNK        -0.5000 
     62 CA          2.0640  -13.4653  -50.0584 C.3       2 UNK         0.1400 
     63 CB          2.6342  -12.7367  -51.2843 C.3       2 UNK        -0.1800 
     64 N           3.1574  -14.1144  -49.3381 N.am      2 UNK        -0.5000 
     65 C           3.0014  -15.1201  -48.4656 C.2       1 UNK         0.5000 
     66 O           1.9103  -15.5961  -48.1589 O.2       1 UNK        -0.5000 
     67 C          -1.2176  -23.3231  -46.8295 C.2       11 UNK         0.5000 
     68 O          -1.9415  -24.1135  -47.4347 O.2       11 UNK        -0.5000 
     69 N          -1.4294  -22.9427  -45.5597 N.am      12 UNK        -0.5000 
     70 CA         -2.5258  -23.4272  -44.7238 C.3       12 UNK         0.1400 
     71 CB         -2.6506  -22.5349  -43.4794 C.3       12 UNK        -0.1800 
     72 C          -2.3387  -24.9012  -44.3257 C.2       12 UNK         0.5000 
     73 O          -3.2940  -25.6741  -44.3930 O.2       12 UNK        -0.5000 
     74 N          -1.1029  -25.2714  -43.9596 N.am      13 UNK        -0.5000 
     75 CA         -0.7108  -26.6369  -43.5989 C.3       13 UNK         0.1400 
     76 CB          0.6851  -26.6140  -42.9572 C.3       13 UNK        -0.1800 
     77 C          -0.7464  -27.6000  -44.8005 C.2       13 UNK         0.5000 
     78 O          -1.1374  -28.7572  -44.6462 O.2       13 UNK        -0.5000 
     79 N          -0.3753  -27.0890  -45.9815 N.am      14 UNK        -0.5000 
     80 CA         -0.4431  -27.7809  -47.2694 C.3       14 UNK         0.1400 
     81 CB          0.4291  -27.0154  -48.2780 C.3       14 UNK        -0.1800 
     82 C          -1.8775  -27.9341  -47.8177 C.2       14 UNK         0.5000 
     83 O          -2.0669  -28.6646  -48.7909 O.2       14 UNK        -0.5000 
     84 N          -2.8468  -27.2320  -47.2091 N.am      15 UNK        -0.5000 
     85 CA         -4.2556  -27.1242  -47.6038 C.3       15 UNK         0.1400 
     86 CB         -4.9735  -28.4856  -47.4978 C.3       15 UNK        -0.1800 
     87 C          -4.4397  -26.4426  -48.9773 C.2       15 UNK         0.5000 
     88 O          -5.3863  -26.7479  -49.7041 O.2       15 UNK        -0.5000 
     89 N          -3.5367  -25.5060  -49.2945 N.am      16 UNK        -0.5000 
     90 CA         -3.5411  -24.6925  -50.5093 C.3       16 UNK         0.1400 
     91 CB         -2.0863  -24.3879  -50.9029 C.3       16 UNK        -0.1800 
     92 C          -4.3355  -23.3854  -50.3311 C.2       16 UNK         0.5000 
     93 O          -4.4532  -22.6246  -51.2898 O.2       16 UNK        -0.5000 
     94 N          -4.8649  -23.1416  -49.1227 N.am      17 UNK        -0.5000 
     95 CA         -5.5810  -21.9394  -48.6810 C.3       17 UNK         0.1400 
     96 CB         -6.1102  -22.1866  -47.2606 C.3       17 UNK        -0.1800 
     97 C          -6.7229  -21.4604  -49.6009 C.2       17 UNK         0.5000 
     98 O          -6.9738  -20.2582  -49.6731 O.2       17 UNK        -0.5000 
     99 N          -7.3781  -22.3976  -50.2990 N.am      18 UNK        -0.5000 
    100 CA        -8.4278  -22.1186  -51.2809 C.3       18 UNK         0.1400 
    101 CB        -9.1547  -23.4297  -51.6169 C.3       18 UNK        -0.1800 
    102 C         -7.9049  -21.4486  -52.5688 C.2       18 UNK         0.5000 
    103 O         -8.6527  -20.7039  -53.2040 O.2       18 UNK        -0.5000 
    104 N         -6.6462  -21.7260  -52.9332 N.am      19 UNK        -0.5000 
    105 CA        -5.9679  -21.1646  -54.1017 C.3       19 UNK         0.1400 
    106 CB        -5.1607  -22.2756  -54.7910 C.3       19 UNK        -0.1800 
    107 C         -5.0434  -19.9995  -53.7111 C.2       19 UNK         0.5000 
    108 O         -4.9117  -19.0445  -54.4781 O.2       19 UNK        -0.5000 
    109 N         -4.4282  -20.0857  -52.5241 N.am      20 UNK        -0.5000 
    110 CA        -3.4765  -19.1317  -51.9513 C.3       20 UNK         0.1400 
    111 CB        -2.6893  -19.8416  -50.8350 C.3       20 UNK        -0.1800 
    112 C         -4.1276  -17.8192  -51.4637 C.2       20 UNK         0.5000 
    113 O         -3.8752  -17.3866  -50.3408 O.2       20 UNK        -0.5000 
    114 N         -4.9464  -17.1952  -52.3177 N.am      21 UNK        -0.5000 
    115 CA        -5.5210  -15.8678  -52.0962 C.3       21 UNK         0.1400 
    116 CB        -6.7317  -15.6851  -53.0238 C.3       21 UNK        -0.1800 
    117 C         -4.4857  -14.7484  -52.3225 C.2       21 UNK         0.5000 
    118 O         -4.5748  -13.7011  -51.6817 O.2       21 UNK        -0.5000 
    119 N         -3.5259  -15.0033  -53.2244 N.am      22 UNK        -0.5000 
    120 CA        -2.3749  -14.1449  -53.5626 C.3       22 UNK         0.1400 
    121 C         -2.7332  -12.7993  -54.2669 C.2       22 UNK         0.5000 
    122 N         -3.9396  -12.6277  -54.7933 N.am      22 UNK        -0.7600 
    123 O         -1.8964  -11.9068  -54.3742 O.2       22 UNK        -0.5000 
    124 C124       -1.3861  -13.9515  -52.3776 C.3       23 UNK        -0.0398 
    125 S125       -0.8223  -15.5252  -51.6439 S.3       23 UNK        -0.2404 
    126 C126        0.6196  -15.9269  -52.6868 C.3       23 UNK        -0.0205 
    127 H127        6.2778  -12.4533  -45.3156 H         1 UNK         0.0600 
    128 H128        5.7152  -11.5143  -46.7022 H         1 UNK         0.0600 
    129 H129        6.9514  -12.7575  -46.9202 H         1 UNK         0.0600 
    130 H130        6.1323  -14.6263  -47.8399 H         1 UNK         0.3000 
    131 H131        3.9527  -16.0691  -46.8202 H         1 UNK         0.0600 
    132 H132        5.7730  -17.1991  -47.9682 H         1 UNK         0.0800 
    133 H133        4.2641  -17.5878  -48.7266 H         1 UNK         0.0800 
    134 H134        5.7195  -18.4853  -50.9912 H         1 UNK         0.0800 
    135 H135        5.6079  -17.3340  -52.2961 H         1 UNK         0.0800 
    136 H136        3.3321  -15.8860  -52.3384 H         1 UNK         0.1150 
    137 H137       -0.1094  -18.3520  -51.6580 H         1 UNK         0.1150 
    138 H138        3.7707  -19.7195  -50.4729 H         1 UNK         0.1150 
    139 H139        0.1491  -20.5841  -50.8339 H         1 UNK         0.0800 
    140 H140        1.7345  -21.3105  -50.7285 H         1 UNK         0.0800 
    141 H141       -0.9765  -21.5172  -49.0308 H         1 UNK         0.0800 
    142 H142       -0.9193  -20.7661  -47.4655 H         1 UNK         0.0800 
    143 H143        0.3174  -23.4233  -48.3277 H         1 UNK         0.0600 
    144 H144        1.5567  -21.7187  -46.5038 H         1 UNK         0.3000 
    145 H145        2.5681  -23.7990  -43.9395 H         1 UNK         0.0600 
    146 H146        4.9377  -23.4619  -44.5912 H         1 UNK         0.0600 
    147 H147        4.2126  -24.7083  -45.5925 H         1 UNK         0.0600 
    148 H148        4.4585  -23.0946  -46.2494 H         1 UNK         0.0600 
    149 H149        3.6628  -21.3269  -44.6800 H         1 UNK         0.3000 
    150 H150        3.0048  -19.4897  -43.3337 H         1 UNK         0.0600 
    151 H151        0.9962  -18.9112  -45.5883 H         1 UNK         0.0600 
    152 H152        2.6859  -19.3277  -45.8493 H         1 UNK         0.0600 
    153 H153        2.2771  -17.8431  -45.0195 H         1 UNK         0.0600 
    154 H154        0.3040  -18.4406  -43.3444 H         1 UNK         0.3000 
    155 H155       -0.4072  -19.0891  -39.9327 H         1 UNK         0.0600 
    156 H156        0.2119  -16.4578  -41.3707 H         1 UNK         0.0600 
    157 H157        0.9617  -17.0289  -39.8887 H         1 UNK         0.0600 
    158 H158       -0.7504  -16.6359  -39.9047 H         1 UNK         0.0600 
    159 H159       -2.2619  -19.1737  -41.0624 H         1 UNK         0.3000 
    160 H160       -3.6922  -19.3061  -42.8793 H         1 UNK         0.0600 
    161 H161       -4.0613  -16.2732  -42.5376 H         1 UNK         0.0600 
    162 H162       -4.2410  -17.4778  -41.2668 H         1 UNK         0.0600 
    163 H163       -5.3679  -17.4543  -42.6137 H         1 UNK         0.0600 
    164 H164       -3.1224  -17.1799  -44.8919 H         1 UNK         0.3000 
    165 H165       -3.8822  -19.2233  -47.5107 H         1 UNK         0.0600 
    166 H166       -5.8029  -17.9076  -48.3458 H         1 UNK         0.0600 
    167 H167       -6.3441  -18.9776  -47.0675 H         1 UNK         0.0600 
    168 H168       -6.1123  -17.2685  -46.7301 H         1 UNK         0.0600 
    169 H169       -3.9755  -16.3908  -47.5011 H         1 UNK         0.3000 
    170 H170       -0.8807  -16.1450  -48.7094 H         1 UNK         0.0600 
    171 H171       -3.1376  -15.1956  -49.1536 H         1 UNK         0.0600 
    172 H172       -3.1746  -14.4576  -47.5530 H         1 UNK         0.0600 
    173 H173       -2.0004  -13.9319  -48.7510 H         1 UNK         0.0600 
    174 H174        0.3783  -15.2113  -47.2004 H         1 UNK         0.3000 
    175 H175       -0.1614  -13.6467  -44.0096 H         1 UNK         0.0600 
    176 H176        0.8838  -15.9315  -43.8059 H         1 UNK         0.0600 
    177 H177        1.8406  -15.6035  -45.2477 H         1 UNK         0.0600 
    178 H178        2.0807  -14.6477  -43.7898 H         1 UNK         0.0600 
    179 H179        1.8775  -13.3220  -45.9962 H         1 UNK         0.3000 
    180 H180        0.4880  -10.4655  -47.6352 H         1 UNK         0.0600 
    181 H181        2.9268  -10.8742  -45.8229 H         1 UNK         0.0600 
    182 H182        1.7271   -9.5987  -45.6780 H         1 UNK         0.0600 
    183 H183        2.7762   -9.6541  -47.0860 H         1 UNK         0.0600 
    184 H184        2.7827  -12.2907  -47.8772 H         1 UNK         0.3000 
    185 H185        1.3855  -14.2424  -50.4073 H         1 UNK         0.0600 
    186 H186        1.8368  -12.2795  -51.8716 H         1 UNK         0.0600 
    187 H187        3.3259  -11.9445  -50.9956 H         1 UNK         0.0600 
    188 H188        3.1664  -13.4246  -51.9412 H         1 UNK         0.0600 
    189 H189        4.0926  -13.7847  -49.5280 H         1 UNK         0.3000 
    190 H190       -0.7584  -22.3287  -45.1096 H         1 UNK         0.3000 
    191 H191       -3.4524  -23.3462  -45.2951 H         1 UNK         0.0600 
    192 H192       -2.7899  -21.4907  -43.7579 H         1 UNK         0.0600 
    193 H193       -3.5088  -22.8284  -42.8737 H         1 UNK         0.0600 
    194 H194       -1.7644  -22.5940  -42.8465 H         1 UNK         0.0600 
    195 H195       -0.3707  -24.5769  -43.9708 H         1 UNK         0.3000 
    196 H196       -1.4207  -27.0066  -42.8559 H         1 UNK         0.0600 
    197 H197        0.9825  -27.6137  -42.6381 H         1 UNK         0.0600 
    198 H198        0.7042  -25.9730  -42.0757 H         1 UNK         0.0600 
    199 H199        1.4448  -26.2536  -43.6513 H         1 UNK         0.0600 
    200 H200        0.0189  -26.1516  -45.9962 H         1 UNK         0.3000 
    201 H201       -0.0290  -28.7835  -47.1453 H         1 UNK         0.0600 
    202 H202        0.4489  -27.5200  -49.2448 H         1 UNK         0.0600 
    203 H203        1.4597  -26.9389  -47.9309 H         1 UNK         0.0600 
    204 H204        0.0557  -26.0040  -48.4431 H         1 UNK         0.0600 
    205 H205       -2.5782  -26.6620  -46.4180 H         1 UNK         0.3000 
    206 H206       -4.7174  -26.4562  -46.8753 H         1 UNK         0.0600 
    207 H207       -4.8177  -28.9373  -46.5181 H         1 UNK         0.0600 
    208 H208       -6.0495  -28.3707  -47.6334 H         1 UNK         0.0600 
    209 H209       -4.6246  -29.1907  -48.2526 H         1 UNK         0.0600 
    210 H210       -2.8281  -25.2612  -48.6059 H         1 UNK         0.3000 
    211 H211       -4.0058  -25.2512  -51.3241 H         1 UNK         0.0600 
    212 H212       -1.5803  -23.7873  -50.1472 H         1 UNK         0.0600 
    213 H213       -2.0415  -23.8361  -51.8429 H         1 UNK         0.0600 
    214 H214       -1.5145  -25.3062  -51.0383 H         1 UNK         0.0600 
    215 H215       -4.6905  -23.8334  -48.4096 H         1 UNK         0.3000 
    216 H216       -4.8521  -21.1312  -48.6301 H         1 UNK         0.0600 
    217 H217       -6.6654  -21.3254  -46.8880 H         1 UNK         0.0600 
    218 H218       -5.2935  -22.3661  -46.5618 H         1 UNK         0.0600 
    219 H219       -6.7799  -23.0466  -47.2251 H         1 UNK         0.0600 
    220 H220       -7.1087  -23.3630  -50.1793 H         1 UNK         0.3000 
    221 H221       -9.1486  -21.4369  -50.8244 H         1 UNK         0.0600 
    222 H222       -8.4789  -24.1626  -52.0596 H         1 UNK         0.0600 
    223 H223       -9.5976  -23.8752  -50.7260 H         1 UNK         0.0600 
    224 H224       -9.9633  -23.2569  -52.3285 H         1 UNK         0.0600 
    225 H225       -6.0762  -22.3010  -52.3218 H         1 UNK         0.3000 
    226 H226       -6.6991  -20.7852  -54.8185 H         1 UNK         0.0600 
    227 H227       -4.6479  -21.8947  -55.6752 H         1 UNK         0.0600 
    228 H228       -4.4039  -22.6970  -54.1279 H         1 UNK         0.0600 
    229 H229       -5.8099  -23.0884  -55.1167 H         1 UNK         0.0600 
    230 H230       -4.5701  -20.9346  -51.9837 H         1 UNK         0.3000 
    231 H231       -2.7643  -18.8555  -52.7313 H         1 UNK         0.0600 
    232 H232       -3.3409  -20.1347  -50.0139 H         1 UNK         0.0600 
    233 H233       -1.9177  -19.1938  -50.4175 H         1 UNK         0.0600 
    234 H234       -2.2002  -20.7404  -51.2099 H         1 UNK         0.0600 
    235 H235       -5.1103  -17.6356  -53.2185 H         1 UNK         0.3000 
    236 H236       -5.8676  -15.8013  -51.0626 H         1 UNK         0.0600 
    237 H237       -7.4940  -16.4393  -52.8274 H         1 UNK         0.0600 
    238 H238       -7.1943  -14.7086  -52.8743 H         1 UNK         0.0600 
    239 H239       -6.4500  -15.7595  -54.0749 H         1 UNK         0.0600 
    240 H240       -3.5555  -15.8928  -53.6994 H         1 UNK         0.3000 
    241 H241       -1.8329  -14.6998  -54.3288 H         1 UNK         0.0600 
    242 H242       -4.1602  -11.7605  -55.2575 H         1 UNK         0.3800 
    243 H243       -4.6368  -13.3511  -54.7232 H         1 UNK         0.3800 
    244 H244       -0.5099  -13.3811  -52.6888 H         1 UNK         0.0800 
    245 H245       -1.8546  -13.3632  -51.5873 H         1 UNK         0.0800 
    246 H246        0.2722  -16.2725  -53.6610 H         1 UNK         0.0800 
    247 H247        1.1975  -15.0193  -52.8653 H         1 UNK         0.0800 
@<TRIPOS>BOND
     1    1    2 1    
     2    1  127 1    
     3    1  128 1    
     4    1  129 1    
     5    2    3 2    
     6    2    4 am   BACKBONE|DICT|INTERRES
     7    4    5 1    
     8    4  130 1    
     9    5    6 1    
    10    5   65 1    
    11    5  131 1    
    12    6    7 1    
    13    6  132 1    
    14    6  133 1    
    15    7    8 1    
    16    8    9 1    
    17    8  134 1    
    18    8  135 1    
    19    9   10 ar   
    20    9   14 ar   
    21   10   11 ar   
    22   10  136 1    
    23   11   12 ar   
    24   11  126 1    
    25   12   13 ar   
    26   12  137 1    
    27   13   14 ar   
    28   13   15 1    
    29   14  138 1    
    30   15   16 1    
    31   15  139 1    
    32   15  140 1    
    33   16   17 1    
    34   17   18 1    
    35   17  141 1    
    36   17  142 1    
    37   18   19 1    
    38   18   67 1    
    39   18  143 1    
    40   19   20 am   BACKBONE|DICT|INTERRES
    41   19  144 1    
    42   20   21 2    
    43   20   22 1    
    44   22   23 1    
    45   22   24 1    
    46   22  145 1    
    47   23  146 1    
    48   23  147 1    
    49   23  148 1    
    50   24   25 am   BACKBONE|DICT|INTERRES
    51   24  149 1    
    52   25   26 2    
    53   25   27 1    
    54   27   28 1    
    55   27   29 1    
    56   27  150 1    
    57   28  151 1    
    58   28  152 1    
    59   28  153 1    
    60   29   30 am   BACKBONE|DICT|INTERRES
    61   29  154 1    
    62   30   31 2    
    63   30   32 1    
    64   32   33 1    
    65   32   34 1    
    66   32  155 1    
    67   33  156 1    
    68   33  157 1    
    69   33  158 1    
    70   34   35 am   BACKBONE|DICT|INTERRES
    71   34  159 1    
    72   35   36 2    
    73   35   37 1    
    74   37   38 1    
    75   37   39 1    
    76   37  160 1    
    77   38  161 1    
    78   38  162 1    
    79   38  163 1    
    80   39   40 am   BACKBONE|DICT|INTERRES
    81   39  164 1    
    82   40   41 2    
    83   40   42 1    
    84   42   43 1    
    85   42   44 1    
    86   42  165 1    
    87   43  166 1    
    88   43  167 1    
    89   43  168 1    
    90   44   45 am   BACKBONE|DICT|INTERRES
    91   44  169 1    
    92   45   46 2    
    93   45   47 1    
    94   47   48 1    
    95   47   49 1    
    96   47  170 1    
    97   48  171 1    
    98   48  172 1    
    99   48  173 1    
   100   49   50 am   BACKBONE|DICT|INTERRES
   101   49  174 1    
   102   50   51 2    
   103   50   52 1    
   104   52   53 1    
   105   52   54 1    
   106   52  175 1    
   107   53  176 1    
   108   53  177 1    
   109   53  178 1    
   110   54   55 am   BACKBONE|DICT|INTERRES
   111   54  179 1    
   112   55   56 2    
   113   55   57 1    
   114   57   58 1    
   115   57   59 1    
   116   57  180 1    
   117   58  181 1    
   118   58  182 1    
   119   58  183 1    
   120   59   60 am   BACKBONE|DICT|INTERRES
   121   59  184 1    
   122   60   61 2    
   123   60   62 1    
   124   62   63 1    
   125   62   64 1    
   126   62  185 1    
   127   63  186 1    
   128   63  187 1    
   129   63  188 1    
   130   64   65 am   BACKBONE|DICT|INTERRES
   131   64  189 1    
   132   65   66 2    
   133   67   68 2    
   134   67   69 am   BACKBONE|DICT|INTERRES
   135   69   70 1    
   136   69  190 1    
   137   70   71 1    
   138   70   72 1    
   139   70  191 1    
   140   71  192 1    
   141   71  193 1    
   142   71  194 1    
   143   72   73 2    
   144   72   74 am   BACKBONE|DICT|INTERRES
   145   74   75 1    
   146   74  195 1    
   147   75   76 1    
   148   75   77 1    
   149   75  196 1    
   150   76  197 1    
   151   76  198 1    
   152   76  199 1    
   153   77   78 2    
   154   77   79 am   BACKBONE|DICT|INTERRES
   155   79   80 1    
   156   79  200 1    
   157   80   81 1    
   158   80   82 1    
   159   80  201 1    
   160   81  202 1    
   161   81  203 1    
   162   81  204 1    
   163   82   83 2    
   164   82   84 am   BACKBONE|DICT|INTERRES
   165   84   85 1    
   166   84  205 1    
   167   85   86 1    
   168   85   87 1    
   169   85  206 1    
   170   86  207 1    
   171   86  208 1    
   172   86  209 1    
   173   87   88 2    
   174   87   89 am   BACKBONE|DICT|INTERRES
   175   89   90 1    
   176   89  210 1    
   177   90   91 1    
   178   90   92 1    
   179   90  211 1    
   180   91  212 1    
   181   91  213 1    
   182   91  214 1    
   183   92   93 2    
   184   92   94 am   BACKBONE|DICT|INTERRES
   185   94   95 1    
   186   94  215 1    
   187   95   96 1    
   188   95   97 1    
   189   95  216 1    
   190   96  217 1    
   191   96  218 1    
   192   96  219 1    
   193   97   98 2    
   194   97   99 am   BACKBONE|DICT|INTERRES
   195   99  100 1    
   196   99  220 1    
   197  100  101 1    
   198  100  102 1    
   199  100  221 1    
   200  101  222 1    
   201  101  223 1    
   202  101  224 1    
   203  102  103 2    
   204  102  104 am   BACKBONE|DICT|INTERRES
   205  104  105 1    
   206  104  225 1    
   207  105  106 1    
   208  105  107 1    
   209  105  226 1    
   210  106  227 1    
   211  106  228 1    
   212  106  229 1    
   213  107  108 2    
   214  107  109 am   BACKBONE|DICT|INTERRES
   215  109  110 1    
   216  109  230 1    
   217  110  111 1    
   218  110  112 1    
   219  110  231 1    
   220  111  232 1    
   221  111  233 1    
   222  111  234 1    
   223  112  113 2    
   224  112  114 am   BACKBONE|DICT|INTERRES
   225  114  115 1    
   226  114  235 1    
   227  115  116 1    
   228  115  117 1    
   229  115  236 1    
   230  116  237 1    
   231  116  238 1    
   232  116  239 1    
   233  117  118 2    
   234  117  119 am   BACKBONE|DICT|INTERRES
   235  119  120 1    
   236  119  240 1    
   237  120  121 1    
   238  120  124 1    
   239  120  241 1    
   240  121  122 am   BACKBONE|DICT|INTERRES
   241  121  123 2    
   242  122  242 1    
   243  122  243 1    
   244  124  125 1    
   245  124  244 1    
   246  124  245 1    
   247  125  126 1    
   248  126  246 1    
   249  126  247 1    
@<TRIPOS>SUBSTRUCTURE
     1 UNK         1 GROUP             0       ****    0 ROOT    
