@<TRIPOS>MOLECULE
3R540
247   249    1
SMALL
USER_CHARGES


@<TRIPOS>ATOM
      1 CA          6.9351  -14.5667  -48.5712 C.3       0 UNK        -0.1800 
      2 C           5.4252  -14.6963  -48.4293 C.2       0 UNK         0.5000 
      3 O           4.9369  -14.9634  -47.3311 O.2       0 UNK        -0.5000 
      4 N           4.6906  -14.5098  -49.5353 N.am      1 UNK        -0.5000 
      5 CA          3.2283  -14.5815  -49.6314 C.3       1 UNK         0.1400 
      6 C6          2.7634  -14.4019  -51.1017 C.3       23 UNK        -0.0398 
      7 S7          0.9523  -14.4393  -51.3311 S.3       23 UNK        -0.2404 
      8 C8          0.6307  -16.2212  -51.4776 C.3       23 UNK        -0.0205 
      9 C9         -0.7727  -16.5332  -50.9894 C.ar      23 UNK        -0.0193 
     10 C10        -1.8668  -16.3698  -51.8419 C.ar      23 UNK        -0.1150 
     11 C11        -3.1710  -16.6123  -51.3899 C.ar      23 UNK        -0.0193 
     12 C12        -3.3605  -17.0449  -50.0744 C.ar      23 UNK        -0.1150 
     13 C13        -2.2715  -17.2309  -49.2178 C.ar      23 UNK        -0.0193 
     14 C14        -0.9799  -16.9655  -49.6780 C.ar      23 UNK        -0.1150 
     15 C15        -2.4879  -17.7163  -47.7931 C.3       23 UNK        -0.0205 
     16 S16        -3.2181  -19.3823  -47.7316 S.3       23 UNK        -0.2404 
     17 C17        -1.9756  -20.3760  -48.6315 C.3       23 UNK        -0.0398 
     18 CA         -1.5304  -21.6527  -47.8832 C.3       11 UNK         0.1400 
     19 N          -0.9319  -21.3597  -46.5764 N.am      11 UNK        -0.5000 
     20 C          -0.3392  -22.2665  -45.7889 C.2       10 UNK         0.5000 
     21 O          -0.2053  -23.4492  -46.1038 O.2       10 UNK        -0.5000 
     22 CA          0.1511  -21.8045  -44.4070 C.3       10 UNK         0.1400 
     23 CB          1.6483  -21.4692  -44.4746 C.3       10 UNK        -0.1800 
     24 N          -0.5755  -20.6731  -43.8204 N.am      10 UNK        -0.5000 
     25 C          -1.8973  -20.6015  -43.5979 C.2       9 UNK         0.5000 
     26 O          -2.7032  -21.4479  -43.9858 O.2       9 UNK        -0.5000 
     27 CA         -2.4060  -19.3814  -42.8097 C.3       9 UNK         0.1400 
     28 CB         -2.2885  -19.6327  -41.2985 C.3       9 UNK        -0.1800 
     29 N          -1.6653  -18.1674  -43.1528 N.am      9 UNK        -0.5000 
     30 C          -2.0669  -17.2627  -44.0557 C.2       8 UNK         0.5000 
     31 O          -3.1520  -17.3176  -44.6324 O.2       8 UNK        -0.5000 
     32 CA         -1.1097  -16.0949  -44.3800 C.3       8 UNK         0.1400 
     33 CB         -1.5675  -14.8050  -43.6834 C.3       8 UNK        -0.1800 
     34 N           0.2821  -16.3587  -44.0168 N.am      8 UNK        -0.5000 
     35 C           1.0816  -17.2438  -44.6262 C.2       7 UNK         0.5000 
     36 O           0.7541  -17.8972  -45.6163 O.2       7 UNK        -0.5000 
     37 CA          2.4671  -17.4590  -43.9902 C.3       7 UNK         0.1400 
     38 CB          3.4829  -16.4561  -44.5561 C.3       7 UNK        -0.1800 
     39 N           2.4411  -17.3601  -42.5272 N.am      7 UNK        -0.5000 
     40 C           1.8012  -18.2184  -41.7197 C.2       6 UNK         0.5000 
     41 O           1.1515  -19.1781  -42.1286 O.2       6 UNK        -0.5000 
     42 CA          1.8436  -17.9219  -40.2107 C.3       6 UNK         0.1400 
     43 CB          3.2129  -18.2877  -39.6184 C.3       6 UNK        -0.1800 
     44 N           1.5430  -16.5214  -39.9208 N.am      6 UNK        -0.5000 
     45 C           0.3527  -15.9393  -40.1280 C.2       5 UNK         0.5000 
     46 O          -0.6489  -16.5445  -40.5083 O.2       5 UNK        -0.5000 
     47 CA          0.2852  -14.4134  -39.9188 C.3       5 UNK         0.1400 
     48 CB         -0.1226  -14.0850  -38.4749 C.3       5 UNK        -0.1800 
     49 N           1.5414  -13.7249  -40.2365 N.am      5 UNK        -0.5000 
     50 C           2.1253  -13.7260  -41.4414 C.2       4 UNK         0.5000 
     51 O           1.6633  -14.3115  -42.4268 O.2       4 UNK        -0.5000 
     52 CA          3.4727  -13.0004  -41.5497 C.3       4 UNK         0.1400 
     53 CB          4.5961  -13.8150  -40.8849 C.3       4 UNK        -0.1800 
     54 N           3.7706  -12.8299  -42.9628 N.am      4 UNK        -0.5000 
     55 C           4.4607  -11.8329  -43.5213 C.2       3 UNK         0.5000 
     56 O           5.0261  -10.9479  -42.8776 O.2       3 UNK        -0.5000 
     57 CA          4.5257  -11.8160  -45.0627 C.3       3 UNK         0.1400 
     58 CB          5.9208  -12.2349  -45.5493 C.3       3 UNK        -0.1800 
     59 N           3.5209  -12.6705  -45.7070 N.am      3 UNK        -0.5000 
     60 C           2.2054  -12.4055  -45.7476 C.2       2 UNK         0.5000 
     61 O           1.7019  -11.4075  -45.2297 O.2       2 UNK        -0.5000 
     62 CA          1.3083  -13.4337  -46.4741 C.3       2 UNK         0.1400 
     63 CB         -0.0307  -12.8380  -46.9537 C.3       2 UNK        -0.1800 
     64 N           1.9797  -14.1336  -47.5744 N.am      2 UNK        -0.5000 
     65 C           2.5573  -13.5870  -48.6561 C.2       1 UNK         0.5000 
     66 O           2.6097  -12.3769  -48.8867 O.2       1 UNK        -0.5000 
     67 C          -2.6599  -22.7059  -47.8189 C.2       11 UNK         0.5000 
     68 O          -2.8210  -23.4698  -48.7702 O.2       11 UNK        -0.5000 
     69 N          -3.3781  -22.7803  -46.6887 N.am      12 UNK        -0.5000 
     70 CA         -4.4143  -23.7830  -46.4338 C.3       12 UNK         0.1400 
     71 CB         -5.2432  -23.3493  -45.2160 C.3       12 UNK        -0.1800 
     72 C          -3.8564  -25.2083  -46.2376 C.2       12 UNK         0.5000 
     73 O          -4.6230  -26.1661  -46.3259 O.2       12 UNK        -0.5000 
     74 N          -2.5463  -25.3330  -45.9883 N.am      13 UNK        -0.5000 
     75 CA         -1.8278  -26.6032  -45.9381 C.3       13 UNK         0.1400 
     76 CB         -0.8985  -26.6172  -44.7134 C.3       13 UNK        -0.1800 
     77 C          -1.0299  -26.8162  -47.2344 C.2       13 UNK         0.5000 
     78 O          -1.1154  -27.8905  -47.8287 O.2       13 UNK        -0.5000 
     79 N          -0.2731  -25.7908  -47.6512 N.am      14 UNK        -0.5000 
     80 CA          0.6603  -25.8432  -48.7769 C.3       14 UNK         0.1400 
     81 CB          1.5862  -24.6181  -48.7232 C.3       14 UNK        -0.1800 
     82 C          -0.0240  -25.9448  -50.1510 C.2       14 UNK         0.5000 
     83 O           0.4419  -26.7082  -50.9979 O.2       14 UNK        -0.5000 
     84 N          -1.1080  -25.1829  -50.3477 N.am      15 UNK        -0.5000 
     85 CA         -1.8918  -25.1564  -51.5860 C.3       15 UNK         0.1400 
     86 CB         -2.0754  -23.6940  -52.0273 C.3       15 UNK        -0.1800 
     87 C          -3.2508  -25.8631  -51.4213 C.2       15 UNK         0.5000 
     88 O          -3.9933  -25.9666  -52.3981 O.2       15 UNK        -0.5000 
     89 N          -3.5578  -26.3246  -50.1987 N.am      16 UNK        -0.5000 
     90 CA         -4.7462  -27.0584  -49.7408 C.3       16 UNK         0.1400 
     91 CB         -4.8956  -28.4005  -50.4819 C.3       16 UNK        -0.1800 
     92 C          -6.0573  -26.2486  -49.7849 C.2       16 UNK         0.5000 
     93 O          -6.7775  -26.1962  -48.7886 O.2       16 UNK        -0.5000 
     94 N          -6.3446  -25.6275  -50.9323 N.am      17 UNK        -0.5000 
     95 CA         -7.5355  -24.8150  -51.1794 C.3       17 UNK         0.1400 
     96 CB         -7.8618  -24.8781  -52.6799 C.3       17 UNK        -0.1800 
     97 C          -7.3720  -23.3507  -50.7299 C.2       17 UNK         0.5000 
     98 O          -8.3528  -22.6064  -50.7630 O.2       17 UNK        -0.5000 
     99 N          -6.1426  -22.9484  -50.3689 N.am      18 UNK        -0.5000 
    100 CA        -5.6812  -21.5983  -50.0145 C.3       18 UNK         0.1400 
    101 CB        -6.4332  -21.0270  -48.7973 C.3       18 UNK        -0.1800 
    102 C         -5.6877  -20.6231  -51.2054 C.2       18 UNK         0.5000 
    103 O         -4.6415  -20.0734  -51.5457 O.2       18 UNK        -0.5000 
    104 N         -6.8419  -20.4837  -51.8703 N.am      19 UNK        -0.5000 
    105 CA        -7.0483  -19.6831  -53.0808 C.3       19 UNK         0.1400 
    106 CB        -8.5366  -19.7174  -53.4548 C.3       19 UNK        -0.1800 
    107 C         -6.1840  -20.1343  -54.2748 C.2       19 UNK         0.5000 
    108 O         -5.8601  -19.3166  -55.1359 O.2       19 UNK        -0.5000 
    109 N         -5.7752  -21.4101  -54.2801 N.am      20 UNK        -0.5000 
    110 CA        -4.8492  -21.9990  -55.2483 C.3       20 UNK         0.1400 
    111 CB        -4.8169  -23.5212  -55.0437 C.3       20 UNK        -0.1800 
    112 C         -3.4264  -21.3994  -55.2095 C.2       20 UNK         0.5000 
    113 O         -2.7071  -21.5175  -56.2019 O.2       20 UNK        -0.5000 
    114 N         -3.0471  -20.7472  -54.0982 N.am      21 UNK        -0.5000 
    115 CA        -1.8019  -19.9815  -53.9917 C.3       21 UNK         0.1400 
    116 CB        -1.4327  -19.8077  -52.5106 C.3       21 UNK        -0.1800 
    117 C         -1.8824  -18.6159  -54.7088 C.2       21 UNK         0.5000 
    118 O         -0.8438  -18.0780  -55.0941 O.2       21 UNK        -0.5000 
    119 N         -3.1018  -18.0911  -54.8879 N.am      22 UNK        -0.5000 
    120 CA        -3.4021  -16.8948  -55.6883 C.3       22 UNK         0.1400 
    121 C         -3.6755  -17.2772  -57.1670 C.2       22 UNK         0.5000 
    122 N         -4.5000  -18.2844  -57.4295 N.am      22 UNK        -0.7600 
    123 O         -3.1366  -16.6591  -58.0808 O.2       22 UNK        -0.5000 
    124 C124       -4.5987  -16.0915  -55.1105 C.3       23 UNK        -0.0398 
    125 S125       -4.1893  -15.1758  -53.5884 S.3       23 UNK        -0.2404 
    126 C126       -4.3882  -16.4549  -52.2995 C.3       23 UNK        -0.0205 
    127 H127        7.2265  -14.3010  -49.5876 H         1 UNK         0.0600 
    128 H128        7.3133  -13.7983  -47.8976 H         1 UNK         0.0600 
    129 H129        7.4161  -15.5105  -48.3149 H         1 UNK         0.0600 
    130 H130        5.1670  -14.2694  -50.3927 H         1 UNK         0.3000 
    131 H131        2.9473  -15.5921  -49.3275 H         1 UNK         0.0600 
    132 H132        3.2124  -15.1691  -51.7342 H         1 UNK         0.0800 
    133 H133        3.1215  -13.4472  -51.4908 H         1 UNK         0.0800 
    134 H134        1.3612  -16.7876  -50.8982 H         1 UNK         0.0800 
    135 H135        0.7490  -16.5316  -52.5171 H         1 UNK         0.0800 
    136 H136       -1.6916  -16.0480  -52.8582 H         1 UNK         0.1150 
    137 H137       -4.3584  -17.2566  -49.7168 H         1 UNK         0.1150 
    138 H138       -0.1354  -17.0938  -49.0154 H         1 UNK         0.1150 
    139 H139       -1.5520  -17.7189  -47.2326 H         1 UNK         0.0800 
    140 H140       -3.1540  -17.0194  -47.2838 H         1 UNK         0.0800 
    141 H141       -1.0954  -19.7633  -48.8280 H         1 UNK         0.0800 
    142 H142       -2.3797  -20.6237  -49.6148 H         1 UNK         0.0800 
    143 H143       -0.7397  -22.1045  -48.4848 H         1 UNK         0.0600 
    144 H144       -1.0233  -20.4126  -46.2369 H         1 UNK         0.3000 
    145 H145        0.0236  -22.6501  -43.7286 H         1 UNK         0.0600 
    146 H146        2.0600  -21.2886  -43.4820 H         1 UNK         0.0600 
    147 H147        2.2165  -22.2918  -44.9114 H         1 UNK         0.0600 
    148 H148        1.8314  -20.5838  -45.0841 H         1 UNK         0.0600 
    149 H149        0.0111  -19.9603  -43.3964 H         1 UNK         0.3000 
    150 H150       -3.4651  -19.2536  -43.0432 H         1 UNK         0.0600 
    151 H151       -2.8493  -20.5211  -41.0055 H         1 UNK         0.0600 
    152 H152       -2.6873  -18.7926  -40.7294 H         1 UNK         0.0600 
    153 H153       -1.2532  -19.7806  -40.9900 H         1 UNK         0.0600 
    154 H154       -0.7732  -18.0356  -42.6954 H         1 UNK         0.3000 
    155 H155       -1.1493  -15.9283  -45.4584 H         1 UNK         0.0600 
    156 H156       -1.5802  -14.9194  -42.5996 H         1 UNK         0.0600 
    157 H157       -2.5754  -14.5295  -43.9958 H         1 UNK         0.0600 
    158 H158       -0.9113  -13.9684  -43.9245 H         1 UNK         0.0600 
    159 H159        0.6610  -15.8201  -43.2438 H         1 UNK         0.3000 
    160 H160        2.8010  -18.4648  -44.2520 H         1 UNK         0.0600 
    161 H161        4.4775  -16.6207  -44.1416 H         1 UNK         0.0600 
    162 H162        3.1981  -15.4259  -44.3468 H         1 UNK         0.0600 
    163 H163        3.5631  -16.5595  -45.6386 H         1 UNK         0.0600 
    164 H164        2.9036  -16.5623  -42.1190 H         1 UNK         0.3000 
    165 H165        1.0855  -18.5414  -39.7266 H         1 UNK         0.0600 
    166 H166        3.2216  -18.1541  -38.5365 H         1 UNK         0.0600 
    167 H167        3.4569  -19.3321  -39.8175 H         1 UNK         0.0600 
    168 H168        4.0137  -17.6775  -40.0379 H         1 UNK         0.0600 
    169 H169        2.3060  -15.9470  -39.5955 H         1 UNK         0.3000 
    170 H170       -0.4847  -14.0238  -40.5875 H         1 UNK         0.0600 
    171 H171       -1.0670  -14.5663  -38.2171 H         1 UNK         0.0600 
    172 H172        0.6256  -14.4245  -37.7575 H         1 UNK         0.0600 
    173 H173       -0.2585  -13.0122  -38.3374 H         1 UNK         0.0600 
    174 H174        1.9840  -13.2269  -39.4774 H         1 UNK         0.3000 
    175 H175        3.3803  -12.0246  -41.0685 H         1 UNK         0.0600 
    176 H176        4.6998  -14.8019  -41.3378 H         1 UNK         0.0600 
    177 H177        5.5560  -13.3060  -40.9746 H         1 UNK         0.0600 
    178 H178        4.4059  -13.9576  -39.8206 H         1 UNK         0.0600 
    179 H179        3.2729  -13.4716  -43.5652 H         1 UNK         0.3000 
    180 H180        4.3514  -10.7862  -45.3811 H         1 UNK         0.0600 
    181 H181        6.1367  -13.2756  -45.3037 H         1 UNK         0.0600 
    182 H182        6.6983  -11.6205  -45.0937 H         1 UNK         0.0600 
    183 H183        6.0082  -12.1169  -46.6291 H         1 UNK         0.0600 
    184 H184        3.8680  -13.4986  -46.1793 H         1 UNK         0.3000 
    185 H185        1.0762  -14.1951  -45.7292 H         1 UNK         0.0600 
    186 H186       -0.6030  -12.4329  -46.1184 H         1 UNK         0.0600 
    187 H187        0.1211  -12.0305  -47.6706 H         1 UNK         0.0600 
    188 H188       -0.6505  -13.5976  -47.4305 H         1 UNK         0.0600 
    189 H189        2.0436  -15.1360  -47.4680 H         1 UNK         0.3000 
    190 H190       -3.1632  -22.1484  -45.9240 H         1 UNK         0.3000 
    191 H191       -5.0767  -23.8132  -47.3018 H         1 UNK         0.0600 
    192 H192       -4.6422  -23.3345  -44.3062 H         1 UNK         0.0600 
    193 H193       -6.0762  -24.0330  -45.0477 H         1 UNK         0.0600 
    194 H194       -5.6632  -22.3534  -45.3579 H         1 UNK         0.0600 
    195 H195       -1.9788  -24.4955  -45.9400 H         1 UNK         0.3000 
    196 H196       -2.5254  -27.4369  -45.8343 H         1 UNK         0.0600 
    197 H197       -0.3490  -27.5573  -44.6524 H         1 UNK         0.0600 
    198 H198       -1.4678  -26.5132  -43.7896 H         1 UNK         0.0600 
    199 H199       -0.1657  -25.8104  -44.7450 H         1 UNK         0.0600 
    200 H200       -0.2445  -24.9433  -47.0878 H         1 UNK         0.3000 
    201 H201        1.2791  -26.7345  -48.6522 H         1 UNK         0.0600 
    202 H202        2.1336  -24.5789  -47.7812 H         1 UNK         0.0600 
    203 H203        1.0297  -23.6864  -48.8239 H         1 UNK         0.0600 
    204 H204        2.3231  -24.6492  -49.5267 H         1 UNK         0.0600 
    205 H205       -1.4507  -24.5868  -49.6008 H         1 UNK         0.3000 
    206 H206       -1.3601  -25.6772  -52.3846 H         1 UNK         0.0600 
    207 H207       -1.1177  -23.1755  -52.0674 H         1 UNK         0.0600 
    208 H208       -2.5050  -23.6420  -53.0267 H         1 UNK         0.0600 
    209 H209       -2.7318  -23.1376  -51.3584 H         1 UNK         0.0600 
    210 H210       -2.8716  -26.1495  -49.4794 H         1 UNK         0.3000 
    211 H211       -4.5574  -27.2951  -48.6936 H         1 UNK         0.0600 
    212 H212       -5.0949  -28.2636  -51.5450 H         1 UNK         0.0600 
    213 H213       -5.7214  -28.9813  -50.0692 H         1 UNK         0.0600 
    214 H214       -3.9935  -29.0047  -50.3851 H         1 UNK         0.0600 
    215 H215       -5.6754  -25.7230  -51.6937 H         1 UNK         0.3000 
    216 H216       -8.3802  -25.2344  -50.6289 H         1 UNK         0.0600 
    217 H217       -8.7647  -24.3118  -52.9120 H         1 UNK         0.0600 
    218 H218       -8.0330  -25.9052  -53.0025 H         1 UNK         0.0600 
    219 H219       -7.0522  -24.4687  -53.2835 H         1 UNK         0.0600 
    220 H220       -5.4176  -23.6512  -50.3887 H         1 UNK         0.3000 
    221 H221       -4.6381  -21.7104  -49.7227 H         1 UNK         0.0600 
    222 H222       -7.4974  -20.8943  -48.9900 H         1 UNK         0.0600 
    223 H223       -6.3276  -21.6781  -47.9299 H         1 UNK         0.0600 
    224 H224       -6.0356  -20.0507  -48.5196 H         1 UNK         0.0600 
    225 H225       -7.6348  -21.0244  -51.5346 H         1 UNK         0.3000 
    226 H226       -6.7747  -18.6522  -52.8492 H         1 UNK         0.0600 
    227 H227       -8.8745  -20.7330  -53.6654 H         1 UNK         0.0600 
    228 H228       -9.1543  -19.3188  -52.6498 H         1 UNK         0.0600 
    229 H229       -8.7316  -19.1140  -54.3425 H         1 UNK         0.0600 
    230 H230       -6.0863  -22.0073  -53.5299 H         1 UNK         0.3000 
    231 H231       -5.2439  -21.8024  -56.2474 H         1 UNK         0.0600 
    232 H232       -5.7755  -23.9695  -55.3043 H         1 UNK         0.0600 
    233 H233       -4.5958  -23.7855  -54.0102 H         1 UNK         0.0600 
    234 H234       -4.0615  -23.9918  -55.6744 H         1 UNK         0.0600 
    235 H235       -3.6840  -20.6793  -53.3120 H         1 UNK         0.3000 
    236 H236       -1.0003  -20.5517  -54.4659 H         1 UNK         0.0600 
    237 H237       -0.4943  -19.2626  -52.4031 H         1 UNK         0.0600 
    238 H238       -2.1959  -19.2526  -51.9672 H         1 UNK         0.0600 
    239 H239       -1.3072  -20.7699  -52.0166 H         1 UNK         0.0600 
    240 H240       -3.9038  -18.6336  -54.5991 H         1 UNK         0.3000 
    241 H241       -2.5309  -16.2364  -55.6862 H         1 UNK         0.0600 
    242 H242       -4.6819  -18.5430  -58.3860 H         1 UNK         0.3800 
    243 H243       -4.9944  -18.7540  -56.6751 H         1 UNK         0.3800 
    244 H244       -4.9322  -15.3428  -55.8316 H         1 UNK         0.0800 
    245 H245       -5.4628  -16.7321  -54.9322 H         1 UNK         0.0800 
    246 H246       -5.2641  -16.1937  -51.7039 H         1 UNK         0.0800 
    247 H247       -4.6050  -17.4244  -52.7459 H         1 UNK         0.0800 
@<TRIPOS>BOND
     1    1    2 1    
     2    1  127 1    
     3    1  128 1    
     4    1  129 1    
     5    2    3 2    
     6    2    4 am   BACKBONE|DICT|INTERRES
     7    4    5 1    
     8    4  130 1    
     9    5    6 1    
    10    5   65 1    
    11    5  131 1    
    12    6    7 1    
    13    6  132 1    
    14    6  133 1    
    15    7    8 1    
    16    8    9 1    
    17    8  134 1    
    18    8  135 1    
    19    9   10 ar   
    20    9   14 ar   
    21   10   11 ar   
    22   10  136 1    
    23   11   12 ar   
    24   11  126 1    
    25   12   13 ar   
    26   12  137 1    
    27   13   14 ar   
    28   13   15 1    
    29   14  138 1    
    30   15   16 1    
    31   15  139 1    
    32   15  140 1    
    33   16   17 1    
    34   17   18 1    
    35   17  141 1    
    36   17  142 1    
    37   18   19 1    
    38   18   67 1    
    39   18  143 1    
    40   19   20 am   BACKBONE|DICT|INTERRES
    41   19  144 1    
    42   20   21 2    
    43   20   22 1    
    44   22   23 1    
    45   22   24 1    
    46   22  145 1    
    47   23  146 1    
    48   23  147 1    
    49   23  148 1    
    50   24   25 am   BACKBONE|DICT|INTERRES
    51   24  149 1    
    52   25   26 2    
    53   25   27 1    
    54   27   28 1    
    55   27   29 1    
    56   27  150 1    
    57   28  151 1    
    58   28  152 1    
    59   28  153 1    
    60   29   30 am   BACKBONE|DICT|INTERRES
    61   29  154 1    
    62   30   31 2    
    63   30   32 1    
    64   32   33 1    
    65   32   34 1    
    66   32  155 1    
    67   33  156 1    
    68   33  157 1    
    69   33  158 1    
    70   34   35 am   BACKBONE|DICT|INTERRES
    71   34  159 1    
    72   35   36 2    
    73   35   37 1    
    74   37   38 1    
    75   37   39 1    
    76   37  160 1    
    77   38  161 1    
    78   38  162 1    
    79   38  163 1    
    80   39   40 am   BACKBONE|DICT|INTERRES
    81   39  164 1    
    82   40   41 2    
    83   40   42 1    
    84   42   43 1    
    85   42   44 1    
    86   42  165 1    
    87   43  166 1    
    88   43  167 1    
    89   43  168 1    
    90   44   45 am   BACKBONE|DICT|INTERRES
    91   44  169 1    
    92   45   46 2    
    93   45   47 1    
    94   47   48 1    
    95   47   49 1    
    96   47  170 1    
    97   48  171 1    
    98   48  172 1    
    99   48  173 1    
   100   49   50 am   BACKBONE|DICT|INTERRES
   101   49  174 1    
   102   50   51 2    
   103   50   52 1    
   104   52   53 1    
   105   52   54 1    
   106   52  175 1    
   107   53  176 1    
   108   53  177 1    
   109   53  178 1    
   110   54   55 am   BACKBONE|DICT|INTERRES
   111   54  179 1    
   112   55   56 2    
   113   55   57 1    
   114   57   58 1    
   115   57   59 1    
   116   57  180 1    
   117   58  181 1    
   118   58  182 1    
   119   58  183 1    
   120   59   60 am   BACKBONE|DICT|INTERRES
   121   59  184 1    
   122   60   61 2    
   123   60   62 1    
   124   62   63 1    
   125   62   64 1    
   126   62  185 1    
   127   63  186 1    
   128   63  187 1    
   129   63  188 1    
   130   64   65 am   BACKBONE|DICT|INTERRES
   131   64  189 1    
   132   65   66 2    
   133   67   68 2    
   134   67   69 am   BACKBONE|DICT|INTERRES
   135   69   70 1    
   136   69  190 1    
   137   70   71 1    
   138   70   72 1    
   139   70  191 1    
   140   71  192 1    
   141   71  193 1    
   142   71  194 1    
   143   72   73 2    
   144   72   74 am   BACKBONE|DICT|INTERRES
   145   74   75 1    
   146   74  195 1    
   147   75   76 1    
   148   75   77 1    
   149   75  196 1    
   150   76  197 1    
   151   76  198 1    
   152   76  199 1    
   153   77   78 2    
   154   77   79 am   BACKBONE|DICT|INTERRES
   155   79   80 1    
   156   79  200 1    
   157   80   81 1    
   158   80   82 1    
   159   80  201 1    
   160   81  202 1    
   161   81  203 1    
   162   81  204 1    
   163   82   83 2    
   164   82   84 am   BACKBONE|DICT|INTERRES
   165   84   85 1    
   166   84  205 1    
   167   85   86 1    
   168   85   87 1    
   169   85  206 1    
   170   86  207 1    
   171   86  208 1    
   172   86  209 1    
   173   87   88 2    
   174   87   89 am   BACKBONE|DICT|INTERRES
   175   89   90 1    
   176   89  210 1    
   177   90   91 1    
   178   90   92 1    
   179   90  211 1    
   180   91  212 1    
   181   91  213 1    
   182   91  214 1    
   183   92   93 2    
   184   92   94 am   BACKBONE|DICT|INTERRES
   185   94   95 1    
   186   94  215 1    
   187   95   96 1    
   188   95   97 1    
   189   95  216 1    
   190   96  217 1    
   191   96  218 1    
   192   96  219 1    
   193   97   98 2    
   194   97   99 am   BACKBONE|DICT|INTERRES
   195   99  100 1    
   196   99  220 1    
   197  100  101 1    
   198  100  102 1    
   199  100  221 1    
   200  101  222 1    
   201  101  223 1    
   202  101  224 1    
   203  102  103 2    
   204  102  104 am   BACKBONE|DICT|INTERRES
   205  104  105 1    
   206  104  225 1    
   207  105  106 1    
   208  105  107 1    
   209  105  226 1    
   210  106  227 1    
   211  106  228 1    
   212  106  229 1    
   213  107  108 2    
   214  107  109 am   BACKBONE|DICT|INTERRES
   215  109  110 1    
   216  109  230 1    
   217  110  111 1    
   218  110  112 1    
   219  110  231 1    
   220  111  232 1    
   221  111  233 1    
   222  111  234 1    
   223  112  113 2    
   224  112  114 am   BACKBONE|DICT|INTERRES
   225  114  115 1    
   226  114  235 1    
   227  115  116 1    
   228  115  117 1    
   229  115  236 1    
   230  116  237 1    
   231  116  238 1    
   232  116  239 1    
   233  117  118 2    
   234  117  119 am   BACKBONE|DICT|INTERRES
   235  119  120 1    
   236  119  240 1    
   237  120  121 1    
   238  120  124 1    
   239  120  241 1    
   240  121  122 am   BACKBONE|DICT|INTERRES
   241  121  123 2    
   242  122  242 1    
   243  122  243 1    
   244  124  125 1    
   245  124  244 1    
   246  124  245 1    
   247  125  126 1    
   248  126  246 1    
   249  126  247 1    
@<TRIPOS>SUBSTRUCTURE
     1 UNK         1 GROUP             0       ****    0 ROOT    
