@<TRIPOS>MOLECULE
3R540
247   249    1
SMALL
USER_CHARGES


@<TRIPOS>ATOM
      1 CA         -2.4936  -16.2937  -41.3771 C.3       0 UNK        -0.1800 
      2 C          -2.1119  -15.0927  -42.2308 C.2       0 UNK         0.5000 
      3 O          -1.7213  -14.0555  -41.6950 O.2       0 UNK        -0.5000 
      4 N          -2.2091  -15.2277  -43.5573 N.am      1 UNK        -0.5000 
      5 CA         -1.9575  -14.1676  -44.5365 C.3       1 UNK         0.1400 
      6 C6         -2.8526  -14.3273  -45.7882 C.3       23 UNK        -0.0398 
      7 S7         -4.6358  -14.1724  -45.4282 S.3       23 UNK        -0.2404 
      8 C8         -5.1896  -15.9161  -45.4423 C.3       23 UNK        -0.0205 
      9 C9         -4.9316  -16.6857  -46.7396 C.ar      23 UNK        -0.0193 
     10 C10        -4.8327  -16.0482  -47.9820 C.ar      23 UNK        -0.1150 
     11 C11        -4.5542  -16.7789  -49.1391 C.ar      23 UNK        -0.0193 
     12 C12        -4.4027  -18.1658  -49.0530 C.ar      23 UNK        -0.1150 
     13 C13        -4.5201  -18.8291  -47.8274 C.ar      23 UNK        -0.0193 
     14 C14        -4.7879  -18.0750  -46.6777 C.ar      23 UNK        -0.1150 
     15 C15        -4.3150  -20.3459  -47.7983 C.3       23 UNK        -0.0205 
     16 S16        -5.0657  -21.2371  -46.3908 S.3       23 UNK        -0.2404 
     17 C17        -3.7682  -21.1033  -45.1096 C.3       23 UNK        -0.0398 
     18 CA         -2.6850  -22.2109  -45.1521 C.3       11 UNK         0.1400 
     19 N          -1.5810  -21.8851  -44.2401 N.am      11 UNK        -0.5000 
     20 C          -0.4279  -22.5569  -44.1128 C.2       10 UNK         0.5000 
     21 O          -0.2068  -23.6305  -44.6740 O.2       10 UNK        -0.5000 
     22 CA          0.6534  -21.9221  -43.2086 C.3       10 UNK         0.1400 
     23 CB          2.0418  -22.5501  -43.4229 C.3       10 UNK        -0.1800 
     24 N           0.7693  -20.4773  -43.4112 N.am      10 UNK        -0.5000 
     25 C          -0.0168  -19.5428  -42.8620 C.2       9 UNK         0.5000 
     26 O          -0.9519  -19.7963  -42.1032 O.2       9 UNK        -0.5000 
     27 CA          0.2357  -18.0974  -43.3128 C.3       9 UNK         0.1400 
     28 CB          1.5497  -17.5512  -42.7373 C.3       9 UNK        -0.1800 
     29 N           0.2356  -18.0300  -44.7731 N.am      9 UNK        -0.5000 
     30 C          -0.8817  -18.0376  -45.5161 C.2       8 UNK         0.5000 
     31 O          -2.0000  -17.8382  -45.0405 O.2       8 UNK        -0.5000 
     32 CA         -0.7457  -18.3703  -47.0166 C.3       8 UNK         0.1400 
     33 CB         -0.9461  -17.1368  -47.9043 C.3       8 UNK        -0.1800 
     34 N           0.5487  -18.9761  -47.3280 N.am      8 UNK        -0.5000 
     35 C           0.7976  -20.2929  -47.2986 C.2       7 UNK         0.5000 
     36 O          -0.0678  -21.1404  -47.0960 O.2       7 UNK        -0.5000 
     37 CA          2.2541  -20.7483  -47.5253 C.3       7 UNK         0.1400 
     38 CB          2.4398  -21.2920  -48.9494 C.3       7 UNK        -0.1800 
     39 N           3.2340  -19.6855  -47.2925 N.am      7 UNK        -0.5000 
     40 C           3.5326  -19.1778  -46.0890 C.2       6 UNK         0.5000 
     41 O           3.0388  -19.5894  -45.0396 O.2       6 UNK        -0.5000 
     42 CA          4.4677  -17.9515  -46.0745 C.3       6 UNK         0.1400 
     43 CB          5.9389  -18.3904  -46.0622 C.3       6 UNK        -0.1800 
     44 N           4.2300  -17.0564  -47.2145 N.am      6 UNK        -0.5000 
     45 C           3.0856  -16.3877  -47.4088 C.2       5 UNK         0.5000 
     46 O           2.1478  -16.4129  -46.6111 O.2       5 UNK        -0.5000 
     47 CA          2.9226  -15.6604  -48.7494 C.3       5 UNK         0.1400 
     48 CB          2.5241  -16.6778  -49.8412 C.3       5 UNK        -0.1800 
     49 N           1.9029  -14.6219  -48.6119 N.am      5 UNK        -0.5000 
     50 C           1.5986  -13.6970  -49.5326 C.2       4 UNK         0.5000 
     51 O           2.1453  -13.6143  -50.6333 O.2       4 UNK        -0.5000 
     52 CA          0.5262  -12.6648  -49.1504 C.3       4 UNK         0.1400 
     53 CB         -0.8829  -13.2793  -49.1818 C.3       4 UNK        -0.1800 
     54 N           0.7952  -12.0990  -47.8302 N.am      4 UNK        -0.5000 
     55 C           1.6262  -11.0692  -47.6090 C.2       3 UNK         0.5000 
     56 O           2.2096  -10.4605  -48.5070 O.2       3 UNK        -0.5000 
     57 CA          1.8442  -10.6273  -46.1471 C.3       3 UNK         0.1400 
     58 CB          0.9412   -9.4311  -45.8093 C.3       3 UNK        -0.1800 
     59 N           1.5974  -11.6921  -45.1762 N.am      3 UNK        -0.5000 
     60 C           2.3807  -12.7646  -45.0008 C.2       2 UNK         0.5000 
     61 O           3.4527  -12.9314  -45.5831 O.2       2 UNK        -0.5000 
     62 CA          1.8649  -13.8462  -44.0308 C.3       2 UNK         0.1400 
     63 CB          2.4859  -13.6557  -42.6384 C.3       2 UNK        -0.1800 
     64 N           0.4025  -13.9025  -43.8980 N.am      2 UNK        -0.5000 
     65 C          -0.4587  -14.1169  -44.9023 C.2       1 UNK         0.5000 
     66 O          -0.1026  -14.2493  -46.0735 O.2       1 UNK        -0.5000 
     67 C          -3.2599  -23.6266  -44.9257 C.2       11 UNK         0.5000 
     68 O          -3.5716  -24.3179  -45.8970 O.2       11 UNK        -0.5000 
     69 N          -3.3384  -24.0522  -43.6563 N.am      12 UNK        -0.5000 
     70 CA         -3.7873  -25.3876  -43.2598 C.3       12 UNK         0.1400 
     71 CB         -4.0180  -25.4167  -41.7414 C.3       12 UNK        -0.1800 
     72 C          -2.8085  -26.4993  -43.6830 C.2       12 UNK         0.5000 
     73 O          -3.2513  -27.5526  -44.1410 O.2       12 UNK        -0.5000 
     74 N          -1.4996  -26.2370  -43.5542 N.am      13 UNK        -0.5000 
     75 CA         -0.4280  -27.1516  -43.9595 C.3       13 UNK         0.1400 
     76 CB          0.8916  -26.7227  -43.3018 C.3       13 UNK        -0.1800 
     77 C          -0.2781  -27.2229  -45.4897 C.2       13 UNK         0.5000 
     78 O          -0.0072  -28.2965  -46.0280 O.2       13 UNK        -0.5000 
     79 N          -0.5042  -26.0862  -46.1621 N.am      14 UNK        -0.5000 
     80 CA         -0.5644  -25.9595  -47.6189 C.3       14 UNK         0.1400 
     81 CB         -0.4274  -24.4728  -47.9901 C.3       14 UNK        -0.1800 
     82 C          -1.8507  -26.5494  -48.2352 C.2       14 UNK         0.5000 
     83 O          -1.9513  -26.6030  -49.4604 O.2       14 UNK        -0.5000 
     84 N          -2.8243  -26.9406  -47.3965 N.am      15 UNK        -0.5000 
     85 CA         -4.1495  -27.4661  -47.7496 C.3       15 UNK         0.1400 
     86 CB         -4.0236  -28.8707  -48.3742 C.3       15 UNK        -0.1800 
     87 C          -4.9626  -26.4872  -48.6249 C.2       15 UNK         0.5000 
     88 O          -5.6837  -26.9096  -49.5303 O.2       15 UNK        -0.5000 
     89 N          -4.7876  -25.1870  -48.3496 N.am      16 UNK        -0.5000 
     90 CA         -5.3329  -24.0256  -49.0548 C.3       16 UNK         0.1400 
     91 CB         -6.8699  -23.9807  -48.9448 C.3       16 UNK        -0.1800 
     92 C          -4.8428  -23.8423  -50.5082 C.2       16 UNK         0.5000 
     93 O          -5.3443  -22.9498  -51.1933 O.2       16 UNK        -0.5000 
     94 N          -3.8484  -24.6271  -50.9583 N.am      17 UNK        -0.5000 
     95 CA         -3.3057  -24.5772  -52.3230 C.3       17 UNK         0.1400 
     96 CB         -2.3536  -25.7630  -52.5449 C.3       17 UNK        -0.1800 
     97 C          -2.5963  -23.2502  -52.6585 C.2       17 UNK         0.5000 
     98 O          -2.5266  -22.8758  -53.8297 O.2       17 UNK        -0.5000 
     99 N          -2.1263  -22.5389  -51.6224 N.am      18 UNK        -0.5000 
    100 CA        -1.5142  -21.2109  -51.7081 C.3       18 UNK         0.1400 
    101 CB        -1.0082  -20.8054  -50.3188 C.3       18 UNK        -0.1800 
    102 C         -2.4533  -20.1239  -52.2671 C.2       18 UNK         0.5000 
    103 O         -1.9605  -19.1288  -52.7956 O.2       18 UNK        -0.5000 
    104 N         -3.7774  -20.3428  -52.1938 N.am      19 UNK        -0.5000 
    105 CA        -4.8044  -19.4496  -52.7390 C.3       19 UNK         0.1400 
    106 CB        -6.1862  -19.9107  -52.2504 C.3       19 UNK        -0.1800 
    107 C         -4.7763  -19.3153  -54.2760 C.2       19 UNK         0.5000 
    108 O         -5.3655  -18.3722  -54.8053 O.2       19 UNK        -0.5000 
    109 N         -4.0739  -20.2281  -54.9655 N.am      20 UNK        -0.5000 
    110 CA        -3.7506  -20.1223  -56.3894 C.3       20 UNK         0.1400 
    111 CB        -3.2547  -21.4878  -56.8894 C.3       20 UNK        -0.1800 
    112 C         -2.7058  -19.0247  -56.6921 C.2       20 UNK         0.5000 
    113 O         -2.6257  -18.5757  -57.8366 O.2       20 UNK        -0.5000 
    114 N         -1.9305  -18.6183  -55.6767 N.am      21 UNK        -0.5000 
    115 CA        -0.9754  -17.5176  -55.7189 C.3       21 UNK         0.1400 
    116 CB         0.3665  -17.9977  -55.1272 C.3       21 UNK        -0.1800 
    117 C         -1.5978  -16.3096  -54.9913 C.2       21 UNK         0.5000 
    118 O         -2.6190  -15.7972  -55.4573 O.2       21 UNK        -0.5000 
    119 N         -0.9835  -15.8736  -53.8813 N.am      22 UNK        -0.5000 
    120 CA        -1.3514  -14.6893  -53.0833 C.3       22 UNK         0.1400 
    121 C         -1.1986  -13.3411  -53.8616 C.2       22 UNK         0.5000 
    122 N         -1.6904  -12.2291  -53.3320 N.am      22 UNK        -0.7600 
    123 O         -0.5850  -13.2705  -54.9245 O.2       22 UNK        -0.5000 
    124 C124       -2.7290  -14.8513  -52.3691 C.3       23 UNK        -0.0398 
    125 S125       -2.6993  -16.1616  -51.1019 S.3       23 UNK        -0.2404 
    126 C126       -4.4066  -16.0631  -50.4743 C.3       23 UNK        -0.0205 
    127 H127       -1.6359  -16.6314  -40.7954 H         1 UNK         0.0600 
    128 H128       -2.8438  -17.1280  -41.9859 H         1 UNK         0.0600 
    129 H129       -3.2904  -16.0226  -40.6849 H         1 UNK         0.0600 
    130 H130       -2.4437  -16.1309  -43.9566 H         1 UNK         0.3000 
    131 H131       -2.2001  -13.2014  -44.0890 H         1 UNK         0.0600 
    132 H132       -2.6145  -13.5617  -46.5284 H         1 UNK         0.0800 
    133 H133       -2.6530  -15.2827  -46.2686 H         1 UNK         0.0800 
    134 H134       -6.2603  -15.9394  -45.2376 H         1 UNK         0.0800 
    135 H135       -4.7060  -16.4291  -44.6097 H         1 UNK         0.0800 
    136 H136       -4.9523  -14.9770  -48.0515 H         1 UNK         0.1150 
    137 H137       -4.1754  -18.7281  -49.9461 H         1 UNK         0.1150 
    138 H138       -4.8718  -18.5584  -45.7167 H         1 UNK         0.1150 
    139 H139       -3.2487  -20.5650  -47.8243 H         1 UNK         0.0800 
    140 H140       -4.7365  -20.7683  -48.7117 H         1 UNK         0.0800 
    141 H141       -4.2563  -21.0886  -44.1337 H         1 UNK         0.0800 
    142 H142       -3.2890  -20.1308  -45.2141 H         1 UNK         0.0800 
    143 H143       -2.2601  -22.2117  -46.1567 H         1 UNK         0.0600 
    144 H144       -1.6776  -21.0350  -43.6992 H         1 UNK         0.3000 
    145 H145        0.3584  -22.1114  -42.1747 H         1 UNK         0.0600 
    146 H146        2.7924  -22.0729  -42.7927 H         1 UNK         0.0600 
    147 H147        2.0386  -23.6099  -43.1703 H         1 UNK         0.0600 
    148 H148        2.3684  -22.4568  -44.4592 H         1 UNK         0.0600 
    149 H149        1.5146  -20.1765  -44.0340 H         1 UNK         0.3000 
    150 H150       -0.5720  -17.4781  -42.9300 H         1 UNK         0.0600 
    151 H151        2.4139  -18.1477  -43.0247 H         1 UNK         0.0600 
    152 H152        1.5158  -17.5331  -41.6476 H         1 UNK         0.0600 
    153 H153        1.7243  -16.5330  -43.0710 H         1 UNK         0.0600 
    154 H154        1.1259  -18.1458  -45.2359 H         1 UNK         0.3000 
    155 H155       -1.5407  -19.0758  -47.2597 H         1 UNK         0.0600 
    156 H156       -0.2466  -16.3402  -47.6607 H         1 UNK         0.0600 
    157 H157       -1.9534  -16.7408  -47.7943 H         1 UNK         0.0600 
    158 H158       -0.8205  -17.3859  -48.9578 H         1 UNK         0.0600 
    159 H159        1.3147  -18.3328  -47.4672 H         1 UNK         0.3000 
    160 H160        2.4556  -21.5597  -46.8227 H         1 UNK         0.0600 
    161 H161        2.1986  -20.5415  -49.7036 H         1 UNK         0.0600 
    162 H162        1.7967  -22.1558  -49.1216 H         1 UNK         0.0600 
    163 H163        3.4660  -21.6201  -49.1166 H         1 UNK         0.0600 
    164 H164        3.6835  -19.2949  -48.1072 H         1 UNK         0.3000 
    165 H165        4.2684  -17.3939  -45.1567 H         1 UNK         0.0600 
    166 H166        6.6054  -17.5317  -45.9784 H         1 UNK         0.0600 
    167 H167        6.2061  -18.9363  -46.9679 H         1 UNK         0.0600 
    168 H168        6.1436  -19.0432  -45.2125 H         1 UNK         0.0600 
    169 H169        4.9631  -16.9983  -47.9070 H         1 UNK         0.3000 
    170 H170        3.8723  -15.1881  -49.0081 H         1 UNK         0.0600 
    171 H171        3.2451  -17.4935  -49.9059 H         1 UNK         0.0600 
    172 H172        1.5472  -17.1191  -49.6424 H         1 UNK         0.0600 
    173 H173        2.4838  -16.2181  -50.8282 H         1 UNK         0.0600 
    174 H174        1.4131  -14.6298  -47.7213 H         1 UNK         0.3000 
    175 H175        0.5481  -11.8643  -49.8935 H         1 UNK         0.0600 
    176 H176       -0.9749  -14.1408  -48.5216 H         1 UNK         0.0600 
    177 H177       -1.6394  -12.5512  -48.8898 H         1 UNK         0.0600 
    178 H178       -1.1302  -13.6173  -50.1863 H         1 UNK         0.0600 
    179 H179        0.4100  -12.6061  -47.0409 H         1 UNK         0.3000 
    180 H180        2.8843  -10.3089  -46.0499 H         1 UNK         0.0600 
    181 H181       -0.1156   -9.6926  -45.8771 H         1 UNK         0.0600 
    182 H182        1.1187   -8.6017  -46.4954 H         1 UNK         0.0600 
    183 H183        1.1333   -9.0633  -44.8012 H         1 UNK         0.0600 
    184 H184        0.7416  -11.6344  -44.6448 H         1 UNK         0.3000 
    185 H185        2.1961  -14.8045  -44.4327 H         1 UNK         0.0600 
    186 H186        2.1901  -14.4524  -41.9561 H         1 UNK         0.0600 
    187 H187        3.5754  -13.6632  -42.6921 H         1 UNK         0.0600 
    188 H188        2.1854  -12.7067  -42.1928 H         1 UNK         0.0600 
    189 H189        0.0211  -13.8039  -42.9644 H         1 UNK         0.3000 
    190 H190       -3.0484  -23.4287  -42.9175 H         1 UNK         0.3000 
    191 H191       -4.7426  -25.5825  -43.7521 H         1 UNK         0.0600 
    192 H192       -4.3716  -26.3971  -41.4193 H         1 UNK         0.0600 
    193 H193       -4.7714  -24.6872  -41.4433 H         1 UNK         0.0600 
    194 H194       -3.1029  -25.2000  -41.1889 H         1 UNK         0.0600 
    195 H195       -1.2156  -25.3231  -43.2326 H         1 UNK         0.3000 
    196 H196       -0.6758  -28.1526  -43.5995 H         1 UNK         0.0600 
    197 H197        1.2145  -25.7431  -43.6525 H         1 UNK         0.0600 
    198 H198        0.7988  -26.6800  -42.2164 H         1 UNK         0.0600 
    199 H199        1.6886  -27.4306  -43.5331 H         1 UNK         0.0600 
    200 H200       -0.6391  -25.2304  -45.6295 H         1 UNK         0.3000 
    201 H201        0.2818  -26.4999  -48.0481 H         1 UNK         0.0600 
    202 H202       -1.2657  -23.8863  -47.6135 H         1 UNK         0.0600 
    203 H203       -0.3916  -24.3368  -49.0718 H         1 UNK         0.0600 
    204 H204        0.4870  -24.0441  -47.5792 H         1 UNK         0.0600 
    205 H205       -2.6592  -26.8175  -46.4068 H         1 UNK         0.3000 
    206 H206       -4.6987  -27.5663  -46.8122 H         1 UNK         0.0600 
    207 H207       -3.4513  -29.5378  -47.7292 H         1 UNK         0.0600 
    208 H208       -5.0050  -29.3238  -48.5196 H         1 UNK         0.0600 
    209 H209       -3.5302  -28.8390  -49.3464 H         1 UNK         0.0600 
    210 H210       -4.2009  -24.9586  -47.5486 H         1 UNK         0.3000 
    211 H211       -4.9429  -23.1655  -48.5154 H         1 UNK         0.0600 
    212 H212       -7.2629  -23.0386  -49.3290 H         1 UNK         0.0600 
    213 H213       -7.1919  -24.0631  -47.9066 H         1 UNK         0.0600 
    214 H214       -7.3413  -24.7851  -49.5098 H         1 UNK         0.0600 
    215 H215       -3.4576  -25.3332  -50.3444 H         1 UNK         0.3000 
    216 H216       -4.1453  -24.6824  -53.0151 H         1 UNK         0.0600 
    217 H217       -1.4614  -25.6843  -51.9206 H         1 UNK         0.0600 
    218 H218       -2.0216  -25.8078  -53.5835 H         1 UNK         0.0600 
    219 H219       -2.8417  -26.7120  -52.3186 H         1 UNK         0.0600 
    220 H220       -2.2308  -22.9315  -50.6991 H         1 UNK         0.3000 
    221 H221       -0.6565  -21.2834  -52.3803 H         1 UNK         0.0600 
    222 H222       -0.3457  -21.5658  -49.9066 H         1 UNK         0.0600 
    223 H223       -1.8297  -20.6642  -49.6179 H         1 UNK         0.0600 
    224 H224       -0.4496  -19.8681  -50.3609 H         1 UNK         0.0600 
    225 H225       -4.1104  -21.2091  -51.7861 H         1 UNK         0.3000 
    226 H226       -4.6151  -18.4530  -52.3377 H         1 UNK         0.0600 
    227 H227       -6.4395  -20.8981  -52.6397 H         1 UNK         0.0600 
    228 H228       -6.2264  -19.9583  -51.1620 H         1 UNK         0.0600 
    229 H229       -6.9664  -19.2198  -52.5739 H         1 UNK         0.0600 
    230 H230       -3.6321  -20.9869  -54.4598 H         1 UNK         0.3000 
    231 H231       -4.6638  -19.8698  -56.9326 H         1 UNK         0.0600 
    232 H232       -2.3305  -21.7857  -56.3922 H         1 UNK         0.0600 
    233 H233       -3.0570  -21.4630  -57.9619 H         1 UNK         0.0600 
    234 H234       -3.9965  -22.2673  -56.7132 H         1 UNK         0.0600 
    235 H235       -2.1014  -18.9936  -54.7489 H         1 UNK         0.3000 
    236 H236       -0.7918  -17.2074  -56.7494 H         1 UNK         0.0600 
    237 H237        0.7652  -18.8327  -55.7034 H         1 UNK         0.0600 
    238 H238        1.1160  -17.2057  -55.1549 H         1 UNK         0.0600 
    239 H239        0.2669  -18.3330  -54.0943 H         1 UNK         0.0600 
    240 H240       -0.1580  -16.3655  -53.5712 H         1 UNK         0.3000 
    241 H241       -0.5837  -14.6304  -52.3100 H         1 UNK         0.0600 
    242 H242       -1.5685  -11.3621  -53.8334 H         1 UNK         0.3800 
    243 H243       -2.1751  -12.2219  -52.4500 H         1 UNK         0.3800 
    244 H244       -3.5231  -15.0611  -53.0873 H         1 UNK         0.0800 
    245 H245       -3.0197  -13.9346  -51.8565 H         1 UNK         0.0800 
    246 H246       -5.0963  -16.4932  -51.2011 H         1 UNK         0.0800 
    247 H247       -4.6877  -15.0134  -50.3708 H         1 UNK         0.0800 
@<TRIPOS>BOND
     1    1    2 1    
     2    1  127 1    
     3    1  128 1    
     4    1  129 1    
     5    2    3 2    
     6    2    4 am   BACKBONE|DICT|INTERRES
     7    4    5 1    
     8    4  130 1    
     9    5    6 1    
    10    5   65 1    
    11    5  131 1    
    12    6    7 1    
    13    6  132 1    
    14    6  133 1    
    15    7    8 1    
    16    8    9 1    
    17    8  134 1    
    18    8  135 1    
    19    9   10 ar   
    20    9   14 ar   
    21   10   11 ar   
    22   10  136 1    
    23   11   12 ar   
    24   11  126 1    
    25   12   13 ar   
    26   12  137 1    
    27   13   14 ar   
    28   13   15 1    
    29   14  138 1    
    30   15   16 1    
    31   15  139 1    
    32   15  140 1    
    33   16   17 1    
    34   17   18 1    
    35   17  141 1    
    36   17  142 1    
    37   18   19 1    
    38   18   67 1    
    39   18  143 1    
    40   19   20 am   BACKBONE|DICT|INTERRES
    41   19  144 1    
    42   20   21 2    
    43   20   22 1    
    44   22   23 1    
    45   22   24 1    
    46   22  145 1    
    47   23  146 1    
    48   23  147 1    
    49   23  148 1    
    50   24   25 am   BACKBONE|DICT|INTERRES
    51   24  149 1    
    52   25   26 2    
    53   25   27 1    
    54   27   28 1    
    55   27   29 1    
    56   27  150 1    
    57   28  151 1    
    58   28  152 1    
    59   28  153 1    
    60   29   30 am   BACKBONE|DICT|INTERRES
    61   29  154 1    
    62   30   31 2    
    63   30   32 1    
    64   32   33 1    
    65   32   34 1    
    66   32  155 1    
    67   33  156 1    
    68   33  157 1    
    69   33  158 1    
    70   34   35 am   BACKBONE|DICT|INTERRES
    71   34  159 1    
    72   35   36 2    
    73   35   37 1    
    74   37   38 1    
    75   37   39 1    
    76   37  160 1    
    77   38  161 1    
    78   38  162 1    
    79   38  163 1    
    80   39   40 am   BACKBONE|DICT|INTERRES
    81   39  164 1    
    82   40   41 2    
    83   40   42 1    
    84   42   43 1    
    85   42   44 1    
    86   42  165 1    
    87   43  166 1    
    88   43  167 1    
    89   43  168 1    
    90   44   45 am   BACKBONE|DICT|INTERRES
    91   44  169 1    
    92   45   46 2    
    93   45   47 1    
    94   47   48 1    
    95   47   49 1    
    96   47  170 1    
    97   48  171 1    
    98   48  172 1    
    99   48  173 1    
   100   49   50 am   BACKBONE|DICT|INTERRES
   101   49  174 1    
   102   50   51 2    
   103   50   52 1    
   104   52   53 1    
   105   52   54 1    
   106   52  175 1    
   107   53  176 1    
   108   53  177 1    
   109   53  178 1    
   110   54   55 am   BACKBONE|DICT|INTERRES
   111   54  179 1    
   112   55   56 2    
   113   55   57 1    
   114   57   58 1    
   115   57   59 1    
   116   57  180 1    
   117   58  181 1    
   118   58  182 1    
   119   58  183 1    
   120   59   60 am   BACKBONE|DICT|INTERRES
   121   59  184 1    
   122   60   61 2    
   123   60   62 1    
   124   62   63 1    
   125   62   64 1    
   126   62  185 1    
   127   63  186 1    
   128   63  187 1    
   129   63  188 1    
   130   64   65 am   BACKBONE|DICT|INTERRES
   131   64  189 1    
   132   65   66 2    
   133   67   68 2    
   134   67   69 am   BACKBONE|DICT|INTERRES
   135   69   70 1    
   136   69  190 1    
   137   70   71 1    
   138   70   72 1    
   139   70  191 1    
   140   71  192 1    
   141   71  193 1    
   142   71  194 1    
   143   72   73 2    
   144   72   74 am   BACKBONE|DICT|INTERRES
   145   74   75 1    
   146   74  195 1    
   147   75   76 1    
   148   75   77 1    
   149   75  196 1    
   150   76  197 1    
   151   76  198 1    
   152   76  199 1    
   153   77   78 2    
   154   77   79 am   BACKBONE|DICT|INTERRES
   155   79   80 1    
   156   79  200 1    
   157   80   81 1    
   158   80   82 1    
   159   80  201 1    
   160   81  202 1    
   161   81  203 1    
   162   81  204 1    
   163   82   83 2    
   164   82   84 am   BACKBONE|DICT|INTERRES
   165   84   85 1    
   166   84  205 1    
   167   85   86 1    
   168   85   87 1    
   169   85  206 1    
   170   86  207 1    
   171   86  208 1    
   172   86  209 1    
   173   87   88 2    
   174   87   89 am   BACKBONE|DICT|INTERRES
   175   89   90 1    
   176   89  210 1    
   177   90   91 1    
   178   90   92 1    
   179   90  211 1    
   180   91  212 1    
   181   91  213 1    
   182   91  214 1    
   183   92   93 2    
   184   92   94 am   BACKBONE|DICT|INTERRES
   185   94   95 1    
   186   94  215 1    
   187   95   96 1    
   188   95   97 1    
   189   95  216 1    
   190   96  217 1    
   191   96  218 1    
   192   96  219 1    
   193   97   98 2    
   194   97   99 am   BACKBONE|DICT|INTERRES
   195   99  100 1    
   196   99  220 1    
   197  100  101 1    
   198  100  102 1    
   199  100  221 1    
   200  101  222 1    
   201  101  223 1    
   202  101  224 1    
   203  102  103 2    
   204  102  104 am   BACKBONE|DICT|INTERRES
   205  104  105 1    
   206  104  225 1    
   207  105  106 1    
   208  105  107 1    
   209  105  226 1    
   210  106  227 1    
   211  106  228 1    
   212  106  229 1    
   213  107  108 2    
   214  107  109 am   BACKBONE|DICT|INTERRES
   215  109  110 1    
   216  109  230 1    
   217  110  111 1    
   218  110  112 1    
   219  110  231 1    
   220  111  232 1    
   221  111  233 1    
   222  111  234 1    
   223  112  113 2    
   224  112  114 am   BACKBONE|DICT|INTERRES
   225  114  115 1    
   226  114  235 1    
   227  115  116 1    
   228  115  117 1    
   229  115  236 1    
   230  116  237 1    
   231  116  238 1    
   232  116  239 1    
   233  117  118 2    
   234  117  119 am   BACKBONE|DICT|INTERRES
   235  119  120 1    
   236  119  240 1    
   237  120  121 1    
   238  120  124 1    
   239  120  241 1    
   240  121  122 am   BACKBONE|DICT|INTERRES
   241  121  123 2    
   242  122  242 1    
   243  122  243 1    
   244  124  125 1    
   245  124  244 1    
   246  124  245 1    
   247  125  126 1    
   248  126  246 1    
   249  126  247 1    
@<TRIPOS>SUBSTRUCTURE
     1 UNK         1 GROUP             0       ****    0 ROOT    
