@<TRIPOS>MOLECULE
3R540
247   249    1
SMALL
USER_CHARGES


@<TRIPOS>ATOM
      1 CA         -4.5471  -10.7155  -43.6816 C.3       0 UNK        -0.1800 
      2 C          -4.2772  -10.7917  -45.1777 C.2       0 UNK         0.5000 
      3 O          -3.4339  -10.0543  -45.6872 O.2       0 UNK        -0.5000 
      4 N          -4.9897  -11.6798  -45.8816 N.am      1 UNK        -0.5000 
      5 CA         -4.8526  -11.9205  -47.3242 C.3       1 UNK         0.1400 
      6 C6         -6.1413  -12.5267  -47.9399 C.3       23 UNK        -0.0398 
      7 S7         -6.8114  -13.9817  -47.0530 S.3       23 UNK        -0.2404 
      8 C8         -6.9011  -15.2431  -48.3643 C.3       23 UNK        -0.0205 
      9 C9         -5.6162  -16.0497  -48.4589 C.ar      23 UNK        -0.0193 
     10 C10        -4.6165  -15.6928  -49.3662 C.ar      23 UNK        -0.1150 
     11 C11        -3.4298  -16.4277  -49.4425 C.ar      23 UNK        -0.0193 
     12 C12        -3.2487  -17.5309  -48.6022 C.ar      23 UNK        -0.1150 
     13 C13        -4.2528  -17.9119  -47.7070 C.ar      23 UNK        -0.0193 
     14 C14        -5.4317  -17.1652  -47.6383 C.ar      23 UNK        -0.1150 
     15 C15        -4.0717  -19.1258  -46.8111 C.3       23 UNK        -0.0205 
     16 S16        -3.0175  -18.7372  -45.3868 S.3       23 UNK        -0.2404 
     17 C17        -3.4373  -20.0941  -44.2462 C.3       23 UNK        -0.0398 
     18 CA         -3.0547  -21.5115  -44.7430 C.3       11 UNK         0.1400 
     19 N          -1.6113  -21.6813  -44.9832 N.am      11 UNK        -0.5000 
     20 C          -1.0278  -22.7991  -45.4484 C.2       10 UNK         0.5000 
     21 O          -1.6560  -23.8137  -45.7475 O.2       10 UNK        -0.5000 
     22 CA          0.5098  -22.8391  -45.5281 C.3       10 UNK         0.1400 
     23 CB          1.0032  -22.5626  -46.9531 C.3       10 UNK        -0.1800 
     24 N           1.1624  -21.9221  -44.5954 N.am      10 UNK        -0.5000 
     25 C           1.2464  -22.1172  -43.2724 C.2       9 UNK         0.5000 
     26 O           0.7795  -23.1006  -42.6974 O.2       9 UNK        -0.5000 
     27 CA          1.9502  -21.0186  -42.4531 C.3       9 UNK         0.1400 
     28 CB          3.4694  -21.2444  -42.4422 C.3       9 UNK        -0.1800 
     29 N           1.6662  -19.6751  -42.9567 N.am      9 UNK        -0.5000 
     30 C           0.4607  -19.0915  -42.9130 C.2       8 UNK         0.5000 
     31 O          -0.5169  -19.5873  -42.3532 O.2       8 UNK        -0.5000 
     32 CA          0.3105  -17.7521  -43.6576 C.3       8 UNK         0.1400 
     33 CB          0.7200  -16.5819  -42.7533 C.3       8 UNK        -0.1800 
     34 N           1.0628  -17.6964  -44.9153 N.am      8 UNK        -0.5000 
     35 C           0.8686  -18.5216  -45.9561 C.2       7 UNK         0.5000 
     36 O           0.0643  -19.4488  -45.9563 O.2       7 UNK        -0.5000 
     37 CA          1.7409  -18.3040  -47.1986 C.3       7 UNK         0.1400 
     38 CB          1.1778  -17.1647  -48.0522 C.3       7 UNK        -0.1800 
     39 N           3.1259  -18.0206  -46.8352 N.am      7 UNK        -0.5000 
     40 C           3.9809  -18.9550  -46.3972 C.2       6 UNK         0.5000 
     41 O           3.7065  -20.1530  -46.3179 O.2       6 UNK        -0.5000 
     42 CA          5.3604  -18.4585  -45.9295 C.3       6 UNK         0.1400 
     43 CB          6.2889  -18.2178  -47.1293 C.3       6 UNK        -0.1800 
     44 N           5.2784  -17.2375  -45.1267 N.am      6 UNK        -0.5000 
     45 C           4.6603  -17.1460  -43.9409 C.2       5 UNK         0.5000 
     46 O           4.0971  -18.0890  -43.3856 O.2       5 UNK        -0.5000 
     47 CA          4.6434  -15.7590  -43.2741 C.3       5 UNK         0.1400 
     48 CB          5.8903  -15.5738  -42.3967 C.3       5 UNK        -0.1800 
     49 N           4.5442  -14.6366  -44.2110 N.am      5 UNK        -0.5000 
     50 C           3.5584  -14.4338  -45.0966 C.2       4 UNK         0.5000 
     51 O           2.6318  -15.2291  -45.2802 O.2       4 UNK        -0.5000 
     52 CA          3.6153  -13.0948  -45.8641 C.3       4 UNK         0.1400 
     53 CB          5.0286  -12.7702  -46.3984 C.3       4 UNK        -0.1800 
     54 N           2.6155  -12.9956  -46.9312 N.am      4 UNK        -0.5000 
     55 C           2.5589  -13.6910  -48.0738 C.2       3 UNK         0.5000 
     56 O           3.3867  -14.5394  -48.4120 O.2       3 UNK        -0.5000 
     57 CA          1.3364  -13.3954  -48.9677 C.3       3 UNK         0.1400 
     58 CB          1.4908  -13.9543  -50.3940 C.3       3 UNK        -0.1800 
     59 N           0.1126  -13.9411  -48.3829 N.am      3 UNK        -0.5000 
     60 C          -0.5686  -13.4147  -47.3586 C.2       2 UNK         0.5000 
     61 O          -0.2616  -12.3592  -46.7987 O.2       2 UNK        -0.5000 
     62 CA         -1.7791  -14.2276  -46.8622 C.3       2 UNK         0.1400 
     63 CB         -1.4583  -14.9199  -45.5301 C.3       2 UNK        -0.1800 
     64 N          -2.9820  -13.4119  -46.7069 N.am      2 UNK        -0.5000 
     65 C          -3.5954  -12.7393  -47.6923 C.2       1 UNK         0.5000 
     66 O          -3.2107  -12.7430  -48.8626 O.2       1 UNK        -0.5000 
     67 C          -3.6495  -22.5645  -43.7809 C.2       11 UNK         0.5000 
     68 O          -4.8394  -22.8664  -43.8796 O.2       11 UNK        -0.5000 
     69 N          -2.8177  -23.1183  -42.8864 N.am      12 UNK        -0.5000 
     70 CA         -3.1718  -24.2201  -41.9927 C.3       12 UNK         0.1400 
     71 CB         -2.0785  -24.3653  -40.9235 C.3       12 UNK        -0.1800 
     72 C          -3.3887  -25.5588  -42.7289 C.2       12 UNK         0.5000 
     73 O          -4.1140  -26.4106  -42.2135 O.2       12 UNK        -0.5000 
     74 N          -2.7677  -25.7270  -43.9057 N.am      13 UNK        -0.5000 
     75 CA         -2.9350  -26.8942  -44.7668 C.3       13 UNK         0.1400 
     76 CB         -1.6317  -27.1767  -45.5330 C.3       13 UNK        -0.1800 
     77 C          -4.1173  -26.6949  -45.7275 C.2       13 UNK         0.5000 
     78 O          -4.9990  -27.5539  -45.7763 O.2       13 UNK        -0.5000 
     79 N          -4.1332  -25.5695  -46.4558 N.am      14 UNK        -0.5000 
     80 CA         -5.1783  -25.2166  -47.4160 C.3       14 UNK         0.1400 
     81 CB         -5.1117  -26.1374  -48.6524 C.3       14 UNK        -0.1800 
     82 C          -5.0629  -23.7409  -47.8249 C.2       14 UNK         0.5000 
     83 O          -3.9934  -23.1430  -47.6991 O.2       14 UNK        -0.5000 
     84 N          -6.1712  -23.1865  -48.3313 N.am      15 UNK        -0.5000 
     85 CA         -6.2777  -21.8179  -48.8413 C.3       15 UNK         0.1400 
     86 CB         -7.7555  -21.5201  -49.1399 C.3       15 UNK        -0.1800 
     87 C          -5.4125  -21.5664  -50.0932 C.2       15 UNK         0.5000 
     88 O          -5.0039  -22.5159  -50.7670 O.2       15 UNK        -0.5000 
     89 N          -5.1616  -20.2793  -50.3789 N.am      16 UNK        -0.5000 
     90 CA         -4.3599  -19.7667  -51.4989 C.3       16 UNK         0.1400 
     91 CB         -5.0914  -19.9805  -52.8365 C.3       16 UNK        -0.1800 
     92 C          -2.9236  -20.3287  -51.4883 C.2       16 UNK         0.5000 
     93 O          -2.4566  -20.9014  -52.4766 O.2       16 UNK        -0.5000 
     94 N          -2.2926  -20.2109  -50.3098 N.am      17 UNK        -0.5000 
     95 CA         -0.9453  -20.6723  -49.9518 C.3       17 UNK         0.1400 
     96 CB          0.1167  -19.8401  -50.6990 C.3       17 UNK        -0.1800 
     97 C          -0.7408  -22.1936  -50.1280 C.2       17 UNK         0.5000 
     98 O           0.3902  -22.6407  -50.3193 O.2       17 UNK        -0.5000 
     99 N          -1.8470  -22.9528  -50.0880 N.am      18 UNK        -0.5000 
    100 CA        -1.9681  -24.3939  -50.3274 C.3       18 UNK         0.1400 
    101 CB        -1.2827  -25.1926  -49.2007 C.3       18 UNK        -0.1800 
    102 C         -1.5196  -24.8456  -51.7357 C.2       18 UNK         0.5000 
    103 O         -1.2896  -26.0376  -51.9462 O.2       18 UNK        -0.5000 
    104 N         -1.4118  -23.8970  -52.6747 N.am      19 UNK        -0.5000 
    105 CA        -0.9073  -24.1007  -54.0330 C.3       19 UNK         0.1400 
    106 CB         0.3840  -23.2801  -54.1890 C.3       19 UNK        -0.1800 
    107 C         -1.9422  -23.7064  -55.1019 C.2       19 UNK         0.5000 
    108 O         -1.6325  -23.7859  -56.2911 O.2       19 UNK        -0.5000 
    109 N         -3.1360  -23.2703  -54.6680 N.am      20 UNK        -0.5000 
    110 CA        -4.2389  -22.7321  -55.4767 C.3       20 UNK         0.1400 
    111 CB        -4.7698  -23.7817  -56.4760 C.3       20 UNK        -0.1800 
    112 C         -3.9093  -21.3804  -56.1516 C.2       20 UNK         0.5000 
    113 O         -4.6254  -20.9635  -57.0635 O.2       20 UNK        -0.5000 
    114 N         -2.8537  -20.7084  -55.6785 N.am      21 UNK        -0.5000 
    115 CA        -2.3632  -19.4165  -56.1369 C.3       21 UNK         0.1400 
    116 CB        -1.7318  -19.5283  -57.5379 C.3       21 UNK        -0.1800 
    117 C         -1.3334  -18.9281  -55.1120 C.2       21 UNK         0.5000 
    118 O         -0.4136  -19.6755  -54.7729 O.2       21 UNK        -0.5000 
    119 N         -1.5104  -17.6951  -54.6325 N.am      22 UNK        -0.5000 
    120 CA        -0.6235  -17.0447  -53.6581 C.3       22 UNK         0.1400 
    121 C          0.7461  -16.6491  -54.2748 C.2       22 UNK         0.5000 
    122 N          1.8339  -16.7872  -53.5289 N.am      22 UNK        -0.7600 
    123 O          0.8252  -16.1761  -55.4066 O.2       22 UNK        -0.5000 
    124 C124       -1.3069  -15.8128  -53.0179 C.3       23 UNK        -0.0398 
    125 S125       -2.8382  -16.2667  -52.1362 S.3       23 UNK        -0.2404 
    126 C126       -2.3360  -16.0052  -50.4103 C.3       23 UNK        -0.0205 
    127 H127       -3.6374  -10.9393  -43.1245 H         1 UNK         0.0600 
    128 H128       -4.8766   -9.7126  -43.4103 H         1 UNK         0.0600 
    129 H129       -5.3179  -11.4218  -43.3720 H         1 UNK         0.0600 
    130 H130       -5.6747  -12.2585  -45.4147 H         1 UNK         0.3000 
    131 H131       -4.7123  -10.9482  -47.8019 H         1 UNK         0.0600 
    132 H132       -6.9229  -11.7660  -47.9315 H         1 UNK         0.0800 
    133 H133       -5.9889  -12.7629  -48.9943 H         1 UNK         0.0800 
    134 H134       -7.1418  -14.7824  -49.3235 H         1 UNK         0.0800 
    135 H135       -7.7317  -15.9144  -48.1411 H         1 UNK         0.0800 
    136 H136       -4.7524  -14.8327  -50.0068 H         1 UNK         0.1150 
    137 H137       -2.3205  -18.0824  -48.6287 H         1 UNK         0.1150 
    138 H138       -6.2054  -17.4448  -46.9368 H         1 UNK         0.1150 
    139 H139       -5.0414  -19.4796  -46.4580 H         1 UNK         0.0800 
    140 H140       -3.6265  -19.9456  -47.3765 H         1 UNK         0.0800 
    141 H141       -4.5108  -20.0307  -44.0568 H         1 UNK         0.0800 
    142 H142       -2.9566  -19.8876  -43.2894 H         1 UNK         0.0800 
    143 H143       -3.5473  -21.6699  -45.7005 H         1 UNK         0.0600 
    144 H144       -1.0315  -20.8602  -44.8496 H         1 UNK         0.3000 
    145 H145        0.8169  -23.8544  -45.2680 H         1 UNK         0.0600 
    146 H146        2.0902  -22.6167  -47.0141 H         1 UNK         0.0600 
    147 H147        0.6031  -23.3032  -47.6452 H         1 UNK         0.0600 
    148 H148        0.6976  -21.5799  -47.3082 H         1 UNK         0.0600 
    149 H149        1.5335  -21.0677  -44.9884 H         1 UNK         0.3000 
    150 H150        1.5864  -21.0825  -41.4255 H         1 UNK         0.0600 
    151 H151        3.7155  -22.2385  -42.0670 H         1 UNK         0.0600 
    152 H152        3.9699  -20.5203  -41.7990 H         1 UNK         0.0600 
    153 H153        3.8962  -21.1530  -43.4421 H         1 UNK         0.0600 
    154 H154        2.4424  -19.1684  -43.3725 H         1 UNK         0.3000 
    155 H155       -0.7443  -17.6276  -43.9057 H         1 UNK         0.0600 
    156 H156        1.7446  -16.6911  -42.4022 H         1 UNK         0.0600 
    157 H157        0.0785  -16.5309  -41.8728 H         1 UNK         0.0600 
    158 H158        0.6381  -15.6267  -43.2721 H         1 UNK         0.0600 
    159 H159        1.7323  -16.9382  -45.0119 H         1 UNK         0.3000 
    160 H160        1.7141  -19.2176  -47.7967 H         1 UNK         0.0600 
    161 H161        1.7631  -17.0258  -48.9610 H         1 UNK         0.0600 
    162 H162        1.1858  -16.2300  -47.4947 H         1 UNK         0.0600 
    163 H163        0.1481  -17.3682  -48.3472 H         1 UNK         0.0600 
    164 H164        3.4083  -17.0497  -46.8288 H         1 UNK         0.3000 
    165 H165        5.8008  -19.2402  -45.3069 H         1 UNK         0.0600 
    166 H166        7.2932  -17.9474  -46.8027 H         1 UNK         0.0600 
    167 H167        6.3779  -19.1172  -47.7401 H         1 UNK         0.0600 
    168 H168        5.9182  -17.4188  -47.7730 H         1 UNK         0.0600 
    169 H169        5.7030  -16.4067  -45.5114 H         1 UNK         0.3000 
    170 H170        3.7696  -15.7152  -42.6239 H         1 UNK         0.0600 
    171 H171        5.9810  -16.3830  -41.6707 H         1 UNK         0.0600 
    172 H172        6.8042  -15.5630  -42.9920 H         1 UNK         0.0600 
    173 H173        5.8435  -14.6406  -41.8350 H         1 UNK         0.0600 
    174 H174        5.2614  -13.9310  -44.1275 H         1 UNK         0.3000 
    175 H175        3.3485  -12.3217  -45.1424 H         1 UNK         0.0600 
    176 H176        5.4291  -13.5790  -47.0104 H         1 UNK         0.0600 
    177 H177        5.0206  -11.8655  -47.0066 H         1 UNK         0.0600 
    178 H178        5.7334  -12.5966  -45.5850 H         1 UNK         0.0600 
    179 H179        1.8134  -12.4113  -46.7198 H         1 UNK         0.3000 
    180 H180        1.2388  -12.3105  -49.0470 H         1 UNK         0.0600 
    181 H181        1.5400  -15.0433  -50.4038 H         1 UNK         0.0600 
    182 H182        2.4022  -13.5809  -50.8626 H         1 UNK         0.0600 
    183 H183        0.6563  -13.6495  -51.0253 H         1 UNK         0.0600 
    184 H184       -0.1939  -14.8219  -48.7630 H         1 UNK         0.3000 
    185 H185       -2.0024  -15.0035  -47.5934 H         1 UNK         0.0600 
    186 H186       -1.2870  -14.1984  -44.7303 H         1 UNK         0.0600 
    187 H187       -2.2682  -15.5820  -45.2228 H         1 UNK         0.0600 
    188 H188       -0.5586  -15.5284  -45.6192 H         1 UNK         0.0600 
    189 H189       -3.3559  -13.3286  -45.7741 H         1 UNK         0.3000 
    190 H190       -1.8526  -22.8172  -42.8735 H         1 UNK         0.3000 
    191 H191       -4.1074  -23.9636  -41.4913 H         1 UNK         0.0600 
    192 H192       -1.1175  -24.6308  -41.3657 H         1 UNK         0.0600 
    193 H193       -2.3356  -25.1452  -40.2056 H         1 UNK         0.0600 
    194 H194       -1.9463  -23.4392  -40.3638 H         1 UNK         0.0600 
    195 H195       -2.2436  -24.9548  -44.3046 H         1 UNK         0.3000 
    196 H196       -3.1454  -27.7717  -44.1515 H         1 UNK         0.0600 
    197 H197       -1.7296  -28.0746  -46.1442 H         1 UNK         0.0600 
    198 H198       -0.8003  -27.3393  -44.8470 H         1 UNK         0.0600 
    199 H199       -1.3582  -26.3598  -46.1999 H         1 UNK         0.0600 
    200 H200       -3.3900  -24.8822  -46.3560 H         1 UNK         0.3000 
    201 H201       -6.1475  -25.3428  -46.9290 H         1 UNK         0.0600 
    202 H202       -5.4513  -27.1451  -48.4138 H         1 UNK         0.0600 
    203 H203       -4.0968  -26.2183  -49.0384 H         1 UNK         0.0600 
    204 H204       -5.7455  -25.7729  -49.4619 H         1 UNK         0.0600 
    205 H205       -6.9947  -23.7606  -48.4357 H         1 UNK         0.3000 
    206 H206       -5.9388  -21.1439  -48.0531 H         1 UNK         0.0600 
    207 H207       -8.1473  -22.1755  -49.9189 H         1 UNK         0.0600 
    208 H208       -8.3721  -21.6499  -48.2502 H         1 UNK         0.0600 
    209 H209       -7.8923  -20.4921  -49.4778 H         1 UNK         0.0600 
    210 H210       -5.5568  -19.5700  -49.7773 H         1 UNK         0.3000 
    211 H211       -4.2718  -18.6914  -51.3460 H         1 UNK         0.0600 
    212 H212       -5.2225  -21.0385  -53.0563 H         1 UNK         0.0600 
    213 H213       -4.5356  -19.5318  -53.6600 H         1 UNK         0.0600 
    214 H214       -6.0780  -19.5179  -52.8224 H         1 UNK         0.0600 
    215 H215       -2.8101  -19.7735  -49.5627 H         1 UNK         0.3000 
    216 H216       -0.8305  -20.4742  -48.8850 H         1 UNK         0.0600 
    217 H217        0.0997  -20.0379  -51.7716 H         1 UNK         0.0600 
    218 H218        1.1204  -20.0691  -50.3392 H         1 UNK         0.0600 
    219 H219       -0.0432  -18.7726  -50.5511 H         1 UNK         0.0600 
    220 H220       -2.7292  -22.4856  -49.9248 H         1 UNK         0.3000 
    221 H221       -3.0367  -24.6015  -50.2822 H         1 UNK         0.0600 
    222 H222       -0.1989  -25.0793  -49.2255 H         1 UNK         0.0600 
    223 H223       -1.6338  -24.8652  -48.2228 H         1 UNK         0.0600 
    224 H224       -1.5025  -26.2576  -49.2809 H         1 UNK         0.0600 
    225 H225       -1.6194  -22.9384  -52.4165 H         1 UNK         0.3000 
    226 H226       -0.6675  -25.1517  -54.2045 H         1 UNK         0.0600 
    227 H227        1.1372  -23.5933  -53.4658 H         1 UNK         0.0600 
    228 H228        0.8168  -23.4037  -55.1825 H         1 UNK         0.0600 
    229 H229        0.2015  -22.2156  -54.0378 H         1 UNK         0.0600 
    230 H230       -3.2790  -23.2370  -53.6682 H         1 UNK         0.3000 
    231 H231       -5.0483  -22.5280  -54.7765 H         1 UNK         0.0600 
    232 H232       -4.9783  -24.7296  -55.9801 H         1 UNK         0.0600 
    233 H233       -4.0623  -23.9721  -57.2832 H         1 UNK         0.0600 
    234 H234       -5.7003  -23.4464  -56.9353 H         1 UNK         0.0600 
    235 H235       -2.3440  -21.0918  -54.8906 H         1 UNK         0.3000 
    236 H236       -3.2010  -18.7171  -56.1722 H         1 UNK         0.0600 
    237 H237       -1.3039  -18.5745  -57.8489 H         1 UNK         0.0600 
    238 H238       -0.9323  -20.2701  -57.5576 H         1 UNK         0.0600 
    239 H239       -2.4687  -19.8112  -58.2893 H         1 UNK         0.0600 
    240 H240       -2.2797  -17.1358  -54.9693 H         1 UNK         0.3000 
    241 H241       -0.4321  -17.7677  -52.8628 H         1 UNK         0.0600 
    242 H242        2.7252  -16.5186  -53.9159 H         1 UNK         0.3800 
    243 H243        1.7984  -17.1783  -52.6013 H         1 UNK         0.3800 
    244 H244       -0.6275  -15.3135  -52.3257 H         1 UNK         0.0800 
    245 H245       -1.5562  -15.0731  -53.7807 H         1 UNK         0.0800 
    246 H246       -1.4160  -16.5583  -50.2177 H         1 UNK         0.0800 
    247 H247       -2.1103  -14.9484  -50.2598 H         1 UNK         0.0800 
@<TRIPOS>BOND
     1    1    2 1    
     2    1  127 1    
     3    1  128 1    
     4    1  129 1    
     5    2    3 2    
     6    2    4 am   BACKBONE|DICT|INTERRES
     7    4    5 1    
     8    4  130 1    
     9    5    6 1    
    10    5   65 1    
    11    5  131 1    
    12    6    7 1    
    13    6  132 1    
    14    6  133 1    
    15    7    8 1    
    16    8    9 1    
    17    8  134 1    
    18    8  135 1    
    19    9   10 ar   
    20    9   14 ar   
    21   10   11 ar   
    22   10  136 1    
    23   11   12 ar   
    24   11  126 1    
    25   12   13 ar   
    26   12  137 1    
    27   13   14 ar   
    28   13   15 1    
    29   14  138 1    
    30   15   16 1    
    31   15  139 1    
    32   15  140 1    
    33   16   17 1    
    34   17   18 1    
    35   17  141 1    
    36   17  142 1    
    37   18   19 1    
    38   18   67 1    
    39   18  143 1    
    40   19   20 am   BACKBONE|DICT|INTERRES
    41   19  144 1    
    42   20   21 2    
    43   20   22 1    
    44   22   23 1    
    45   22   24 1    
    46   22  145 1    
    47   23  146 1    
    48   23  147 1    
    49   23  148 1    
    50   24   25 am   BACKBONE|DICT|INTERRES
    51   24  149 1    
    52   25   26 2    
    53   25   27 1    
    54   27   28 1    
    55   27   29 1    
    56   27  150 1    
    57   28  151 1    
    58   28  152 1    
    59   28  153 1    
    60   29   30 am   BACKBONE|DICT|INTERRES
    61   29  154 1    
    62   30   31 2    
    63   30   32 1    
    64   32   33 1    
    65   32   34 1    
    66   32  155 1    
    67   33  156 1    
    68   33  157 1    
    69   33  158 1    
    70   34   35 am   BACKBONE|DICT|INTERRES
    71   34  159 1    
    72   35   36 2    
    73   35   37 1    
    74   37   38 1    
    75   37   39 1    
    76   37  160 1    
    77   38  161 1    
    78   38  162 1    
    79   38  163 1    
    80   39   40 am   BACKBONE|DICT|INTERRES
    81   39  164 1    
    82   40   41 2    
    83   40   42 1    
    84   42   43 1    
    85   42   44 1    
    86   42  165 1    
    87   43  166 1    
    88   43  167 1    
    89   43  168 1    
    90   44   45 am   BACKBONE|DICT|INTERRES
    91   44  169 1    
    92   45   46 2    
    93   45   47 1    
    94   47   48 1    
    95   47   49 1    
    96   47  170 1    
    97   48  171 1    
    98   48  172 1    
    99   48  173 1    
   100   49   50 am   BACKBONE|DICT|INTERRES
   101   49  174 1    
   102   50   51 2    
   103   50   52 1    
   104   52   53 1    
   105   52   54 1    
   106   52  175 1    
   107   53  176 1    
   108   53  177 1    
   109   53  178 1    
   110   54   55 am   BACKBONE|DICT|INTERRES
   111   54  179 1    
   112   55   56 2    
   113   55   57 1    
   114   57   58 1    
   115   57   59 1    
   116   57  180 1    
   117   58  181 1    
   118   58  182 1    
   119   58  183 1    
   120   59   60 am   BACKBONE|DICT|INTERRES
   121   59  184 1    
   122   60   61 2    
   123   60   62 1    
   124   62   63 1    
   125   62   64 1    
   126   62  185 1    
   127   63  186 1    
   128   63  187 1    
   129   63  188 1    
   130   64   65 am   BACKBONE|DICT|INTERRES
   131   64  189 1    
   132   65   66 2    
   133   67   68 2    
   134   67   69 am   BACKBONE|DICT|INTERRES
   135   69   70 1    
   136   69  190 1    
   137   70   71 1    
   138   70   72 1    
   139   70  191 1    
   140   71  192 1    
   141   71  193 1    
   142   71  194 1    
   143   72   73 2    
   144   72   74 am   BACKBONE|DICT|INTERRES
   145   74   75 1    
   146   74  195 1    
   147   75   76 1    
   148   75   77 1    
   149   75  196 1    
   150   76  197 1    
   151   76  198 1    
   152   76  199 1    
   153   77   78 2    
   154   77   79 am   BACKBONE|DICT|INTERRES
   155   79   80 1    
   156   79  200 1    
   157   80   81 1    
   158   80   82 1    
   159   80  201 1    
   160   81  202 1    
   161   81  203 1    
   162   81  204 1    
   163   82   83 2    
   164   82   84 am   BACKBONE|DICT|INTERRES
   165   84   85 1    
   166   84  205 1    
   167   85   86 1    
   168   85   87 1    
   169   85  206 1    
   170   86  207 1    
   171   86  208 1    
   172   86  209 1    
   173   87   88 2    
   174   87   89 am   BACKBONE|DICT|INTERRES
   175   89   90 1    
   176   89  210 1    
   177   90   91 1    
   178   90   92 1    
   179   90  211 1    
   180   91  212 1    
   181   91  213 1    
   182   91  214 1    
   183   92   93 2    
   184   92   94 am   BACKBONE|DICT|INTERRES
   185   94   95 1    
   186   94  215 1    
   187   95   96 1    
   188   95   97 1    
   189   95  216 1    
   190   96  217 1    
   191   96  218 1    
   192   96  219 1    
   193   97   98 2    
   194   97   99 am   BACKBONE|DICT|INTERRES
   195   99  100 1    
   196   99  220 1    
   197  100  101 1    
   198  100  102 1    
   199  100  221 1    
   200  101  222 1    
   201  101  223 1    
   202  101  224 1    
   203  102  103 2    
   204  102  104 am   BACKBONE|DICT|INTERRES
   205  104  105 1    
   206  104  225 1    
   207  105  106 1    
   208  105  107 1    
   209  105  226 1    
   210  106  227 1    
   211  106  228 1    
   212  106  229 1    
   213  107  108 2    
   214  107  109 am   BACKBONE|DICT|INTERRES
   215  109  110 1    
   216  109  230 1    
   217  110  111 1    
   218  110  112 1    
   219  110  231 1    
   220  111  232 1    
   221  111  233 1    
   222  111  234 1    
   223  112  113 2    
   224  112  114 am   BACKBONE|DICT|INTERRES
   225  114  115 1    
   226  114  235 1    
   227  115  116 1    
   228  115  117 1    
   229  115  236 1    
   230  116  237 1    
   231  116  238 1    
   232  116  239 1    
   233  117  118 2    
   234  117  119 am   BACKBONE|DICT|INTERRES
   235  119  120 1    
   236  119  240 1    
   237  120  121 1    
   238  120  124 1    
   239  120  241 1    
   240  121  122 am   BACKBONE|DICT|INTERRES
   241  121  123 2    
   242  122  242 1    
   243  122  243 1    
   244  124  125 1    
   245  124  244 1    
   246  124  245 1    
   247  125  126 1    
   248  126  246 1    
   249  126  247 1    
@<TRIPOS>SUBSTRUCTURE
     1 UNK         1 GROUP             0       ****    0 ROOT    
