@<TRIPOS>MOLECULE
3R540
247   249    1
SMALL
USER_CHARGES


@<TRIPOS>ATOM
      1 CA         -1.3605   -9.0102  -51.3850 C.3       0 UNK        -0.1800 
      2 C          -0.5967   -9.6723  -50.2467 C.2       0 UNK         0.5000 
      3 O           0.1638   -9.0018  -49.5478 O.2       0 UNK        -0.5000 
      4 N          -0.7897  -10.9843  -50.0632 N.am      1 UNK        -0.5000 
      5 CA         -0.1989  -11.7752  -48.9795 C.3       1 UNK         0.1400 
      6 C6         -0.3079  -13.2934  -49.2688 C.3       23 UNK        -0.0398 
      7 S7          0.9987  -14.2664  -48.4403 S.3       23 UNK        -0.2404 
      8 C8          1.7587  -15.1474  -49.8453 C.3       23 UNK        -0.0205 
      9 C9          1.0465  -16.4573  -50.1634 C.ar      23 UNK        -0.0193 
     10 C10        -0.2200  -16.4573  -50.7610 C.ar      23 UNK        -0.1150 
     11 C11        -0.8707  -17.6600  -51.0476 C.ar      23 UNK        -0.0193 
     12 C12        -0.2325  -18.8675  -50.7651 C.ar      23 UNK        -0.1150 
     13 C13         1.0301  -18.8874  -50.1707 C.ar      23 UNK        -0.0193 
     14 C14         1.6645  -17.6785  -49.8697 C.ar      23 UNK        -0.1150 
     15 C15         1.6990  -20.2180  -49.8550 C.3       23 UNK        -0.0205 
     16 S16         1.7562  -20.5565  -48.0673 S.3       23 UNK        -0.2404 
     17 C17        -0.0051  -20.5008  -47.5914 C.3       23 UNK        -0.0398 
     18 CA         -0.4551  -21.7353  -46.7751 C.3       11 UNK         0.1400 
     19 N           0.3358  -21.9062  -45.5568 N.am      11 UNK        -0.5000 
     20 C           0.3977  -23.0113  -44.8062 C.2       10 UNK         0.5000 
     21 O          -0.1881  -24.0565  -45.0906 O.2       10 UNK        -0.5000 
     22 CA          1.2171  -22.9106  -43.5009 C.3       10 UNK         0.1400 
     23 CB          1.8446  -24.2553  -43.0801 C.3       10 UNK        -0.1800 
     24 N           2.2166  -21.8342  -43.5153 N.am      10 UNK        -0.5000 
     25 C           3.3085  -21.7320  -44.2904 C.2       9 UNK         0.5000 
     26 O           3.6598  -22.5961  -45.0943 O.2       9 UNK        -0.5000 
     27 CA          4.1491  -20.4424  -44.1668 C.3       9 UNK         0.1400 
     28 CB          4.0587  -19.6107  -45.4550 C.3       9 UNK        -0.1800 
     29 N           3.7581  -19.5922  -43.0416 N.am      9 UNK        -0.5000 
     30 C           4.0721  -19.8220  -41.7606 C.2       8 UNK         0.5000 
     31 O           4.7798  -20.7575  -41.3858 O.2       8 UNK        -0.5000 
     32 CA          3.4587  -18.8657  -40.7209 C.3       8 UNK         0.1400 
     33 CB          4.3272  -17.6084  -40.5655 C.3       8 UNK        -0.1800 
     34 N           2.0802  -18.4757  -41.0348 N.am      8 UNK        -0.5000 
     35 C           1.0426  -19.3235  -41.0978 C.2       7 UNK         0.5000 
     36 O           1.1384  -20.5355  -40.9062 O.2       7 UNK        -0.5000 
     37 CA         -0.3249  -18.7319  -41.4780 C.3       7 UNK         0.1400 
     38 CB         -0.9569  -17.9927  -40.2896 C.3       7 UNK        -0.1800 
     39 N          -0.2426  -17.8424  -42.6353 N.am      7 UNK        -0.5000 
     40 C           0.0271  -18.2497  -43.8831 C.2       6 UNK         0.5000 
     41 O           0.1433  -19.4331  -44.2001 O.2       6 UNK        -0.5000 
     42 CA          0.2197  -17.1630  -44.9567 C.3       6 UNK         0.1400 
     43 CB         -1.1277  -16.7558  -45.5697 C.3       6 UNK        -0.1800 
     44 N           0.9076  -15.9774  -44.4474 N.am      6 UNK        -0.5000 
     45 C           2.1624  -15.9750  -43.9757 C.2       5 UNK         0.5000 
     46 O           2.8876  -16.9686  -43.9459 O.2       5 UNK        -0.5000 
     47 CA          2.6691  -14.6530  -43.3792 C.3       5 UNK         0.1400 
     48 CB          3.0760  -13.6680  -44.4860 C.3       5 UNK        -0.1800 
     49 N           1.6726  -14.0402  -42.5000 N.am      5 UNK        -0.5000 
     50 C           1.3002  -14.5472  -41.3154 C.2       4 UNK         0.5000 
     51 O           1.7784  -15.5711  -40.8290 O.2       4 UNK        -0.5000 
     52 CA          0.1769  -13.8087  -40.5657 C.3       4 UNK         0.1400 
     53 CB          0.7438  -12.6213  -39.7735 C.3       4 UNK        -0.1800 
     54 N          -0.8797  -13.3359  -41.4599 N.am      4 UNK        -0.5000 
     55 C          -1.7024  -14.1366  -42.1523 C.2       3 UNK         0.5000 
     56 O          -1.6814  -15.3642  -42.0850 O.2       3 UNK        -0.5000 
     57 CA         -2.6737  -13.4465  -43.1269 C.3       3 UNK         0.1400 
     58 CB         -3.9542  -13.0106  -42.3996 C.3       3 UNK        -0.1800 
     59 N          -2.0779  -12.2916  -43.8052 N.am      3 UNK        -0.5000 
     60 C          -1.0174  -12.3626  -44.6195 C.2       2 UNK         0.5000 
     61 O          -0.4114  -13.4089  -44.8634 O.2       2 UNK        -0.5000 
     62 CA         -0.5165  -11.0385  -45.2183 C.3       2 UNK         0.1400 
     63 CB          0.6290  -10.4647  -44.3701 C.3       2 UNK        -0.1800 
     64 N          -0.0468  -11.2424  -46.5865 N.am      2 UNK        -0.5000 
     65 C          -0.8610  -11.4151  -47.6339 C.2       1 UNK         0.5000 
     66 O          -2.0896  -11.3146  -47.5695 O.2       1 UNK        -0.5000 
     67 C          -1.9502  -21.6071  -46.4320 C.2       11 UNK         0.5000 
     68 O          -2.7902  -22.1579  -47.1423 O.2       11 UNK        -0.5000 
     69 N          -2.2502  -20.9001  -45.3304 N.am      12 UNK        -0.5000 
     70 CA         -3.6039  -20.5991  -44.8534 C.3       12 UNK         0.1400 
     71 CB         -3.5118  -19.6666  -43.6366 C.3       12 UNK        -0.1800 
     72 C          -4.4510  -21.8419  -44.5129 C.2       12 UNK         0.5000 
     73 O          -5.6790  -21.7679  -44.5554 O.2       12 UNK        -0.5000 
     74 N          -3.7840  -22.9636  -44.2087 N.am      13 UNK        -0.5000 
     75 CA         -4.3943  -24.2608  -43.9165 C.3       13 UNK         0.1400 
     76 CB         -3.3135  -25.1917  -43.3446 C.3       13 UNK        -0.1800 
     77 C          -5.0843  -24.9193  -45.1300 C.2       13 UNK         0.5000 
     78 O          -5.9271  -25.7957  -44.9324 O.2       13 UNK        -0.5000 
     79 N          -4.7263  -24.5010  -46.3512 N.am      14 UNK        -0.5000 
     80 CA         -5.2708  -25.0173  -47.6061 C.3       14 UNK         0.1400 
     81 CB         -4.4193  -26.2076  -48.0884 C.3       14 UNK        -0.1800 
     82 C          -5.3642  -23.8874  -48.6439 C.2       14 UNK         0.5000 
     83 O          -5.0591  -24.1063  -49.8164 O.2       14 UNK        -0.5000 
     84 N          -5.7722  -22.6920  -48.1887 N.am      15 UNK        -0.5000 
     85 CA         -5.7295  -21.4138  -48.9123 C.3       15 UNK         0.1400 
     86 CB         -6.4219  -20.3374  -48.0630 C.3       15 UNK        -0.1800 
     87 C          -6.3272  -21.4266  -50.3325 C.2       15 UNK         0.5000 
     88 O          -5.7989  -20.7518  -51.2144 O.2       15 UNK        -0.5000 
     89 N          -7.3899  -22.2176  -50.5301 N.am      16 UNK        -0.5000 
     90 CA         -8.0936  -22.3915  -51.8024 C.3       16 UNK         0.1400 
     91 CB         -9.4325  -23.0940  -51.5265 C.3       16 UNK        -0.1800 
     92 C          -7.2977  -23.1557  -52.8823 C.2       16 UNK         0.5000 
     93 O          -7.7006  -23.1223  -54.0469 O.2       16 UNK        -0.5000 
     94 N          -6.2069  -23.8331  -52.4994 N.am      17 UNK        -0.5000 
     95 CA         -5.3327  -24.5932  -53.3973 C.3       17 UNK         0.1400 
     96 CB         -5.6047  -26.0926  -53.1860 C.3       17 UNK        -0.1800 
     97 C          -3.8411  -24.2653  -53.1853 C.2       17 UNK         0.5000 
     98 O          -2.9907  -24.8903  -53.8232 O.2       17 UNK        -0.5000 
     99 N          -3.5366  -23.3235  -52.2822 N.am      18 UNK        -0.5000 
    100 CA        -2.1861  -23.0031  -51.8270 C.3       18 UNK         0.1400 
    101 CB        -2.2706  -22.0555  -50.6255 C.3       18 UNK        -0.1800 
    102 C         -1.2927  -22.4218  -52.9366 C.2       18 UNK         0.5000 
    103 O         -1.7861  -21.7683  -53.8606 O.2       18 UNK        -0.5000 
    104 N          0.0116  -22.7191  -52.8420 N.am      19 UNK        -0.5000 
    105 CA         1.0830  -22.3592  -53.7852 C.3       19 UNK         0.1400 
    106 CB         1.2806  -20.8282  -53.8113 C.3       19 UNK        -0.1800 
    107 C          0.9064  -22.9308  -55.2127 C.2       19 UNK         0.5000 
    108 O          1.6677  -22.5597  -56.1069 O.2       19 UNK        -0.5000 
    109 N         -0.1048  -23.7943  -55.4075 N.am      20 UNK        -0.5000 
    110 CA        -0.6416  -24.2731  -56.6852 C.3       20 UNK         0.1400 
    111 CB         0.3680  -25.2017  -57.3918 C.3       20 UNK        -0.1800 
    112 C         -1.1437  -23.1231  -57.5899 C.2       20 UNK         0.5000 
    113 O         -1.1045  -23.2488  -58.8156 O.2       20 UNK        -0.5000 
    114 N         -1.5869  -22.0167  -56.9739 N.am      21 UNK        -0.5000 
    115 CA        -1.9373  -20.7740  -57.6628 C.3       21 UNK         0.1400 
    116 CB        -0.6964  -19.8682  -57.7421 C.3       21 UNK        -0.1800 
    117 C         -3.1069  -20.0323  -56.9995 C.2       21 UNK         0.5000 
    118 O         -3.8829  -19.3917  -57.7103 O.2       21 UNK        -0.5000 
    119 N         -3.2275  -20.1200  -55.6689 N.am      22 UNK        -0.5000 
    120 CA        -4.2822  -19.4497  -54.8893 C.3       22 UNK         0.1400 
    121 C         -5.6371  -20.2152  -54.8705 C.2       22 UNK         0.5000 
    122 N         -5.7166  -21.4341  -55.3895 N.am      22 UNK        -0.7600 
    123 O         -6.6355  -19.6904  -54.3856 O.2       22 UNK        -0.5000 
    124 C124       -3.8156  -19.1368  -53.4456 C.3       23 UNK        -0.0398 
    125 S125       -2.2707  -18.1658  -53.3791 S.3       23 UNK        -0.2404 
    126 C126       -2.2750  -17.6726  -51.6293 C.3       23 UNK        -0.0205 
    127 H127       -1.9849   -9.7233  -51.9238 H         1 UNK         0.0600 
    128 H128       -2.0042   -8.2213  -50.9957 H         1 UNK         0.0600 
    129 H129       -0.6640   -8.5641  -52.0950 H         1 UNK         0.0600 
    130 H130       -1.4560  -11.4683  -50.6476 H         1 UNK         0.3000 
    131 H131        0.8594  -11.5074  -48.9332 H         1 UNK         0.0600 
    132 H132       -0.2218  -13.4514  -50.3432 H         1 UNK         0.0800 
    133 H133       -1.2852  -13.6934  -48.9912 H         1 UNK         0.0800 
    134 H134        2.8022  -15.3430  -49.5940 H         1 UNK         0.0800 
    135 H135        1.7835  -14.5112  -50.7309 H         1 UNK         0.0800 
    136 H136       -0.7102  -15.5251  -50.9947 H         1 UNK         0.1150 
    137 H137       -0.7275  -19.7930  -51.0113 H         1 UNK         0.1150 
    138 H138        2.6404  -17.6930  -49.4049 H         1 UNK         0.1150 
    139 H139        1.1873  -21.0407  -50.3563 H         1 UNK         0.0800 
    140 H140        2.7173  -20.2091  -50.2459 H         1 UNK         0.0800 
    141 H141       -0.6204  -20.4088  -48.4856 H         1 UNK         0.0800 
    142 H142       -0.1620  -19.5812  -47.0257 H         1 UNK         0.0800 
    143 H143       -0.3291  -22.6252  -47.3957 H         1 UNK         0.0600 
    144 H144        0.7814  -21.0689  -45.1990 H         1 UNK         0.3000 
    145 H145        0.5002  -22.6327  -42.7273 H         1 UNK         0.0600 
    146 H146        2.4129  -24.1523  -42.1556 H         1 UNK         0.0600 
    147 H147        1.0746  -25.0072  -42.9040 H         1 UNK         0.0600 
    148 H148        2.5139  -24.6493  -43.8450 H         1 UNK         0.0600 
    149 H149        2.0248  -21.0716  -42.8777 H         1 UNK         0.3000 
    150 H150        5.1894  -20.7450  -44.0311 H         1 UNK         0.0600 
    151 H151        4.3633  -20.1942  -46.3246 H         1 UNK         0.0600 
    152 H152        4.7086  -18.7369  -45.4070 H         1 UNK         0.0600 
    153 H153        3.0413  -19.2594  -45.6316 H         1 UNK         0.0600 
    154 H154        3.2293  -18.7546  -43.2715 H         1 UNK         0.3000 
    155 H155        3.4442  -19.3880  -39.7622 H         1 UNK         0.0600 
    156 H156        4.3416  -17.0146  -41.4801 H         1 UNK         0.0600 
    157 H157        5.3584  -17.8710  -40.3265 H         1 UNK         0.0600 
    158 H158        3.9592  -16.9729  -39.7599 H         1 UNK         0.0600 
    159 H159        1.9147  -17.4827  -41.1741 H         1 UNK         0.3000 
    160 H160       -0.9792  -19.5655  -41.7375 H         1 UNK         0.0600 
    161 H161       -1.0244  -18.6420  -39.4160 H         1 UNK         0.0600 
    162 H162       -1.9680  -17.6618  -40.5271 H         1 UNK         0.0600 
    163 H163       -0.3766  -17.1152  -40.0038 H         1 UNK         0.0600 
    164 H164       -0.4149  -16.8568  -42.4655 H         1 UNK         0.3000 
    165 H165        0.8389  -17.5889  -45.7491 H         1 UNK         0.0600 
    166 H166       -0.9892  -16.0402  -46.3809 H         1 UNK         0.0600 
    167 H167       -1.6484  -17.6206  -45.9829 H         1 UNK         0.0600 
    168 H168       -1.7837  -16.2980  -44.8286 H         1 UNK         0.0600 
    169 H169        0.3915  -15.1014  -44.4712 H         1 UNK         0.3000 
    170 H170        3.5567  -14.8738  -42.7825 H         1 UNK         0.0600 
    171 H171        3.8563  -14.0964  -45.1163 H         1 UNK         0.0600 
    172 H172        2.2384  -13.4149  -45.1361 H         1 UNK         0.0600 
    173 H173        3.4703  -12.7428  -44.0659 H         1 UNK         0.0600 
    174 H174        1.1868  -13.2317  -42.8565 H         1 UNK         0.3000 
    175 H175       -0.2679  -14.5107  -39.8572 H         1 UNK         0.0600 
    176 H176       -0.0312  -12.1396  -39.1769 H         1 UNK         0.0600 
    177 H177        1.5248  -12.9489  -39.0860 H         1 UNK         0.0600 
    178 H178        1.1796  -11.8675  -40.4305 H         1 UNK         0.0600 
    179 H179       -0.9679  -12.3376  -41.5775 H         1 UNK         0.3000 
    180 H180       -2.9473  -14.1772  -43.8910 H         1 UNK         0.0600 
    181 H181       -3.7506  -12.2539  -41.6409 H         1 UNK         0.0600 
    182 H182       -4.4263  -13.8578  -41.9001 H         1 UNK         0.0600 
    183 H183       -4.6837  -12.5994  -43.0976 H         1 UNK         0.0600 
    184 H184       -2.5197  -11.3973  -43.6466 H         1 UNK         0.3000 
    185 H185       -1.3359  -10.3164  -45.2280 H         1 UNK         0.0600 
    186 H186        1.4858  -11.1375  -44.3361 H         1 UNK         0.0600 
    187 H187        0.9711   -9.5091  -44.7677 H         1 UNK         0.0600 
    188 H188        0.3070  -10.2906  -43.3426 H         1 UNK         0.0600 
    189 H189        0.9452  -11.3860  -46.7052 H         1 UNK         0.3000 
    190 H190       -1.4827  -20.4925  -44.8064 H         1 UNK         0.3000 
    191 H191       -4.1166  -20.0627  -45.6530 H         1 UNK         0.0600 
    192 H192       -2.9856  -18.7439  -43.8800 H         1 UNK         0.0600 
    193 H193       -2.9930  -20.1449  -42.8060 H         1 UNK         0.0600 
    194 H194       -4.5048  -19.3861  -43.2831 H         1 UNK         0.0600 
    195 H195       -2.7752  -22.9351  -44.2245 H         1 UNK         0.3000 
    196 H196       -5.1572  -24.1096  -43.1501 H         1 UNK         0.0600 
    197 H197       -3.7344  -26.1610  -43.0742 H         1 UNK         0.0600 
    198 H198       -2.8647  -24.7714  -42.4444 H         1 UNK         0.0600 
    199 H199       -2.5152  -25.3705  -44.0662 H         1 UNK         0.0600 
    200 H200       -4.0371  -23.7612  -46.4430 H         1 UNK         0.3000 
    201 H201       -6.2932  -25.3666  -47.4490 H         1 UNK         0.0600 
    202 H202       -4.3943  -27.0035  -47.3440 H         1 UNK         0.0600 
    203 H203       -3.3912  -25.9052  -48.2913 H         1 UNK         0.0600 
    204 H204       -4.8250  -26.6364  -49.0056 H         1 UNK         0.0600 
    205 H205       -6.0138  -22.6299  -47.2098 H         1 UNK         0.3000 
    206 H206       -4.6779  -21.1391  -49.0075 H         1 UNK         0.0600 
    207 H207       -5.9549  -20.2413  -47.0841 H         1 UNK         0.0600 
    208 H208       -6.3653  -19.3608  -48.5458 H         1 UNK         0.0600 
    209 H209       -7.4768  -20.5668  -47.9072 H         1 UNK         0.0600 
    210 H210       -7.7347  -22.7526  -49.7467 H         1 UNK         0.3000 
    211 H211       -8.3051  -21.3992  -52.2067 H         1 UNK         0.0600 
    212 H212       -9.2840  -24.0897  -51.1066 H         1 UNK         0.0600 
    213 H213      -10.0123  -23.2079  -52.4435 H         1 UNK         0.0600 
    214 H214      -10.0432  -22.5211  -50.8285 H         1 UNK         0.0600 
    215 H215       -5.9488  -23.8464  -51.5159 H         1 UNK         0.3000 
    216 H216       -5.5485  -24.3479  -54.4387 H         1 UNK         0.0600 
    217 H217       -4.9986  -26.7036  -53.8560 H         1 UNK         0.0600 
    218 H218       -6.6489  -26.3345  -53.3845 H         1 UNK         0.0600 
    219 H219       -5.3780  -26.3983  -52.1637 H         1 UNK         0.0600 
    220 H220       -4.2920  -22.8377  -51.8226 H         1 UNK         0.3000 
    221 H221       -1.7371  -23.9378  -51.4846 H         1 UNK         0.0600 
    222 H222       -2.7316  -21.1029  -50.8877 H         1 UNK         0.0600 
    223 H223       -2.8522  -22.5008  -49.8200 H         1 UNK         0.0600 
    224 H224       -1.2788  -21.8569  -50.2217 H         1 UNK         0.0600 
    225 H225        0.3112  -23.2907  -52.0642 H         1 UNK         0.3000 
    226 H226        1.9980  -22.8054  -53.3934 H         1 UNK         0.0600 
    227 H227        1.4414  -20.4325  -52.8097 H         1 UNK         0.0600 
    228 H228        0.4199  -20.3126  -54.2385 H         1 UNK         0.0600 
    229 H229        2.1517  -20.5532  -54.4069 H         1 UNK         0.0600 
    230 H230       -0.6685  -24.0290  -54.6016 H         1 UNK         0.3000 
    231 H231       -1.5220  -24.8686  -56.4393 H         1 UNK         0.0600 
    232 H232        0.7044  -25.9967  -56.7265 H         1 UNK         0.0600 
    233 H233        1.2475  -24.6576  -57.7368 H         1 UNK         0.0600 
    234 H234       -0.0827  -25.6788  -58.2627 H         1 UNK         0.0600 
    235 H235       -1.6026  -22.0012  -55.9608 H         1 UNK         0.3000 
    236 H236       -2.2600  -21.0015  -58.6810 H         1 UNK         0.0600 
    237 H237       -0.9264  -18.9298  -58.2481 H         1 UNK         0.0600 
    238 H238       -0.3162  -19.6240  -56.7492 H         1 UNK         0.0600 
    239 H239        0.1085  -20.3492  -58.2983 H         1 UNK         0.0600 
    240 H240       -2.5667  -20.6575  -55.1149 H         1 UNK         0.3000 
    241 H241       -4.4934  -18.4906  -55.3661 H         1 UNK         0.0600 
    242 H242       -6.5854  -21.9478  -55.3053 H         1 UNK         0.3800 
    243 H243       -4.9112  -21.8602  -55.8158 H         1 UNK         0.3800 
    244 H244       -4.5905  -18.5836  -52.9114 H         1 UNK         0.0800 
    245 H245       -3.6645  -20.0630  -52.8897 H         1 UNK         0.0800 
    246 H246       -2.8857  -18.3642  -51.0466 H         1 UNK         0.0800 
    247 H247       -2.7463  -16.6933  -51.5347 H         1 UNK         0.0800 
@<TRIPOS>BOND
     1    1    2 1    
     2    1  127 1    
     3    1  128 1    
     4    1  129 1    
     5    2    3 2    
     6    2    4 am   BACKBONE|DICT|INTERRES
     7    4    5 1    
     8    4  130 1    
     9    5    6 1    
    10    5   65 1    
    11    5  131 1    
    12    6    7 1    
    13    6  132 1    
    14    6  133 1    
    15    7    8 1    
    16    8    9 1    
    17    8  134 1    
    18    8  135 1    
    19    9   10 ar   
    20    9   14 ar   
    21   10   11 ar   
    22   10  136 1    
    23   11   12 ar   
    24   11  126 1    
    25   12   13 ar   
    26   12  137 1    
    27   13   14 ar   
    28   13   15 1    
    29   14  138 1    
    30   15   16 1    
    31   15  139 1    
    32   15  140 1    
    33   16   17 1    
    34   17   18 1    
    35   17  141 1    
    36   17  142 1    
    37   18   19 1    
    38   18   67 1    
    39   18  143 1    
    40   19   20 am   BACKBONE|DICT|INTERRES
    41   19  144 1    
    42   20   21 2    
    43   20   22 1    
    44   22   23 1    
    45   22   24 1    
    46   22  145 1    
    47   23  146 1    
    48   23  147 1    
    49   23  148 1    
    50   24   25 am   BACKBONE|DICT|INTERRES
    51   24  149 1    
    52   25   26 2    
    53   25   27 1    
    54   27   28 1    
    55   27   29 1    
    56   27  150 1    
    57   28  151 1    
    58   28  152 1    
    59   28  153 1    
    60   29   30 am   BACKBONE|DICT|INTERRES
    61   29  154 1    
    62   30   31 2    
    63   30   32 1    
    64   32   33 1    
    65   32   34 1    
    66   32  155 1    
    67   33  156 1    
    68   33  157 1    
    69   33  158 1    
    70   34   35 am   BACKBONE|DICT|INTERRES
    71   34  159 1    
    72   35   36 2    
    73   35   37 1    
    74   37   38 1    
    75   37   39 1    
    76   37  160 1    
    77   38  161 1    
    78   38  162 1    
    79   38  163 1    
    80   39   40 am   BACKBONE|DICT|INTERRES
    81   39  164 1    
    82   40   41 2    
    83   40   42 1    
    84   42   43 1    
    85   42   44 1    
    86   42  165 1    
    87   43  166 1    
    88   43  167 1    
    89   43  168 1    
    90   44   45 am   BACKBONE|DICT|INTERRES
    91   44  169 1    
    92   45   46 2    
    93   45   47 1    
    94   47   48 1    
    95   47   49 1    
    96   47  170 1    
    97   48  171 1    
    98   48  172 1    
    99   48  173 1    
   100   49   50 am   BACKBONE|DICT|INTERRES
   101   49  174 1    
   102   50   51 2    
   103   50   52 1    
   104   52   53 1    
   105   52   54 1    
   106   52  175 1    
   107   53  176 1    
   108   53  177 1    
   109   53  178 1    
   110   54   55 am   BACKBONE|DICT|INTERRES
   111   54  179 1    
   112   55   56 2    
   113   55   57 1    
   114   57   58 1    
   115   57   59 1    
   116   57  180 1    
   117   58  181 1    
   118   58  182 1    
   119   58  183 1    
   120   59   60 am   BACKBONE|DICT|INTERRES
   121   59  184 1    
   122   60   61 2    
   123   60   62 1    
   124   62   63 1    
   125   62   64 1    
   126   62  185 1    
   127   63  186 1    
   128   63  187 1    
   129   63  188 1    
   130   64   65 am   BACKBONE|DICT|INTERRES
   131   64  189 1    
   132   65   66 2    
   133   67   68 2    
   134   67   69 am   BACKBONE|DICT|INTERRES
   135   69   70 1    
   136   69  190 1    
   137   70   71 1    
   138   70   72 1    
   139   70  191 1    
   140   71  192 1    
   141   71  193 1    
   142   71  194 1    
   143   72   73 2    
   144   72   74 am   BACKBONE|DICT|INTERRES
   145   74   75 1    
   146   74  195 1    
   147   75   76 1    
   148   75   77 1    
   149   75  196 1    
   150   76  197 1    
   151   76  198 1    
   152   76  199 1    
   153   77   78 2    
   154   77   79 am   BACKBONE|DICT|INTERRES
   155   79   80 1    
   156   79  200 1    
   157   80   81 1    
   158   80   82 1    
   159   80  201 1    
   160   81  202 1    
   161   81  203 1    
   162   81  204 1    
   163   82   83 2    
   164   82   84 am   BACKBONE|DICT|INTERRES
   165   84   85 1    
   166   84  205 1    
   167   85   86 1    
   168   85   87 1    
   169   85  206 1    
   170   86  207 1    
   171   86  208 1    
   172   86  209 1    
   173   87   88 2    
   174   87   89 am   BACKBONE|DICT|INTERRES
   175   89   90 1    
   176   89  210 1    
   177   90   91 1    
   178   90   92 1    
   179   90  211 1    
   180   91  212 1    
   181   91  213 1    
   182   91  214 1    
   183   92   93 2    
   184   92   94 am   BACKBONE|DICT|INTERRES
   185   94   95 1    
   186   94  215 1    
   187   95   96 1    
   188   95   97 1    
   189   95  216 1    
   190   96  217 1    
   191   96  218 1    
   192   96  219 1    
   193   97   98 2    
   194   97   99 am   BACKBONE|DICT|INTERRES
   195   99  100 1    
   196   99  220 1    
   197  100  101 1    
   198  100  102 1    
   199  100  221 1    
   200  101  222 1    
   201  101  223 1    
   202  101  224 1    
   203  102  103 2    
   204  102  104 am   BACKBONE|DICT|INTERRES
   205  104  105 1    
   206  104  225 1    
   207  105  106 1    
   208  105  107 1    
   209  105  226 1    
   210  106  227 1    
   211  106  228 1    
   212  106  229 1    
   213  107  108 2    
   214  107  109 am   BACKBONE|DICT|INTERRES
   215  109  110 1    
   216  109  230 1    
   217  110  111 1    
   218  110  112 1    
   219  110  231 1    
   220  111  232 1    
   221  111  233 1    
   222  111  234 1    
   223  112  113 2    
   224  112  114 am   BACKBONE|DICT|INTERRES
   225  114  115 1    
   226  114  235 1    
   227  115  116 1    
   228  115  117 1    
   229  115  236 1    
   230  116  237 1    
   231  116  238 1    
   232  116  239 1    
   233  117  118 2    
   234  117  119 am   BACKBONE|DICT|INTERRES
   235  119  120 1    
   236  119  240 1    
   237  120  121 1    
   238  120  124 1    
   239  120  241 1    
   240  121  122 am   BACKBONE|DICT|INTERRES
   241  121  123 2    
   242  122  242 1    
   243  122  243 1    
   244  124  125 1    
   245  124  244 1    
   246  124  245 1    
   247  125  126 1    
   248  126  246 1    
   249  126  247 1    
@<TRIPOS>SUBSTRUCTURE
     1 UNK         1 GROUP             0       ****    0 ROOT    
