@<TRIPOS>MOLECULE
3R540
247   249    1
SMALL
USER_CHARGES


@<TRIPOS>ATOM
      1 CA          6.8573  -14.7045  -46.1579 C.3       0 UNK        -0.1800 
      2 C           5.7594  -13.7563  -45.7012 C.2       0 UNK         0.5000 
      3 O           5.5992  -13.5409  -44.5008 O.2       0 UNK        -0.5000 
      4 N           5.0162  -13.1750  -46.6524 N.am      1 UNK        -0.5000 
      5 CA          3.8535  -12.3021  -46.4246 C.3       1 UNK         0.1400 
      6 C6          3.1648  -11.8721  -47.7471 C.3       23 UNK        -0.0398 
      7 S7          2.9334  -13.2186  -48.9569 S.3       23 UNK        -0.2404 
      8 C8          1.4595  -14.0454  -48.2915 C.3       23 UNK        -0.0205 
      9 C9          1.0014  -15.1781  -49.1974 C.ar      23 UNK        -0.0193 
     10 C10        -0.2483  -15.1199  -49.8217 C.ar      23 UNK        -0.1150 
     11 C11        -0.7029  -16.1816  -50.6097 C.ar      23 UNK        -0.0193 
     12 C12         0.1236  -17.2942  -50.7965 C.ar      23 UNK        -0.1150 
     13 C13         1.3840  -17.3569  -50.1957 C.ar      23 UNK        -0.0193 
     14 C14         1.8121  -16.3018  -49.3862 C.ar      23 UNK        -0.1150 
     15 C15         2.2804  -18.5657  -50.4225 C.3       23 UNK        -0.0205 
     16 S16         2.1306  -19.7941  -49.0884 S.3       23 UNK        -0.2404 
     17 C17         0.3735  -20.2535  -49.2391 C.3       23 UNK        -0.0398 
     18 CA          0.0112  -21.4963  -48.3987 C.3       11 UNK         0.1400 
     19 N           0.0704  -21.2460  -46.9552 N.am      11 UNK        -0.5000 
     20 C          -0.0545  -22.1942  -46.0153 C.2       10 UNK         0.5000 
     21 O          -0.1842  -23.3925  -46.2663 O.2       10 UNK        -0.5000 
     22 CA         -0.1003  -21.7233  -44.5502 C.3       10 UNK         0.1400 
     23 CB          1.3051  -21.3860  -44.0307 C.3       10 UNK        -0.1800 
     24 N          -0.9886  -20.5765  -44.3600 N.am      10 UNK        -0.5000 
     25 C          -2.3108  -20.5946  -44.5818 C.2       9 UNK         0.5000 
     26 O          -2.9347  -21.5999  -44.9198 O.2       9 UNK        -0.5000 
     27 CA         -3.0543  -19.2535  -44.4553 C.3       9 UNK         0.1400 
     28 CB         -3.3951  -18.9432  -42.9900 C.3       9 UNK        -0.1800 
     29 N          -2.2946  -18.1456  -45.0337 N.am      9 UNK        -0.5000 
     30 C          -2.0235  -18.0155  -46.3403 C.2       8 UNK         0.5000 
     31 O          -2.4182  -18.7971  -47.2045 O.2       8 UNK        -0.5000 
     32 CA         -1.1198  -16.8380  -46.7385 C.3       8 UNK         0.1400 
     33 CB         -1.9391  -15.5433  -46.8506 C.3       8 UNK        -0.1800 
     34 N          -0.0141  -16.6463  -45.7986 N.am      8 UNK        -0.5000 
     35 C           0.9856  -17.5275  -45.6362 C.2       7 UNK         0.5000 
     36 O           1.0705  -18.5799  -46.2646 O.2       7 UNK        -0.5000 
     37 CA          2.0254  -17.2250  -44.5401 C.3       7 UNK         0.1400 
     38 CB          3.1364  -16.3140  -45.0828 C.3       7 UNK        -0.1800 
     39 N           1.4306  -16.6167  -43.3501 N.am      7 UNK        -0.5000 
     40 C           0.4695  -17.1870  -42.6062 C.2       6 UNK         0.5000 
     41 O           0.0713  -18.3382  -42.7838 O.2       6 UNK        -0.5000 
     42 CA         -0.2029  -16.3247  -41.5186 C.3       6 UNK         0.1400 
     43 CB          0.3293  -16.7073  -40.1297 C.3       6 UNK        -0.1800 
     44 N          -0.0383  -14.8816  -41.7071 N.am      6 UNK        -0.5000 
     45 C          -0.4328  -14.1659  -42.7717 C.2       5 UNK         0.5000 
     46 O          -1.0477  -14.6436  -43.7251 O.2       5 UNK        -0.5000 
     47 CA         -0.0113  -12.6822  -42.8000 C.3       5 UNK         0.1400 
     48 CB         -1.1734  -11.7838  -42.3525 C.3       5 UNK        -0.1800 
     49 N           1.1635  -12.4042  -41.9650 N.am      5 UNK        -0.5000 
     50 C           2.3926  -12.8816  -42.2031 C.2       4 UNK         0.5000 
     51 O           2.6794  -13.5746  -43.1807 O.2       4 UNK        -0.5000 
     52 CA          3.4433  -12.6219  -41.1192 C.3       4 UNK         0.1400 
     53 CB          3.5193  -13.8229  -40.1566 C.3       4 UNK        -0.1800 
     54 N           4.7418  -12.3840  -41.7387 N.am      4 UNK        -0.5000 
     55 C           5.7728  -11.7814  -41.1325 C.2       3 UNK         0.5000 
     56 O           5.7516  -11.3998  -39.9612 O.2       3 UNK        -0.5000 
     57 CA          7.0274  -11.5262  -41.9821 C.3       3 UNK         0.1400 
     58 CB          7.8834  -12.7968  -42.1076 C.3       3 UNK        -0.1800 
     59 N           6.6698  -11.0277  -43.3092 N.am      3 UNK        -0.5000 
     60 C           6.3709   -9.7469  -43.5729 C.2       2 UNK         0.5000 
     61 O           6.4233   -8.8489  -42.7315 O.2       2 UNK        -0.5000 
     62 CA          5.9525   -9.3947  -45.0134 C.3       2 UNK         0.1400 
     63 CB          7.1455   -8.8192  -45.7921 C.3       2 UNK        -0.1800 
     64 N           5.4163  -10.5374  -45.7506 N.am      2 UNK        -0.5000 
     65 C           4.1872  -11.0468  -45.5885 C.2       1 UNK         0.5000 
     66 O           3.3444  -10.5739  -44.8257 O.2       1 UNK        -0.5000 
     67 C          -1.3597  -22.0504  -48.8313 C.2       11 UNK         0.5000 
     68 O          -1.3962  -23.0143  -49.5939 O.2       11 UNK        -0.5000 
     69 N          -2.4555  -21.4693  -48.3204 N.am      12 UNK        -0.5000 
     70 CA         -3.8213  -21.9303  -48.5746 C.3       12 UNK         0.1400 
     71 CB         -4.8324  -20.9496  -47.9645 C.3       12 UNK        -0.1800 
     72 C          -4.0679  -23.3598  -48.0619 C.2       12 UNK         0.5000 
     73 O          -4.6600  -24.1627  -48.7831 O.2       12 UNK        -0.5000 
     74 N          -3.5786  -23.6660  -46.8522 N.am      13 UNK        -0.5000 
     75 CA         -3.6257  -24.9981  -46.2487 C.3       13 UNK         0.1400 
     76 CB         -3.1493  -24.9260  -44.7904 C.3       13 UNK        -0.1800 
     77 C          -2.8141  -26.0364  -47.0440 C.2       13 UNK         0.5000 
     78 O          -3.3236  -27.1263  -47.3084 O.2       13 UNK        -0.5000 
     79 N          -1.5925  -25.6654  -47.4566 N.am      14 UNK        -0.5000 
     80 CA         -0.7182  -26.4752  -48.3117 C.3       14 UNK         0.1400 
     81 CB          0.6550  -25.7978  -48.4307 C.3       14 UNK        -0.1800 
     82 C          -1.3188  -26.7404  -49.7064 C.2       14 UNK         0.5000 
     83 O          -1.1426  -27.8307  -50.2499 O.2       14 UNK        -0.5000 
     84 N          -2.0639  -25.7594  -50.2302 N.am      15 UNK        -0.5000 
     85 CA         -2.8396  -25.8317  -51.4674 C.3       15 UNK         0.1400 
     86 CB         -2.9602  -24.4171  -52.0600 C.3       15 UNK        -0.1800 
     87 C          -4.2247  -26.4925  -51.2891 C.2       15 UNK         0.5000 
     88 O          -5.0833  -26.3067  -52.1495 O.2       15 UNK        -0.5000 
     89 N          -4.4336  -27.2431  -50.1960 N.am      16 UNK        -0.5000 
     90 CA         -5.6261  -28.0388  -49.8835 C.3       16 UNK         0.1400 
     91 CB         -5.7546  -29.2238  -50.8642 C.3       16 UNK        -0.1800 
     92 C          -6.9082  -27.1864  -49.7946 C.2       16 UNK         0.5000 
     93 O          -7.9080  -27.4936  -50.4462 O.2       16 UNK        -0.5000 
     94 N          -6.8301  -26.1184  -48.9896 N.am      17 UNK        -0.5000 
     95 CA         -7.8400  -25.0738  -48.7956 C.3       17 UNK         0.1400 
     96 CB         -9.1684  -25.6451  -48.2546 C.3       17 UNK        -0.1800 
     97 C          -8.0013  -24.2018  -50.0564 C.2       17 UNK         0.5000 
     98 O          -9.1217  -23.9420  -50.4990 O.2       17 UNK        -0.5000 
     99 N          -6.8532  -23.7569  -50.5877 N.am      18 UNK        -0.5000 
    100 CA        -6.6866  -22.8401  -51.7185 C.3       18 UNK         0.1400 
    101 CB        -7.1836  -21.4308  -51.3360 C.3       18 UNK        -0.1800 
    102 C         -7.2992  -23.3619  -53.0361 C.2       18 UNK         0.5000 
    103 O         -7.9486  -22.6053  -53.7610 O.2       18 UNK        -0.5000 
    104 N         -7.0813  -24.6490  -53.3370 N.am      19 UNK        -0.5000 
    105 CA        -7.5016  -25.2846  -54.5833 C.3       19 UNK         0.1400 
    106 CB        -7.4750  -26.8133  -54.4150 C.3       19 UNK        -0.1800 
    107 C         -6.5962  -24.8143  -55.7362 C.2       19 UNK         0.5000 
    108 O         -5.4506  -25.2587  -55.8329 O.2       19 UNK        -0.5000 
    109 N         -7.1212  -23.8919  -56.5562 N.am      20 UNK        -0.5000 
    110 CA        -6.4430  -23.2034  -57.6624 C.3       20 UNK         0.1400 
    111 CB        -6.0994  -24.1897  -58.7990 C.3       20 UNK        -0.1800 
    112 C         -5.2310  -22.3670  -57.1930 C.2       20 UNK         0.5000 
    113 O         -4.1938  -22.3424  -57.8588 O.2       20 UNK        -0.5000 
    114 N         -5.3896  -21.6943  -56.0481 N.am      21 UNK        -0.5000 
    115 CA        -4.3966  -20.8296  -55.4185 C.3       21 UNK         0.1400 
    116 CB        -3.5159  -21.6710  -54.4767 C.3       21 UNK        -0.1800 
    117 C         -5.1207  -19.7129  -54.6516 C.2       21 UNK         0.5000 
    118 O         -6.3450  -19.7615  -54.5071 O.2       21 UNK        -0.5000 
    119 N         -4.3561  -18.7291  -54.1673 N.am      22 UNK        -0.5000 
    120 CA        -4.8376  -17.7017  -53.2327 C.3       22 UNK         0.1400 
    121 C         -5.0185  -18.2427  -51.7836 C.2       22 UNK         0.5000 
    122 N         -5.8178  -17.5730  -50.9639 N.am      22 UNK        -0.7600 
    123 O         -4.4272  -19.2438  -51.3852 O.2       22 UNK        -0.5000 
    124 C124       -3.9681  -16.4169  -53.2850 C.3       23 UNK        -0.0398 
    125 S125       -2.1894  -16.6638  -52.9407 S.3       23 UNK        -0.2404 
    126 C126       -2.1100  -16.1419  -51.1947 C.3       23 UNK        -0.0205 
    127 H127        7.8253  -14.3593  -45.7950 H         1 UNK         0.0600 
    128 H128        6.9052  -14.7766  -47.2447 H         1 UNK         0.0600 
    129 H129        6.6774  -15.7021  -45.7575 H         1 UNK         0.0600 
    130 H130        5.1948  -13.3977  -47.6218 H         1 UNK         0.3000 
    131 H131        3.1349  -12.8856  -45.8459 H         1 UNK         0.0600 
    132 H132        2.1965  -11.4130  -47.5392 H         1 UNK         0.0800 
    133 H133        3.7564  -11.1045  -48.2500 H         1 UNK         0.0800 
    134 H134        0.6637  -13.3107  -48.1601 H         1 UNK         0.0800 
    135 H135        1.6798  -14.4469  -47.3024 H         1 UNK         0.0800 
    136 H136       -0.8839  -14.2597  -49.6650 H         1 UNK         0.1150 
    137 H137       -0.2210  -18.1206  -51.4017 H         1 UNK         0.1150 
    138 H138        2.7775  -16.3538  -48.9026 H         1 UNK         0.1150 
    139 H139        2.0492  -19.0377  -51.3787 H         1 UNK         0.0800 
    140 H140        3.3202  -18.2424  -50.4881 H         1 UNK         0.0800 
    141 H141        0.1699  -20.4317  -50.2969 H         1 UNK         0.0800 
    142 H142       -0.2432  -19.4044  -48.9400 H         1 UNK         0.0800 
    143 H143        0.7458  -22.2739  -48.6193 H         1 UNK         0.0600 
    144 H144        0.2369  -20.2842  -46.6707 H         1 UNK         0.3000 
    145 H145       -0.4927  -22.5467  -43.9499 H         1 UNK         0.0600 
    146 H146        1.2780  -21.0947  -42.9805 H         1 UNK         0.0600 
    147 H147        1.9674  -22.2485  -44.1137 H         1 UNK         0.0600 
    148 H148        1.7594  -20.5698  -44.5918 H         1 UNK         0.0600 
    149 H149       -0.5613  -19.7149  -44.0336 H         1 UNK         0.3000 
    150 H150       -3.9922  -19.3397  -45.0076 H         1 UNK         0.0600 
    151 H151       -4.0082  -19.7358  -42.5593 H         1 UNK         0.0600 
    152 H152       -3.9586  -18.0140  -42.9039 H         1 UNK         0.0600 
    153 H153       -2.5012  -18.8521  -42.3733 H         1 UNK         0.0600 
    154 H154       -1.8998  -17.4750  -44.3910 H         1 UNK         0.3000 
    155 H155       -0.6931  -17.0650  -47.7168 H         1 UNK         0.0600 
    156 H156       -2.4655  -15.3148  -45.9234 H         1 UNK         0.0600 
    157 H157       -2.6872  -15.6272  -47.6398 H         1 UNK         0.0600 
    158 H158       -1.3056  -14.6901  -47.0904 H         1 UNK         0.0600 
    159 H159       -0.0725  -15.8409  -45.1865 H         1 UNK         0.3000 
    160 H160        2.4769  -18.1724  -44.2396 H         1 UNK         0.0600 
    161 H161        3.9256  -16.1708  -44.3443 H         1 UNK         0.0600 
    162 H162        2.7538  -15.3295  -45.3510 H         1 UNK         0.0600 
    163 H163        3.5967  -16.7424  -45.9742 H         1 UNK         0.0600 
    164 H164        1.7087  -15.6651  -43.1459 H         1 UNK         0.3000 
    165 H165       -1.2725  -16.5412  -41.5504 H         1 UNK         0.0600 
    166 H166       -0.1969  -16.1681  -39.3418 H         1 UNK         0.0600 
    167 H167        0.1927  -17.7727  -39.9385 H         1 UNK         0.0600 
    168 H168        1.3941  -16.4906  -40.0336 H         1 UNK         0.0600 
    169 H169        0.4571  -14.3932  -40.9769 H         1 UNK         0.3000 
    170 H170        0.2399  -12.4322  -43.8331 H         1 UNK         0.0600 
    171 H171       -2.0556  -11.9494  -42.9725 H         1 UNK         0.0600 
    172 H172       -1.4582  -11.9780  -41.3177 H         1 UNK         0.0600 
    173 H173       -0.9119  -10.7289  -42.4377 H         1 UNK         0.0600 
    174 H174        1.0030  -11.8482  -41.1370 H         1 UNK         0.3000 
    175 H175        3.1520  -11.7293  -40.5614 H         1 UNK         0.0600 
    176 H176        3.8289  -14.7313  -40.6753 H         1 UNK         0.0600 
    177 H177        4.2266  -13.6438  -39.3470 H         1 UNK         0.0600 
    178 H178        2.5503  -14.0202  -39.6969 H         1 UNK         0.0600 
    179 H179        4.8264  -12.6901  -42.7048 H         1 UNK         0.3000 
    180 H180        7.6322  -10.7730  -41.4723 H         1 UNK         0.0600 
    181 H181        7.3321  -13.6211  -42.5596 H         1 UNK         0.0600 
    182 H182        8.2207  -13.1328  -41.1264 H         1 UNK         0.0600 
    183 H183        8.7720  -12.6158  -42.7124 H         1 UNK         0.0600 
    184 H184        6.5238  -11.7274  -44.0265 H         1 UNK         0.3000 
    185 H185        5.1807   -8.6242  -44.9542 H         1 UNK         0.0600 
    186 H186        7.5562   -7.9438  -45.2870 H         1 UNK         0.0600 
    187 H187        7.9508   -9.5480  -45.8922 H         1 UNK         0.0600 
    188 H188        6.8491   -8.5053  -46.7931 H         1 UNK         0.0600 
    189 H189        6.0419  -10.9949  -46.3980 H         1 UNK         0.3000 
    190 H190       -2.3565  -20.6402  -47.7405 H         1 UNK         0.3000 
    191 H191       -3.9724  -21.9359  -49.6561 H         1 UNK         0.0600 
    192 H192       -4.6950  -20.8447  -46.8886 H         1 UNK         0.0600 
    193 H193       -5.8558  -21.2863  -48.1332 H         1 UNK         0.0600 
    194 H194       -4.7365  -19.9605  -48.4132 H         1 UNK         0.0600 
    195 H195       -3.1465  -22.9315  -46.2977 H         1 UNK         0.3000 
    196 H196       -4.6679  -25.3239  -46.2466 H         1 UNK         0.0600 
    197 H197       -3.1880  -25.9078  -44.3171 H         1 UNK         0.0600 
    198 H198       -3.7792  -24.2568  -44.2041 H         1 UNK         0.0600 
    199 H199       -2.1230  -24.5654  -44.7176 H         1 UNK         0.0600 
    200 H200       -1.2296  -24.7619  -47.1640 H         1 UNK         0.3000 
    201 H201       -0.5796  -27.4417  -47.8230 H         1 UNK         0.0600 
    202 H202        1.1186  -25.6720  -47.4520 H         1 UNK         0.0600 
    203 H203        0.5792  -24.8136  -48.8933 H         1 UNK         0.0600 
    204 H204        1.3348  -26.3957  -49.0389 H         1 UNK         0.0600 
    205 H205       -2.0968  -24.8706  -49.7402 H         1 UNK         0.3000 
    206 H206       -2.2931  -26.4447  -52.1866 H         1 UNK         0.0600 
    207 H207       -1.9776  -23.9807  -52.2400 H         1 UNK         0.0600 
    208 H208       -3.4856  -24.4299  -53.0157 H         1 UNK         0.0600 
    209 H209       -3.5016  -23.7500  -51.3899 H         1 UNK         0.0600 
    210 H210       -3.6971  -27.2825  -49.5028 H         1 UNK         0.3000 
    211 H211       -5.4647  -28.4540  -48.8876 H         1 UNK         0.0600 
    212 H212       -5.9508  -28.8886  -51.8833 H         1 UNK         0.0600 
    213 H213       -6.5734  -29.8831  -50.5740 H         1 UNK         0.0600 
    214 H214       -4.8448  -29.8237  -50.8780 H         1 UNK         0.0600 
    215 H215       -5.9253  -25.9098  -48.5845 H         1 UNK         0.3000 
    216 H216       -7.4406  -24.4134  -48.0243 H         1 UNK         0.0600 
    217 H217       -9.8463  -24.8402  -47.9687 H         1 UNK         0.0600 
    218 H218       -9.0026  -26.2592  -47.3696 H         1 UNK         0.0600 
    219 H219       -9.6867  -26.2544  -48.9951 H         1 UNK         0.0600 
    220 H220       -5.9954  -24.0411  -50.1221 H         1 UNK         0.3000 
    221 H221       -5.6140  -22.7662  -51.8949 H         1 UNK         0.0600 
    222 H222       -8.2591  -21.4122  -51.1586 H         1 UNK         0.0600 
    223 H223       -6.6867  -21.0670  -50.4373 H         1 UNK         0.0600 
    224 H224       -6.9726  -20.7124  -52.1270 H         1 UNK         0.0600 
    225 H225       -6.4788  -25.2092  -52.7375 H         1 UNK         0.3000 
    226 H226       -8.5333  -24.9948  -54.7942 H         1 UNK         0.0600 
    227 H227       -7.8467  -27.3083  -55.3127 H         1 UNK         0.0600 
    228 H228       -6.4675  -27.1868  -54.2301 H         1 UNK         0.0600 
    229 H229       -8.1036  -27.1291  -53.5819 H         1 UNK         0.0600 
    230 H230       -8.0548  -23.5615  -56.3520 H         1 UNK         0.3000 
    231 H231       -7.1631  -22.4875  -58.0611 H         1 UNK         0.0600 
    232 H232       -6.9791  -24.7511  -59.1133 H         1 UNK         0.0600 
    233 H233       -5.3337  -24.9058  -58.4992 H         1 UNK         0.0600 
    234 H234       -5.7242  -23.6598  -59.6752 H         1 UNK         0.0600 
    235 H235       -6.2876  -21.7085  -55.5781 H         1 UNK         0.3000 
    236 H236       -3.7747  -20.3620  -56.1847 H         1 UNK         0.0600 
    237 H237       -3.0240  -22.4830  -55.0126 H         1 UNK         0.0600 
    238 H238       -2.7338  -21.0660  -54.0168 H         1 UNK         0.0600 
    239 H239       -4.1048  -22.1106  -53.6722 H         1 UNK         0.0600 
    240 H240       -3.3553  -18.7656  -54.2952 H         1 UNK         0.3000 
    241 H241       -5.8348  -17.4094  -53.5685 H         1 UNK         0.0600 
    242 H242       -5.9349  -17.9093  -50.0217 H         1 UNK         0.3800 
    243 H243       -6.3232  -16.7533  -51.2617 H         1 UNK         0.3800 
    244 H244       -4.0428  -15.9840  -54.2834 H         1 UNK         0.0800 
    245 H245       -4.3704  -15.6542  -52.6165 H         1 UNK         0.0800 
    246 H246       -2.5237  -15.1356  -51.1125 H         1 UNK         0.0800 
    247 H247       -2.7464  -16.7917  -50.5928 H         1 UNK         0.0800 
@<TRIPOS>BOND
     1    1    2 1    
     2    1  127 1    
     3    1  128 1    
     4    1  129 1    
     5    2    3 2    
     6    2    4 am   BACKBONE|DICT|INTERRES
     7    4    5 1    
     8    4  130 1    
     9    5    6 1    
    10    5   65 1    
    11    5  131 1    
    12    6    7 1    
    13    6  132 1    
    14    6  133 1    
    15    7    8 1    
    16    8    9 1    
    17    8  134 1    
    18    8  135 1    
    19    9   10 ar   
    20    9   14 ar   
    21   10   11 ar   
    22   10  136 1    
    23   11   12 ar   
    24   11  126 1    
    25   12   13 ar   
    26   12  137 1    
    27   13   14 ar   
    28   13   15 1    
    29   14  138 1    
    30   15   16 1    
    31   15  139 1    
    32   15  140 1    
    33   16   17 1    
    34   17   18 1    
    35   17  141 1    
    36   17  142 1    
    37   18   19 1    
    38   18   67 1    
    39   18  143 1    
    40   19   20 am   BACKBONE|DICT|INTERRES
    41   19  144 1    
    42   20   21 2    
    43   20   22 1    
    44   22   23 1    
    45   22   24 1    
    46   22  145 1    
    47   23  146 1    
    48   23  147 1    
    49   23  148 1    
    50   24   25 am   BACKBONE|DICT|INTERRES
    51   24  149 1    
    52   25   26 2    
    53   25   27 1    
    54   27   28 1    
    55   27   29 1    
    56   27  150 1    
    57   28  151 1    
    58   28  152 1    
    59   28  153 1    
    60   29   30 am   BACKBONE|DICT|INTERRES
    61   29  154 1    
    62   30   31 2    
    63   30   32 1    
    64   32   33 1    
    65   32   34 1    
    66   32  155 1    
    67   33  156 1    
    68   33  157 1    
    69   33  158 1    
    70   34   35 am   BACKBONE|DICT|INTERRES
    71   34  159 1    
    72   35   36 2    
    73   35   37 1    
    74   37   38 1    
    75   37   39 1    
    76   37  160 1    
    77   38  161 1    
    78   38  162 1    
    79   38  163 1    
    80   39   40 am   BACKBONE|DICT|INTERRES
    81   39  164 1    
    82   40   41 2    
    83   40   42 1    
    84   42   43 1    
    85   42   44 1    
    86   42  165 1    
    87   43  166 1    
    88   43  167 1    
    89   43  168 1    
    90   44   45 am   BACKBONE|DICT|INTERRES
    91   44  169 1    
    92   45   46 2    
    93   45   47 1    
    94   47   48 1    
    95   47   49 1    
    96   47  170 1    
    97   48  171 1    
    98   48  172 1    
    99   48  173 1    
   100   49   50 am   BACKBONE|DICT|INTERRES
   101   49  174 1    
   102   50   51 2    
   103   50   52 1    
   104   52   53 1    
   105   52   54 1    
   106   52  175 1    
   107   53  176 1    
   108   53  177 1    
   109   53  178 1    
   110   54   55 am   BACKBONE|DICT|INTERRES
   111   54  179 1    
   112   55   56 2    
   113   55   57 1    
   114   57   58 1    
   115   57   59 1    
   116   57  180 1    
   117   58  181 1    
   118   58  182 1    
   119   58  183 1    
   120   59   60 am   BACKBONE|DICT|INTERRES
   121   59  184 1    
   122   60   61 2    
   123   60   62 1    
   124   62   63 1    
   125   62   64 1    
   126   62  185 1    
   127   63  186 1    
   128   63  187 1    
   129   63  188 1    
   130   64   65 am   BACKBONE|DICT|INTERRES
   131   64  189 1    
   132   65   66 2    
   133   67   68 2    
   134   67   69 am   BACKBONE|DICT|INTERRES
   135   69   70 1    
   136   69  190 1    
   137   70   71 1    
   138   70   72 1    
   139   70  191 1    
   140   71  192 1    
   141   71  193 1    
   142   71  194 1    
   143   72   73 2    
   144   72   74 am   BACKBONE|DICT|INTERRES
   145   74   75 1    
   146   74  195 1    
   147   75   76 1    
   148   75   77 1    
   149   75  196 1    
   150   76  197 1    
   151   76  198 1    
   152   76  199 1    
   153   77   78 2    
   154   77   79 am   BACKBONE|DICT|INTERRES
   155   79   80 1    
   156   79  200 1    
   157   80   81 1    
   158   80   82 1    
   159   80  201 1    
   160   81  202 1    
   161   81  203 1    
   162   81  204 1    
   163   82   83 2    
   164   82   84 am   BACKBONE|DICT|INTERRES
   165   84   85 1    
   166   84  205 1    
   167   85   86 1    
   168   85   87 1    
   169   85  206 1    
   170   86  207 1    
   171   86  208 1    
   172   86  209 1    
   173   87   88 2    
   174   87   89 am   BACKBONE|DICT|INTERRES
   175   89   90 1    
   176   89  210 1    
   177   90   91 1    
   178   90   92 1    
   179   90  211 1    
   180   91  212 1    
   181   91  213 1    
   182   91  214 1    
   183   92   93 2    
   184   92   94 am   BACKBONE|DICT|INTERRES
   185   94   95 1    
   186   94  215 1    
   187   95   96 1    
   188   95   97 1    
   189   95  216 1    
   190   96  217 1    
   191   96  218 1    
   192   96  219 1    
   193   97   98 2    
   194   97   99 am   BACKBONE|DICT|INTERRES
   195   99  100 1    
   196   99  220 1    
   197  100  101 1    
   198  100  102 1    
   199  100  221 1    
   200  101  222 1    
   201  101  223 1    
   202  101  224 1    
   203  102  103 2    
   204  102  104 am   BACKBONE|DICT|INTERRES
   205  104  105 1    
   206  104  225 1    
   207  105  106 1    
   208  105  107 1    
   209  105  226 1    
   210  106  227 1    
   211  106  228 1    
   212  106  229 1    
   213  107  108 2    
   214  107  109 am   BACKBONE|DICT|INTERRES
   215  109  110 1    
   216  109  230 1    
   217  110  111 1    
   218  110  112 1    
   219  110  231 1    
   220  111  232 1    
   221  111  233 1    
   222  111  234 1    
   223  112  113 2    
   224  112  114 am   BACKBONE|DICT|INTERRES
   225  114  115 1    
   226  114  235 1    
   227  115  116 1    
   228  115  117 1    
   229  115  236 1    
   230  116  237 1    
   231  116  238 1    
   232  116  239 1    
   233  117  118 2    
   234  117  119 am   BACKBONE|DICT|INTERRES
   235  119  120 1    
   236  119  240 1    
   237  120  121 1    
   238  120  124 1    
   239  120  241 1    
   240  121  122 am   BACKBONE|DICT|INTERRES
   241  121  123 2    
   242  122  242 1    
   243  122  243 1    
   244  124  125 1    
   245  124  244 1    
   246  124  245 1    
   247  125  126 1    
   248  126  246 1    
   249  126  247 1    
@<TRIPOS>SUBSTRUCTURE
     1 UNK         1 GROUP             0       ****    0 ROOT    
