@<TRIPOS>MOLECULE
3R540
247   249    1
SMALL
USER_CHARGES


@<TRIPOS>ATOM
      1 CA          4.4305  -16.9846  -47.9501 C.3       0 UNK        -0.1800 
      2 C           3.6421  -15.8917  -47.2461 C.2       0 UNK         0.5000 
      3 O           3.4892  -15.9309  -46.0260 O.2       0 UNK        -0.5000 
      4 N           3.1567  -14.8998  -48.0022 N.am      1 UNK        -0.5000 
      5 CA          2.3826  -13.7529  -47.5103 C.3       1 UNK         0.1400 
      6 C6          1.4813  -13.1447  -48.6144 C.3       23 UNK        -0.0398 
      7 S7          0.1348  -14.2863  -49.0630 S.3       23 UNK        -0.2404 
      8 C8          0.7208  -14.9889  -50.6343 C.3       23 UNK        -0.0205 
      9 C9          0.2120  -16.4112  -50.7988 C.ar      23 UNK        -0.0193 
     10 C10        -1.1465  -16.6496  -51.0218 C.ar      23 UNK        -0.1150 
     11 C11        -1.6294  -17.9552  -51.1386 C.ar      23 UNK        -0.0193 
     12 C12        -0.7410  -19.0286  -51.0327 C.ar      23 UNK        -0.1150 
     13 C13         0.6203  -18.8042  -50.8063 C.ar      23 UNK        -0.0193 
     14 C14         1.0924  -17.4920  -50.7024 C.ar      23 UNK        -0.1150 
     15 C15         1.5715  -19.9853  -50.6644 C.3       23 UNK        -0.0205 
     16 S16         2.5722  -19.9483  -49.1359 S.3       23 UNK        -0.2404 
     17 C17         1.3513  -19.6154  -47.8164 C.3       23 UNK        -0.0398 
     18 CA          0.7374  -20.9022  -47.2163 C.3       11 UNK         0.1400 
     19 N           0.3265  -20.7247  -45.8216 N.am      11 UNK        -0.5000 
     20 C          -0.0715  -21.7162  -45.0114 C.2       10 UNK         0.5000 
     21 O          -0.0724  -22.9030  -45.3355 O.2       10 UNK        -0.5000 
     22 CA         -0.6182  -21.3116  -43.6297 C.3       10 UNK         0.1400 
     23 CB          0.5227  -21.0720  -42.6304 C.3       10 UNK        -0.1800 
     24 N          -1.4750  -20.1277  -43.6970 N.am      10 UNK        -0.5000 
     25 C          -2.6305  -20.0665  -44.3737 C.2       9 UNK         0.5000 
     26 O          -3.1325  -21.0263  -44.9561 O.2       9 UNK        -0.5000 
     27 CA         -3.3139  -18.6927  -44.4598 C.3       9 UNK         0.1400 
     28 CB         -4.1816  -18.4323  -43.2201 C.3       9 UNK        -0.1800 
     29 N          -2.3467  -17.6081  -44.6238 N.am      9 UNK        -0.5000 
     30 C          -1.6198  -17.4017  -45.7312 C.2       8 UNK         0.5000 
     31 O          -1.6980  -18.1006  -46.7423 O.2       8 UNK        -0.5000 
     32 CA         -0.6071  -16.2420  -45.6724 C.3       8 UNK         0.1400 
     33 CB         -1.3235  -14.8943  -45.8488 C.3       8 UNK        -0.1800 
     34 N           0.1512  -16.2204  -44.4193 N.am      8 UNK        -0.5000 
     35 C           0.9910  -17.1880  -44.0248 C.2       7 UNK         0.5000 
     36 O           1.2275  -18.1982  -44.6866 O.2       7 UNK        -0.5000 
     37 CA          1.6259  -17.0321  -42.6290 C.3       7 UNK         0.1400 
     38 CB          2.8994  -16.1761  -42.7043 C.3       7 UNK        -0.1800 
     39 N           0.7256  -16.4786  -41.6098 N.am      7 UNK        -0.5000 
     40 C          -0.4607  -17.0023  -41.2572 C.2       6 UNK         0.5000 
     41 O          -0.9617  -17.9772  -41.8186 O.2       6 UNK        -0.5000 
     42 CA         -1.1909  -16.3426  -40.0726 C.3       6 UNK         0.1400 
     43 CB         -2.2626  -17.2495  -39.4392 C.3       6 UNK        -0.1800 
     44 N          -0.2183  -15.9525  -39.0577 N.am      6 UNK        -0.5000 
     45 C          -0.2419  -14.8211  -38.3465 C.2       5 UNK         0.5000 
     46 O          -1.1631  -14.0036  -38.3820 O.2       5 UNK        -0.5000 
     47 CA          0.9993  -14.5244  -37.4768 C.3       5 UNK         0.1400 
     48 CB          1.8634  -15.7695  -37.1719 C.3       5 UNK        -0.1800 
     49 N           1.8338  -13.4672  -38.0603 N.am      5 UNK        -0.5000 
     50 C           2.3258  -13.4252  -39.3072 C.2       4 UNK         0.5000 
     51 O           2.1429  -14.3016  -40.1575 O.2       4 UNK        -0.5000 
     52 CA          3.1989  -12.2101  -39.6578 C.3       4 UNK         0.1400 
     53 CB          4.6869  -12.5542  -39.4919 C.3       4 UNK        -0.1800 
     54 N           2.9604  -11.8133  -41.0413 N.am      4 UNK        -0.5000 
     55 C           1.9344  -11.0628  -41.4592 C.2       3 UNK         0.5000 
     56 O           1.1398  -10.5187  -40.6907 O.2       3 UNK        -0.5000 
     57 CA          1.7269  -10.9236  -42.9833 C.3       3 UNK         0.1400 
     58 CB          1.5796   -9.4507  -43.4178 C.3       3 UNK        -0.1800 
     59 N           2.7205  -11.6301  -43.8060 N.am      3 UNK        -0.5000 
     60 C           4.0170  -11.3352  -43.9953 C.2       2 UNK         0.5000 
     61 O           4.5927  -10.3836  -43.4685 O.2       2 UNK        -0.5000 
     62 CA          4.8172  -12.2899  -44.9048 C.3       2 UNK         0.1400 
     63 CB          5.7055  -13.2132  -44.0555 C.3       2 UNK        -0.1800 
     64 N           3.9646  -13.1217  -45.7564 N.am      2 UNK        -0.5000 
     65 C           3.2996  -12.7050  -46.8409 C.2       1 UNK         0.5000 
     66 O           3.3899  -11.5644  -47.2979 O.2       1 UNK        -0.5000 
     67 C          -0.4197  -21.4351  -48.0850 C.2       11 UNK         0.5000 
     68 O          -0.2217  -22.3978  -48.8241 O.2       11 UNK        -0.5000 
     69 N          -1.6146  -20.8403  -47.9504 N.am      12 UNK        -0.5000 
     70 CA         -2.8319  -21.2696  -48.6450 C.3       12 UNK         0.1400 
     71 CB         -3.9604  -20.2639  -48.3735 C.3       12 UNK        -0.1800 
     72 C          -3.2697  -22.6996  -48.2724 C.2       12 UNK         0.5000 
     73 O          -3.6996  -23.4488  -49.1487 O.2       12 UNK        -0.5000 
     74 N          -3.1273  -23.0598  -46.9895 N.am      13 UNK        -0.5000 
     75 CA         -3.3830  -24.4023  -46.4693 C.3       13 UNK         0.1400 
     76 CB         -3.4131  -24.3613  -44.9340 C.3       13 UNK        -0.1800 
     77 C          -2.3615  -25.4414  -46.9675 C.2       13 UNK         0.5000 
     78 O          -2.7475  -26.5766  -47.2446 O.2       13 UNK        -0.5000 
     79 N          -1.0861  -25.0434  -47.0804 N.am      14 UNK        -0.5000 
     80 CA         -0.0092  -25.8666  -47.6322 C.3       14 UNK         0.1400 
     81 CB          1.3516  -25.2297  -47.3109 C.3       14 UNK        -0.1800 
     82 C          -0.1736  -26.0879  -49.1461 C.2       14 UNK         0.5000 
     83 O          -0.0876  -27.2247  -49.6122 O.2       14 UNK        -0.5000 
     84 N          -0.4630  -25.0084  -49.8833 N.am      15 UNK        -0.5000 
     85 CA         -0.7354  -24.9955  -51.3213 C.3       15 UNK         0.1400 
     86 CB         -0.3976  -23.5987  -51.8754 C.3       15 UNK        -0.1800 
     87 C          -2.1859  -25.4158  -51.6425 C.2       15 UNK         0.5000 
     88 O          -2.8552  -24.7556  -52.4390 O.2       15 UNK        -0.5000 
     89 N          -2.6489  -26.5150  -51.0308 N.am      16 UNK        -0.5000 
     90 CA         -4.0243  -27.0261  -51.0745 C.3       16 UNK         0.1400 
     91 CB         -4.1232  -28.2628  -50.1687 C.3       16 UNK        -0.1800 
     92 C          -4.5556  -27.3633  -52.4817 C.2       16 UNK         0.5000 
     93 O          -5.7706  -27.3730  -52.6803 O.2       16 UNK        -0.5000 
     94 N          -3.6465  -27.6187  -53.4328 N.am      17 UNK        -0.5000 
     95 CA         -3.9538  -27.8239  -54.8491 C.3       17 UNK         0.1400 
     96 CB         -2.6929  -28.3310  -55.5653 C.3       17 UNK        -0.1800 
     97 C          -4.4956  -26.5564  -55.5419 C.2       17 UNK         0.5000 
     98 O          -5.2647  -26.6764  -56.4965 O.2       17 UNK        -0.5000 
     99 N          -4.0949  -25.3770  -55.0485 N.am      18 UNK        -0.5000 
    100 CA        -4.5878  -24.0756  -55.4930 C.3       18 UNK         0.1400 
    101 CB        -3.4013  -23.1138  -55.6575 C.3       18 UNK        -0.1800 
    102 C         -5.6036  -23.5129  -54.4873 C.2       18 UNK         0.5000 
    103 O         -6.6506  -23.0133  -54.8991 O.2       18 UNK        -0.5000 
    104 N         -5.2821  -23.6125  -53.1887 N.am      19 UNK        -0.5000 
    105 CA        -6.0429  -23.1071  -52.0460 C.3       19 UNK         0.1400 
    106 CB        -7.3135  -23.9578  -51.8254 C.3       19 UNK        -0.1800 
    107 C         -6.3018  -21.5920  -52.1769 C.2       19 UNK         0.5000 
    108 O         -5.3477  -20.8157  -52.1402 O.2       19 UNK        -0.5000 
    109 N         -7.5694  -21.1991  -52.3553 N.am      20 UNK        -0.5000 
    110 CA        -7.9942  -19.8156  -52.5713 C.3       20 UNK         0.1400 
    111 CB        -9.5037  -19.7164  -52.3019 C.3       20 UNK        -0.1800 
    112 C         -7.6620  -19.2753  -53.9780 C.2       20 UNK         0.5000 
    113 O         -7.6369  -18.0578  -54.1579 O.2       20 UNK        -0.5000 
    114 N         -7.4032  -20.1647  -54.9479 N.am      21 UNK        -0.5000 
    115 CA        -7.0633  -19.8295  -56.3344 C.3       21 UNK         0.1400 
    116 CB        -7.7157  -20.8568  -57.2774 C.3       21 UNK        -0.1800 
    117 C         -5.5379  -19.7210  -56.5483 C.2       21 UNK         0.5000 
    118 O         -5.0445  -20.0179  -57.6373 O.2       21 UNK        -0.5000 
    119 N         -4.8133  -19.3017  -55.5050 N.am      22 UNK        -0.5000 
    120 CA        -3.3606  -19.0710  -55.4919 C.3       22 UNK         0.1400 
    121 C         -2.8607  -17.8671  -56.3472 C.2       22 UNK         0.5000 
    122 N         -3.7241  -16.9725  -56.8134 N.am      22 UNK        -0.7600 
    123 O         -1.6655  -17.7521  -56.6043 O.2       22 UNK        -0.5000 
    124 C124       -2.8253  -19.0040  -54.0387 C.3       23 UNK        -0.0398 
    125 S125       -3.6408  -17.7161  -53.0289 S.3       23 UNK        -0.2404 
    126 C126       -3.1141  -18.1989  -51.3579 C.3       23 UNK        -0.0205 
    127 H127        5.4997  -16.8046  -47.8411 H         1 UNK         0.0600 
    128 H128        4.1935  -17.0309  -49.0131 H         1 UNK         0.0600 
    129 H129        4.2028  -17.9546  -47.5090 H         1 UNK         0.0600 
    130 H130        3.3529  -14.8989  -48.9919 H         1 UNK         0.3000 
    131 H131        1.7199  -14.1100  -46.7187 H         1 UNK         0.0600 
    132 H132        2.0620  -12.8666  -49.4953 H         1 UNK         0.0800 
    133 H133        1.0066  -12.2275  -48.2611 H         1 UNK         0.0800 
    134 H134        1.8104  -14.9718  -50.6724 H         1 UNK         0.0800 
    135 H135        0.3707  -14.3707  -51.4621 H         1 UNK         0.0800 
    136 H136       -1.8321  -15.8166  -51.0922 H         1 UNK         0.1150 
    137 H137       -1.1108  -20.0404  -51.1182 H         1 UNK         0.1150 
    138 H138        2.1436  -17.3168  -50.5233 H         1 UNK         0.1150 
    139 H139        1.0251  -20.9281  -50.7019 H         1 UNK         0.0800 
    140 H140        2.2457  -19.9947  -51.5215 H         1 UNK         0.0800 
    141 H141        0.5860  -18.9110  -48.1450 H         1 UNK         0.0800 
    142 H142        1.9065  -19.0846  -47.0429 H         1 UNK         0.0800 
    143 H143        1.5127  -21.6714  -47.2036 H         1 UNK         0.0600 
    144 H144        0.3551  -19.7775  -45.4555 H         1 UNK         0.3000 
    145 H145       -1.2260  -22.1384  -43.2569 H         1 UNK         0.0600 
    146 H146        0.1364  -20.8068  -41.6460 H         1 UNK         0.0600 
    147 H147        1.1302  -21.9700  -42.5124 H         1 UNK         0.0600 
    148 H148        1.1844  -20.2707  -42.9571 H         1 UNK         0.0600 
    149 H149       -1.1620  -19.3016  -43.1943 H         1 UNK         0.3000 
    150 H150       -3.9671  -18.6985  -45.3349 H         1 UNK         0.0600 
    151 H151       -4.9465  -19.2026  -43.1137 H         1 UNK         0.0600 
    152 H152       -4.6938  -17.4726  -43.2896 H         1 UNK         0.0600 
    153 H153       -3.5891  -18.4330  -42.3056 H         1 UNK         0.0600 
    154 H154       -2.1695  -17.0341  -43.8129 H         1 UNK         0.3000 
    155 H155        0.0992  -16.3702  -46.4960 H         1 UNK         0.0600 
    156 H156       -2.0178  -14.6934  -45.0322 H         1 UNK         0.0600 
    157 H157       -0.6124  -14.0697  -45.8933 H         1 UNK         0.0600 
    158 H158       -1.8968  -14.8776  -46.7767 H         1 UNK         0.0600 
    159 H159       -0.0001  -15.4369  -43.8021 H         1 UNK         0.3000 
    160 H160        1.9142  -18.0294  -42.2923 H         1 UNK         0.0600 
    161 H161        3.4104  -16.1428  -41.7421 H         1 UNK         0.0600 
    162 H162        2.6798  -15.1508  -43.0039 H         1 UNK         0.0600 
    163 H163        3.6046  -16.5883  -43.4267 H         1 UNK         0.0600 
    164 H164        1.0811  -15.6773  -41.0939 H         1 UNK         0.3000 
    165 H165       -1.6824  -15.4542  -40.4740 H         1 UNK         0.0600 
    166 H166       -2.7528  -16.7542  -38.6011 H         1 UNK         0.0600 
    167 H167       -3.0391  -17.5043  -40.1604 H         1 UNK         0.0600 
    168 H168       -1.8320  -18.1820  -39.0724 H         1 UNK         0.0600 
    169 H169        0.5986  -16.5434  -38.9860 H         1 UNK         0.3000 
    170 H170        0.6234  -14.1427  -36.5263 H         1 UNK         0.0600 
    171 H171        1.2650  -16.5651  -36.7261 H         1 UNK         0.0600 
    172 H172        2.3444  -16.1712  -38.0645 H         1 UNK         0.0600 
    173 H173        2.6519  -15.5266  -36.4594 H         1 UNK         0.0600 
    174 H174        2.0215  -12.6849  -37.4491 H         1 UNK         0.3000 
    175 H175        2.9537  -11.3791  -38.9929 H         1 UNK         0.0600 
    176 H176        4.9826  -13.3859  -40.1331 H         1 UNK         0.0600 
    177 H177        5.3186  -11.7004  -39.7381 H         1 UNK         0.0600 
    178 H178        4.9097  -12.8379  -38.4625 H         1 UNK         0.0600 
    179 H179        3.5378  -12.2553  -41.7395 H         1 UNK         0.3000 
    180 H180        0.7761  -11.4158  -43.1927 H         1 UNK         0.0600 
    181 H181        2.4593   -8.8598  -43.1624 H         1 UNK         0.0600 
    182 H182        0.7244   -8.9836  -42.9282 H         1 UNK         0.0600 
    183 H183        1.4200   -9.3703  -44.4930 H         1 UNK         0.0600 
    184 H184        2.3748  -12.4541  -44.2752 H         1 UNK         0.3000 
    185 H185        5.4603  -11.6800  -45.5426 H         1 UNK         0.0600 
    186 H186        6.3791  -12.6355  -43.4210 H         1 UNK         0.0600 
    187 H187        5.1124  -13.8574  -43.4049 H         1 UNK         0.0600 
    188 H188        6.3237  -13.8530  -44.6855 H         1 UNK         0.0600 
    189 H189        3.8741  -14.1028  -45.5050 H         1 UNK         0.3000 
    190 H190       -1.6942  -20.0256  -47.3497 H         1 UNK         0.3000 
    191 H191       -2.6210  -21.2613  -49.7159 H         1 UNK         0.0600 
    192 H192       -4.2660  -20.2730  -47.3273 H         1 UNK         0.0600 
    193 H193       -4.8396  -20.4960  -48.9760 H         1 UNK         0.0600 
    194 H194       -3.6534  -19.2477  -48.6200 H         1 UNK         0.0600 
    195 H195       -2.8437  -22.3554  -46.3140 H         1 UNK         0.3000 
    196 H196       -4.3694  -24.7148  -46.8181 H         1 UNK         0.0600 
    197 H197       -3.6290  -25.3473  -44.5210 H         1 UNK         0.0600 
    198 H198       -4.1846  -23.6809  -44.5732 H         1 UNK         0.0600 
    199 H199       -2.4590  -24.0335  -44.5210 H         1 UNK         0.0600 
    200 H200       -0.8334  -24.1124  -46.7656 H         1 UNK         0.3000 
    201 H201       -0.0456  -26.8436  -47.1458 H         1 UNK         0.0600 
    202 H202        1.4971  -25.1359  -46.2346 H         1 UNK         0.0600 
    203 H203        1.4485  -24.2356  -47.7475 H         1 UNK         0.0600 
    204 H204        2.1688  -25.8394  -47.6980 H         1 UNK         0.0600 
    205 H205       -0.5088  -24.1036  -49.4176 H         1 UNK         0.3000 
    206 H206       -0.0767  -25.7153  -51.8108 H         1 UNK         0.0600 
    207 H207        0.6318  -23.3224  -51.6469 H         1 UNK         0.0600 
    208 H208       -0.5088  -23.5669  -52.9600 H         1 UNK         0.0600 
    209 H209       -1.0507  -22.8328  -51.4547 H         1 UNK         0.0600 
    210 H210       -2.0092  -27.0010  -50.4131 H         1 UNK         0.3000 
    211 H211       -4.6702  -26.2465  -50.6653 H         1 UNK         0.0600 
    212 H212       -3.4587  -29.0600  -50.5042 H         1 UNK         0.0600 
    213 H213       -5.1381  -28.6627  -50.1585 H         1 UNK         0.0600 
    214 H214       -3.8637  -28.0220  -49.1388 H         1 UNK         0.0600 
    215 H215       -2.6710  -27.6040  -53.1746 H         1 UNK         0.3000 
    216 H216       -4.7234  -28.5953  -54.9212 H         1 UNK         0.0600 
    217 H217       -2.8929  -28.5200  -56.6209 H         1 UNK         0.0600 
    218 H218       -2.3407  -29.2665  -55.1303 H         1 UNK         0.0600 
    219 H219       -1.8795  -27.6064  -55.5100 H         1 UNK         0.0600 
    220 H220       -3.4992  -25.3711  -54.2277 H         1 UNK         0.3000 
    221 H221       -5.0855  -24.1632  -56.4610 H         1 UNK         0.0600 
    222 H222       -2.8788  -22.9429  -54.7151 H         1 UNK         0.0600 
    223 H223       -2.6785  -23.4999  -56.3761 H         1 UNK         0.0600 
    224 H224       -3.7415  -22.1477  -56.0278 H         1 UNK         0.0600 
    225 H225       -4.3733  -24.0053  -52.9492 H         1 UNK         0.3000 
    226 H226       -5.4050  -23.2338  -51.1713 H         1 UNK         0.0600 
    227 H227       -7.0518  -25.0023  -51.6554 H         1 UNK         0.0600 
    228 H228       -7.8658  -23.6209  -50.9474 H         1 UNK         0.0600 
    229 H229       -7.9891  -23.9267  -52.6807 H         1 UNK         0.0600 
    230 H230       -8.2891  -21.9057  -52.4014 H         1 UNK         0.3000 
    231 H231       -7.4768  -19.1808  -51.8486 H         1 UNK         0.0600 
    232 H232       -9.8556  -18.6905  -52.4189 H         1 UNK         0.0600 
    233 H233       -9.7446  -20.0265  -51.2849 H         1 UNK         0.0600 
    234 H234      -10.0767  -20.3403  -52.9891 H         1 UNK         0.0600 
    235 H235       -7.3682  -21.1532  -54.7166 H         1 UNK         0.3000 
    236 H236       -7.4833  -18.8530  -56.5831 H         1 UNK         0.0600 
    237 H237       -8.7860  -20.9423  -57.0890 H         1 UNK         0.0600 
    238 H238       -7.5948  -20.5621  -58.3204 H         1 UNK         0.0600 
    239 H239       -7.2748  -21.8473  -57.1660 H         1 UNK         0.0600 
    240 H240       -5.2952  -19.0685  -54.6482 H         1 UNK         0.3000 
    241 H241       -2.9026  -19.9469  -55.9533 H         1 UNK         0.0600 
    242 H242       -3.3895  -16.2021  -57.3704 H         1 UNK         0.3800 
    243 H243       -4.7051  -17.0480  -56.5988 H         1 UNK         0.3800 
    244 H244       -2.9835  -19.9693  -53.5551 H         1 UNK         0.0800 
    245 H245       -1.7465  -18.8382  -54.0257 H         1 UNK         0.0800 
    246 H246       -3.6831  -17.6214  -50.6282 H         1 UNK         0.0800 
    247 H247       -3.3688  -19.2452  -51.1857 H         1 UNK         0.0800 
@<TRIPOS>BOND
     1    1    2 1    
     2    1  127 1    
     3    1  128 1    
     4    1  129 1    
     5    2    3 2    
     6    2    4 am   BACKBONE|DICT|INTERRES
     7    4    5 1    
     8    4  130 1    
     9    5    6 1    
    10    5   65 1    
    11    5  131 1    
    12    6    7 1    
    13    6  132 1    
    14    6  133 1    
    15    7    8 1    
    16    8    9 1    
    17    8  134 1    
    18    8  135 1    
    19    9   10 ar   
    20    9   14 ar   
    21   10   11 ar   
    22   10  136 1    
    23   11   12 ar   
    24   11  126 1    
    25   12   13 ar   
    26   12  137 1    
    27   13   14 ar   
    28   13   15 1    
    29   14  138 1    
    30   15   16 1    
    31   15  139 1    
    32   15  140 1    
    33   16   17 1    
    34   17   18 1    
    35   17  141 1    
    36   17  142 1    
    37   18   19 1    
    38   18   67 1    
    39   18  143 1    
    40   19   20 am   BACKBONE|DICT|INTERRES
    41   19  144 1    
    42   20   21 2    
    43   20   22 1    
    44   22   23 1    
    45   22   24 1    
    46   22  145 1    
    47   23  146 1    
    48   23  147 1    
    49   23  148 1    
    50   24   25 am   BACKBONE|DICT|INTERRES
    51   24  149 1    
    52   25   26 2    
    53   25   27 1    
    54   27   28 1    
    55   27   29 1    
    56   27  150 1    
    57   28  151 1    
    58   28  152 1    
    59   28  153 1    
    60   29   30 am   BACKBONE|DICT|INTERRES
    61   29  154 1    
    62   30   31 2    
    63   30   32 1    
    64   32   33 1    
    65   32   34 1    
    66   32  155 1    
    67   33  156 1    
    68   33  157 1    
    69   33  158 1    
    70   34   35 am   BACKBONE|DICT|INTERRES
    71   34  159 1    
    72   35   36 2    
    73   35   37 1    
    74   37   38 1    
    75   37   39 1    
    76   37  160 1    
    77   38  161 1    
    78   38  162 1    
    79   38  163 1    
    80   39   40 am   BACKBONE|DICT|INTERRES
    81   39  164 1    
    82   40   41 2    
    83   40   42 1    
    84   42   43 1    
    85   42   44 1    
    86   42  165 1    
    87   43  166 1    
    88   43  167 1    
    89   43  168 1    
    90   44   45 am   BACKBONE|DICT|INTERRES
    91   44  169 1    
    92   45   46 2    
    93   45   47 1    
    94   47   48 1    
    95   47   49 1    
    96   47  170 1    
    97   48  171 1    
    98   48  172 1    
    99   48  173 1    
   100   49   50 am   BACKBONE|DICT|INTERRES
   101   49  174 1    
   102   50   51 2    
   103   50   52 1    
   104   52   53 1    
   105   52   54 1    
   106   52  175 1    
   107   53  176 1    
   108   53  177 1    
   109   53  178 1    
   110   54   55 am   BACKBONE|DICT|INTERRES
   111   54  179 1    
   112   55   56 2    
   113   55   57 1    
   114   57   58 1    
   115   57   59 1    
   116   57  180 1    
   117   58  181 1    
   118   58  182 1    
   119   58  183 1    
   120   59   60 am   BACKBONE|DICT|INTERRES
   121   59  184 1    
   122   60   61 2    
   123   60   62 1    
   124   62   63 1    
   125   62   64 1    
   126   62  185 1    
   127   63  186 1    
   128   63  187 1    
   129   63  188 1    
   130   64   65 am   BACKBONE|DICT|INTERRES
   131   64  189 1    
   132   65   66 2    
   133   67   68 2    
   134   67   69 am   BACKBONE|DICT|INTERRES
   135   69   70 1    
   136   69  190 1    
   137   70   71 1    
   138   70   72 1    
   139   70  191 1    
   140   71  192 1    
   141   71  193 1    
   142   71  194 1    
   143   72   73 2    
   144   72   74 am   BACKBONE|DICT|INTERRES
   145   74   75 1    
   146   74  195 1    
   147   75   76 1    
   148   75   77 1    
   149   75  196 1    
   150   76  197 1    
   151   76  198 1    
   152   76  199 1    
   153   77   78 2    
   154   77   79 am   BACKBONE|DICT|INTERRES
   155   79   80 1    
   156   79  200 1    
   157   80   81 1    
   158   80   82 1    
   159   80  201 1    
   160   81  202 1    
   161   81  203 1    
   162   81  204 1    
   163   82   83 2    
   164   82   84 am   BACKBONE|DICT|INTERRES
   165   84   85 1    
   166   84  205 1    
   167   85   86 1    
   168   85   87 1    
   169   85  206 1    
   170   86  207 1    
   171   86  208 1    
   172   86  209 1    
   173   87   88 2    
   174   87   89 am   BACKBONE|DICT|INTERRES
   175   89   90 1    
   176   89  210 1    
   177   90   91 1    
   178   90   92 1    
   179   90  211 1    
   180   91  212 1    
   181   91  213 1    
   182   91  214 1    
   183   92   93 2    
   184   92   94 am   BACKBONE|DICT|INTERRES
   185   94   95 1    
   186   94  215 1    
   187   95   96 1    
   188   95   97 1    
   189   95  216 1    
   190   96  217 1    
   191   96  218 1    
   192   96  219 1    
   193   97   98 2    
   194   97   99 am   BACKBONE|DICT|INTERRES
   195   99  100 1    
   196   99  220 1    
   197  100  101 1    
   198  100  102 1    
   199  100  221 1    
   200  101  222 1    
   201  101  223 1    
   202  101  224 1    
   203  102  103 2    
   204  102  104 am   BACKBONE|DICT|INTERRES
   205  104  105 1    
   206  104  225 1    
   207  105  106 1    
   208  105  107 1    
   209  105  226 1    
   210  106  227 1    
   211  106  228 1    
   212  106  229 1    
   213  107  108 2    
   214  107  109 am   BACKBONE|DICT|INTERRES
   215  109  110 1    
   216  109  230 1    
   217  110  111 1    
   218  110  112 1    
   219  110  231 1    
   220  111  232 1    
   221  111  233 1    
   222  111  234 1    
   223  112  113 2    
   224  112  114 am   BACKBONE|DICT|INTERRES
   225  114  115 1    
   226  114  235 1    
   227  115  116 1    
   228  115  117 1    
   229  115  236 1    
   230  116  237 1    
   231  116  238 1    
   232  116  239 1    
   233  117  118 2    
   234  117  119 am   BACKBONE|DICT|INTERRES
   235  119  120 1    
   236  119  240 1    
   237  120  121 1    
   238  120  124 1    
   239  120  241 1    
   240  121  122 am   BACKBONE|DICT|INTERRES
   241  121  123 2    
   242  122  242 1    
   243  122  243 1    
   244  124  125 1    
   245  124  244 1    
   246  124  245 1    
   247  125  126 1    
   248  126  246 1    
   249  126  247 1    
@<TRIPOS>SUBSTRUCTURE
     1 UNK         1 GROUP             0       ****    0 ROOT    
