@<TRIPOS>MOLECULE
3R540
247   249    1
SMALL
USER_CHARGES


@<TRIPOS>ATOM
      1 CA          2.7377   -8.4089  -46.2501 C.3       0 UNK        -0.1800 
      2 C           2.6196   -9.9079  -46.4829 C.2       0 UNK         0.5000 
      3 O           3.6289  -10.5720  -46.7151 O.2       0 UNK        -0.5000 
      4 N           1.3940  -10.4462  -46.4058 N.am      1 UNK        -0.5000 
      5 CA          1.0629  -11.8636  -46.6178 C.3       1 UNK         0.1400 
      6 C6         -0.4735  -12.0715  -46.6115 C.3       23 UNK        -0.0398 
      7 S7         -1.0105  -13.7222  -47.1702 S.3       23 UNK        -0.2404 
      8 C8         -1.0204  -13.5064  -48.9724 C.3       23 UNK        -0.0205 
      9 C9         -1.2694  -14.8241  -49.6907 C.ar      23 UNK        -0.0193 
     10 C10        -2.5660  -15.1878  -50.0681 C.ar      23 UNK        -0.1150 
     11 C11        -2.7906  -16.3622  -50.7927 C.ar      23 UNK        -0.0193 
     12 C12        -1.7069  -17.1781  -51.1278 C.ar      23 UNK        -0.1150 
     13 C13        -0.4090  -16.8394  -50.7386 C.ar      23 UNK        -0.0193 
     14 C14        -0.1968  -15.6619  -50.0151 C.ar      23 UNK        -0.1150 
     15 C15         0.7662  -17.7155  -51.1497 C.3       23 UNK        -0.0205 
     16 S16         1.2822  -18.8678  -49.8375 S.3       23 UNK        -0.2404 
     17 C17        -0.0633  -20.1010  -49.8350 C.3       23 UNK        -0.0398 
     18 CA         -0.7878  -20.1688  -48.4708 C.3       11 UNK         0.1400 
     19 N          -1.3579  -18.8767  -48.0714 N.am      11 UNK        -0.5000 
     20 C          -1.8608  -18.6044  -46.8616 C.2       10 UNK         0.5000 
     21 O          -2.0528  -19.4560  -45.9902 O.2       10 UNK        -0.5000 
     22 CA         -2.2300  -17.1396  -46.5908 C.3       10 UNK         0.1400 
     23 CB         -3.7404  -16.9201  -46.7534 C.3       10 UNK        -0.1800 
     24 N          -1.8246  -16.7268  -45.2489 N.am      10 UNK        -0.5000 
     25 C          -0.5596  -16.6119  -44.8270 C.2       9 UNK         0.5000 
     26 O           0.4225  -16.8247  -45.5359 O.2       9 UNK        -0.5000 
     27 CA         -0.3453  -16.2173  -43.3554 C.3       9 UNK         0.1400 
     28 CB         -0.7288  -14.7466  -43.0960 C.3       9 UNK        -0.1800 
     29 N          -0.9829  -17.1327  -42.4010 N.am      9 UNK        -0.5000 
     30 C          -2.2892  -17.3302  -42.1627 C.2       8 UNK         0.5000 
     31 O          -3.1927  -16.7258  -42.7430 O.2       8 UNK        -0.5000 
     32 CA         -2.6301  -18.4029  -41.1126 C.3       8 UNK         0.1400 
     33 CB         -4.0958  -18.8727  -41.1680 C.3       8 UNK        -0.1800 
     34 N          -1.7282  -19.5454  -41.2575 N.am      8 UNK        -0.5000 
     35 C          -1.1491  -20.2012  -40.2456 C.2       7 UNK         0.5000 
     36 O          -1.4001  -19.9806  -39.0600 O.2       7 UNK        -0.5000 
     37 CA         -0.0905  -21.2694  -40.5993 C.3       7 UNK         0.1400 
     38 CB         -0.6740  -22.6838  -40.4514 C.3       7 UNK        -0.1800 
     39 N           0.5398  -21.1544  -41.9222 N.am      7 UNK        -0.5000 
     40 C           1.2202  -20.0951  -42.3815 C.2       6 UNK         0.5000 
     41 O           1.2506  -19.0010  -41.8105 O.2       6 UNK        -0.5000 
     42 CA          1.9767  -20.2961  -43.7103 C.3       6 UNK         0.1400 
     43 CB          1.0160  -20.2960  -44.9066 C.3       6 UNK        -0.1800 
     44 N           2.9847  -19.2519  -43.9024 N.am      6 UNK        -0.5000 
     45 C           4.1621  -19.2256  -43.2628 C.2       5 UNK         0.5000 
     46 O           4.5554  -20.1459  -42.5425 O.2       5 UNK        -0.5000 
     47 CA          5.0326  -17.9593  -43.4199 C.3       5 UNK         0.1400 
     48 CB          6.5415  -18.2570  -43.2927 C.3       5 UNK        -0.1800 
     49 N           4.7719  -17.1642  -44.6247 N.am      5 UNK        -0.5000 
     50 C           4.9329  -17.5350  -45.9054 C.2       4 UNK         0.5000 
     51 O           5.2237  -18.6779  -46.2593 O.2       4 UNK        -0.5000 
     52 CA          4.7706  -16.4349  -46.9764 C.3       4 UNK         0.1400 
     53 CB          3.4042  -16.5431  -47.6663 C.3       4 UNK        -0.1800 
     54 N           4.9386  -15.0821  -46.4368 N.am      4 UNK        -0.5000 
     55 C           6.1188  -14.5661  -46.0554 C.2       3 UNK         0.5000 
     56 O           7.1938  -15.1442  -46.2200 O.2       3 UNK        -0.5000 
     57 CA          6.1129  -13.1926  -45.3510 C.3       3 UNK         0.1400 
     58 CB          6.5578  -12.0899  -46.3231 C.3       3 UNK        -0.1800 
     59 N           4.8199  -12.8277  -44.7670 N.am      3 UNK        -0.5000 
     60 C           4.2218  -13.4774  -43.7560 C.2       2 UNK         0.5000 
     61 O           4.7287  -14.4355  -43.1722 O.2       2 UNK        -0.5000 
     62 CA          2.7995  -13.0285  -43.3585 C.3       2 UNK         0.1400 
     63 CB          2.8445  -12.1430  -42.1049 C.3       2 UNK        -0.1800 
     64 N           2.0633  -12.3231  -44.4120 N.am      2 UNK        -0.5000 
     65 C           1.7920  -12.8084  -45.6332 C.2       1 UNK         0.5000 
     66 O           2.1531  -13.9226  -46.0103 O.2       1 UNK        -0.5000 
     67 C          -1.7955  -21.3367  -48.4278 C.2       11 UNK         0.5000 
     68 O          -1.3735  -22.4803  -48.2612 O.2       11 UNK        -0.5000 
     69 N          -3.1016  -21.0388  -48.5014 N.am      12 UNK        -0.5000 
     70 CA         -4.2033  -21.9926  -48.3269 C.3       12 UNK         0.1400 
     71 CB         -5.5211  -21.3062  -48.7067 C.3       12 UNK        -0.1800 
     72 C          -4.3048  -22.6029  -46.9114 C.2       12 UNK         0.5000 
     73 O          -5.0651  -23.5509  -46.7153 O.2       12 UNK        -0.5000 
     74 N          -3.5498  -22.0629  -45.9450 N.am      13 UNK        -0.5000 
     75 CA         -3.3787  -22.6459  -44.6164 C.3       13 UNK         0.1400 
     76 CB         -2.9126  -21.5420  -43.6591 C.3       13 UNK        -0.1800 
     77 C          -2.3843  -23.8270  -44.6068 C.2       13 UNK         0.5000 
     78 O          -2.3690  -24.5799  -43.6326 O.2       13 UNK        -0.5000 
     79 N          -1.5674  -23.9606  -45.6622 N.am      14 UNK        -0.5000 
     80 CA         -0.5557  -25.0054  -45.8193 C.3       14 UNK         0.1400 
     81 CB          0.8295  -24.3468  -45.9371 C.3       14 UNK        -0.1800 
     82 C          -0.8541  -25.8867  -47.0444 C.2       14 UNK         0.5000 
     83 O          -0.8725  -27.1123  -46.9216 O.2       14 UNK        -0.5000 
     84 N          -1.0864  -25.2513  -48.1984 N.am      15 UNK        -0.5000 
     85 CA         -1.4637  -25.8853  -49.4607 C.3       15 UNK         0.1400 
     86 CB         -0.8393  -25.0690  -50.6076 C.3       15 UNK        -0.1800 
     87 C          -2.9960  -25.9426  -49.6056 C.2       15 UNK         0.5000 
     88 O          -3.7219  -25.4398  -48.7470 O.2       15 UNK        -0.5000 
     89 N          -3.4724  -26.5307  -50.7100 N.am      16 UNK        -0.5000 
     90 CA         -4.8695  -26.4365  -51.1389 C.3       16 UNK         0.1400 
     91 CB         -5.1185  -27.4563  -52.2606 C.3       16 UNK        -0.1800 
     92 C          -5.1839  -25.0130  -51.6351 C.2       16 UNK         0.5000 
     93 O          -4.3067  -24.3702  -52.2150 O.2       16 UNK        -0.5000 
     94 N          -6.4282  -24.5543  -51.4479 N.am      17 UNK        -0.5000 
     95 CA         -6.8711  -23.2026  -51.8131 C.3       17 UNK         0.1400 
     96 CB         -8.2934  -22.9654  -51.2874 C.3       17 UNK        -0.1800 
     97 C          -6.7898  -22.8909  -53.3195 C.2       17 UNK         0.5000 
     98 O          -6.5628  -21.7363  -53.6855 O.2       17 UNK        -0.5000 
     99 N          -6.9473  -23.9237  -54.1580 N.am      18 UNK        -0.5000 
    100 CA        -6.7926  -23.8426  -55.6103 C.3       18 UNK         0.1400 
    101 CB        -7.4831  -25.0517  -56.2592 C.3       18 UNK        -0.1800 
    102 C         -5.3159  -23.7684  -56.0426 C.2       18 UNK         0.5000 
    103 O         -5.0056  -23.0769  -57.0121 O.2       18 UNK        -0.5000 
    104 N         -4.4330  -24.4639  -55.3109 N.am      19 UNK        -0.5000 
    105 CA        -2.9852  -24.4691  -55.5374 C.3       19 UNK         0.1400 
    106 CB        -2.3614  -25.6916  -54.8454 C.3       19 UNK        -0.1800 
    107 C         -2.3317  -23.1677  -55.0427 C.2       19 UNK         0.5000 
    108 O         -1.4607  -22.6203  -55.7190 O.2       19 UNK        -0.5000 
    109 N         -2.8001  -22.6825  -53.8859 N.am      20 UNK        -0.5000 
    110 CA        -2.4462  -21.3945  -53.2932 C.3       20 UNK         0.1400 
    111 CB        -3.0247  -21.3521  -51.8728 C.3       20 UNK        -0.1800 
    112 C         -2.9684  -20.1904  -54.0992 C.2       20 UNK         0.5000 
    113 O         -2.3975  -19.1053  -54.0002 O.2       20 UNK        -0.5000 
    114 N         -4.0529  -20.4096  -54.8565 N.am      21 UNK        -0.5000 
    115 CA        -4.8287  -19.4289  -55.6196 C.3       21 UNK         0.1400 
    116 CB        -3.9734  -18.7563  -56.7137 C.3       21 UNK        -0.1800 
    117 C         -5.5736  -18.4205  -54.7187 C.2       21 UNK         0.5000 
    118 O         -5.8631  -17.3041  -55.1535 O.2       21 UNK        -0.5000 
    119 N         -5.8967  -18.8421  -53.4888 N.am      22 UNK        -0.5000 
    120 CA        -6.7737  -18.1094  -52.5632 C.3       22 UNK         0.1400 
    121 C         -8.2828  -18.3349  -52.8685 C.2       22 UNK         0.5000 
    122 N         -8.6638  -19.4089  -53.5528 N.am      22 UNK        -0.7600 
    123 O         -9.1176  -17.5221  -52.4815 O.2       22 UNK        -0.5000 
    124 C124       -6.4848  -18.4413  -51.0747 C.3       23 UNK        -0.0398 
    125 S125       -4.7476  -18.2972  -50.5182 S.3       23 UNK        -0.2404 
    126 C126       -4.1919  -16.7314  -51.2572 C.3       23 UNK        -0.0205 
    127 H127        3.1653   -7.9263  -47.1288 H         1 UNK         0.0600 
    128 H128        3.3911   -8.2122  -45.4002 H         1 UNK         0.0600 
    129 H129        1.7690   -7.9515  -46.0481 H         1 UNK         0.0600 
    130 H130        0.6112   -9.8400  -46.2047 H         1 UNK         0.3000 
    131 H131        1.4299  -12.1155  -47.6148 H         1 UNK         0.0600 
    132 H132       -0.8748  -11.9052  -45.6103 H         1 UNK         0.0800 
    133 H133       -0.9540  -11.3292  -47.2507 H         1 UNK         0.0800 
    134 H134       -1.7843  -12.7768  -49.2456 H         1 UNK         0.0800 
    135 H135       -0.0660  -13.0894  -49.2968 H         1 UNK         0.0800 
    136 H136       -3.3963  -14.5423  -49.8180 H         1 UNK         0.1150 
    137 H137       -1.8791  -18.0733  -51.7065 H         1 UNK         0.1150 
    138 H138        0.8070  -15.3860  -49.7227 H         1 UNK         0.1150 
    139 H139        0.5293  -18.2754  -52.0561 H         1 UNK         0.0800 
    140 H140        1.6153  -17.0797  -51.4045 H         1 UNK         0.0800 
    141 H141        0.3807  -21.0683  -50.0784 H         1 UNK         0.0800 
    142 H142       -0.7631  -19.8805  -50.6384 H         1 UNK         0.0800 
    143 H143       -0.0322  -20.4109  -47.7212 H         1 UNK         0.0600 
    144 H144       -1.2311  -18.1203  -48.7303 H         1 UNK         0.3000 
    145 H145       -1.7065  -16.5133  -47.3136 H         1 UNK         0.0600 
    146 H146       -4.0025  -15.8724  -46.6050 H         1 UNK         0.0600 
    147 H147       -4.0692  -17.1964  -47.7555 H         1 UNK         0.0600 
    148 H148       -4.3126  -17.5160  -46.0410 H         1 UNK         0.0600 
    149 H149       -2.5592  -16.6074  -44.5584 H         1 UNK         0.3000 
    150 H150        0.7263  -16.3048  -43.1669 H         1 UNK         0.0600 
    151 H151       -1.7948  -14.5655  -43.2322 H         1 UNK         0.0600 
    152 H152       -0.2053  -14.0843  -43.7847 H         1 UNK         0.0600 
    153 H153       -0.4621  -14.4422  -42.0841 H         1 UNK         0.0600 
    154 H154       -0.3252  -17.7249  -41.9020 H         1 UNK         0.3000 
    155 H155       -2.4668  -17.9277  -40.1432 H         1 UNK         0.0600 
    156 H156       -4.3603  -19.2628  -42.1498 H         1 UNK         0.0600 
    157 H157       -4.7762  -18.0484  -40.9518 H         1 UNK         0.0600 
    158 H158       -4.2892  -19.6532  -40.4321 H         1 UNK         0.0600 
    159 H159       -1.4538  -19.7780  -42.2009 H         1 UNK         0.3000 
    160 H160        0.7077  -21.1618  -39.8621 H         1 UNK         0.0600 
    161 H161       -1.4232  -22.8961  -41.2137 H         1 UNK         0.0600 
    162 H162       -1.1499  -22.8143  -39.4785 H         1 UNK         0.0600 
    163 H163        0.1056  -23.4416  -40.5310 H         1 UNK         0.0600 
    164 H164        0.5550  -22.0037  -42.4677 H         1 UNK         0.3000 
    165 H165        2.4791  -21.2654  -43.6779 H         1 UNK         0.0600 
    166 H166        0.3324  -21.1445  -44.8680 H         1 UNK         0.0600 
    167 H167        0.4126  -19.3912  -44.9316 H         1 UNK         0.0600 
    168 H168        1.5598  -20.3628  -45.8490 H         1 UNK         0.0600 
    169 H169        2.7143  -18.4504  -44.4535 H         1 UNK         0.3000 
    170 H170        4.7600  -17.3156  -42.5824 H         1 UNK         0.0600 
    171 H171        6.7760  -18.7008  -42.3245 H         1 UNK         0.0600 
    172 H172        6.8825  -18.9505  -44.0619 H         1 UNK         0.0600 
    173 H173        7.1310  -17.3439  -43.3789 H         1 UNK         0.0600 
    174 H174        4.5496  -16.1926  -44.4449 H         1 UNK         0.3000 
    175 H175        5.5408  -16.6000  -47.7327 H         1 UNK         0.0600 
    176 H176        3.2991  -15.8058  -48.4622 H         1 UNK         0.0600 
    177 H177        2.5852  -16.3961  -46.9633 H         1 UNK         0.0600 
    178 H178        3.2762  -17.5283  -48.1143 H         1 UNK         0.0600 
    179 H179        4.0869  -14.5538  -46.2735 H         1 UNK         0.3000 
    180 H180        6.8399  -13.2420  -44.5378 H         1 UNK         0.0600 
    181 H181        6.5882  -11.1168  -45.8327 H         1 UNK         0.0600 
    182 H182        5.8852  -12.0149  -47.1783 H         1 UNK         0.0600 
    183 H183        7.5576  -12.2906  -46.7102 H         1 UNK         0.0600 
    184 H184        4.3223  -12.0720  -45.2229 H         1 UNK         0.3000 
    185 H185        2.2380  -13.9330  -43.1173 H         1 UNK         0.0600 
    186 H186        1.8404  -11.9065  -41.7522 H         1 UNK         0.0600 
    187 H187        3.3633  -12.6468  -41.2880 H         1 UNK         0.0600 
    188 H188        3.3654  -11.2038  -42.2953 H         1 UNK         0.0600 
    189 H189        1.7629  -11.3834  -44.1977 H         1 UNK         0.3000 
    190 H190       -3.3625  -20.0704  -48.6204 H         1 UNK         0.3000 
    191 H191       -4.0399  -22.8170  -49.0232 H         1 UNK         0.0600 
    192 H192       -5.4970  -20.9896  -49.7460 H         1 UNK         0.0600 
    193 H193       -6.3684  -21.9843  -48.5969 H         1 UNK         0.0600 
    194 H194       -5.7141  -20.4292  -48.0877 H         1 UNK         0.0600 
    195 H195       -2.9972  -21.2353  -46.1475 H         1 UNK         0.3000 
    196 H196       -4.3447  -23.0144  -44.2648 H         1 UNK         0.0600 
    197 H197       -2.9748  -21.8744  -42.6233 H         1 UNK         0.0600 
    198 H198       -3.5370  -20.6547  -43.7551 H         1 UNK         0.0600 
    199 H199       -1.8829  -21.2448  -43.8569 H         1 UNK         0.0600 
    200 H200       -1.6750  -23.3238  -46.4432 H         1 UNK         0.3000 
    201 H201       -0.5401  -25.6607  -44.9460 H         1 UNK         0.0600 
    202 H202        1.6079  -25.0966  -46.0841 H         1 UNK         0.0600 
    203 H203        0.8788  -23.6512  -46.7760 H         1 UNK         0.0600 
    204 H204        1.0781  -23.7932  -45.0316 H         1 UNK         0.0600 
    205 H205       -1.1131  -24.2338  -48.2030 H         1 UNK         0.3000 
    206 H206       -1.0744  -26.9046  -49.4991 H         1 UNK         0.0600 
    207 H207        0.2412  -24.9864  -50.4888 H         1 UNK         0.0600 
    208 H208       -1.0208  -25.5345  -51.5767 H         1 UNK         0.0600 
    209 H209       -1.2475  -24.0587  -50.6491 H         1 UNK         0.0600 
    210 H210       -2.8216  -26.9029  -51.3851 H         1 UNK         0.3000 
    211 H211       -5.5187  -26.6732  -50.2932 H         1 UNK         0.0600 
    212 H212       -4.4923  -27.2618  -53.1321 H         1 UNK         0.0600 
    213 H213       -6.1578  -27.4305  -52.5906 H         1 UNK         0.0600 
    214 H214       -4.9128  -28.4718  -51.9214 H         1 UNK         0.0600 
    215 H215       -7.1050  -25.1402  -50.9802 H         1 UNK         0.3000 
    216 H216       -6.2071  -22.4986  -51.3128 H         1 UNK         0.0600 
    217 H217       -8.6335  -21.9554  -51.5219 H         1 UNK         0.0600 
    218 H218       -8.3369  -23.0766  -50.2038 H         1 UNK         0.0600 
    219 H219       -9.0069  -23.6633  -51.7272 H         1 UNK         0.0600 
    220 H220       -7.1502  -24.8319  -53.7679 H         1 UNK         0.3000 
    221 H221       -7.2901  -22.9367  -55.9639 H         1 UNK         0.0600 
    222 H222       -7.0400  -25.9936  -55.9332 H         1 UNK         0.0600 
    223 H223       -8.5450  -25.0772  -56.0139 H         1 UNK         0.0600 
    224 H224       -7.4028  -25.0098  -57.3463 H         1 UNK         0.0600 
    225 H225       -4.7621  -24.9555  -54.4934 H         1 UNK         0.3000 
    226 H226       -2.7996  -24.5543  -56.6103 H         1 UNK         0.0600 
    227 H227       -1.2877  -25.7373  -55.0316 H         1 UNK         0.0600 
    228 H228       -2.5039  -25.6639  -53.7650 H         1 UNK         0.0600 
    229 H229       -2.7954  -26.6196  -55.2178 H         1 UNK         0.0600 
    230 H230       -3.4595  -23.2517  -53.3581 H         1 UNK         0.3000 
    231 H231       -1.3583  -21.3210  -53.2368 H         1 UNK         0.0600 
    232 H232       -4.1069  -21.4793  -51.8782 H         1 UNK         0.0600 
    233 H233       -2.8196  -20.3980  -51.3909 H         1 UNK         0.0600 
    234 H234       -2.6008  -22.1391  -51.2502 H         1 UNK         0.0600 
    235 H235       -4.4485  -21.3391  -54.8320 H         1 UNK         0.3000 
    236 H236       -5.6068  -20.0028  -56.1249 H         1 UNK         0.0600 
    237 H237       -3.4529  -19.4991  -57.3184 H         1 UNK         0.0600 
    238 H238       -4.5963  -18.1685  -57.3887 H         1 UNK         0.0600 
    239 H239       -3.2276  -18.0826  -56.2915 H         1 UNK         0.0600 
    240 H240       -5.6770  -19.7978  -53.2419 H         1 UNK         0.3000 
    241 H241       -6.5976  -17.0411  -52.6988 H         1 UNK         0.0600 
    242 H242       -7.9846  -20.1018  -53.8392 H         1 UNK         0.3800 
    243 H243       -9.6412  -19.5482  -53.7547 H         1 UNK         0.3800 
    244 H244       -7.0824  -17.7942  -50.4302 H         1 UNK         0.0800 
    245 H245       -6.8132  -19.4580  -50.8560 H         1 UNK         0.0800 
    246 H246       -4.9036  -15.9433  -51.0074 H         1 UNK         0.0800 
    247 H247       -4.1844  -16.8210  -52.3441 H         1 UNK         0.0800 
@<TRIPOS>BOND
     1    1    2 1    
     2    1  127 1    
     3    1  128 1    
     4    1  129 1    
     5    2    3 2    
     6    2    4 am   BACKBONE|DICT|INTERRES
     7    4    5 1    
     8    4  130 1    
     9    5    6 1    
    10    5   65 1    
    11    5  131 1    
    12    6    7 1    
    13    6  132 1    
    14    6  133 1    
    15    7    8 1    
    16    8    9 1    
    17    8  134 1    
    18    8  135 1    
    19    9   10 ar   
    20    9   14 ar   
    21   10   11 ar   
    22   10  136 1    
    23   11   12 ar   
    24   11  126 1    
    25   12   13 ar   
    26   12  137 1    
    27   13   14 ar   
    28   13   15 1    
    29   14  138 1    
    30   15   16 1    
    31   15  139 1    
    32   15  140 1    
    33   16   17 1    
    34   17   18 1    
    35   17  141 1    
    36   17  142 1    
    37   18   19 1    
    38   18   67 1    
    39   18  143 1    
    40   19   20 am   BACKBONE|DICT|INTERRES
    41   19  144 1    
    42   20   21 2    
    43   20   22 1    
    44   22   23 1    
    45   22   24 1    
    46   22  145 1    
    47   23  146 1    
    48   23  147 1    
    49   23  148 1    
    50   24   25 am   BACKBONE|DICT|INTERRES
    51   24  149 1    
    52   25   26 2    
    53   25   27 1    
    54   27   28 1    
    55   27   29 1    
    56   27  150 1    
    57   28  151 1    
    58   28  152 1    
    59   28  153 1    
    60   29   30 am   BACKBONE|DICT|INTERRES
    61   29  154 1    
    62   30   31 2    
    63   30   32 1    
    64   32   33 1    
    65   32   34 1    
    66   32  155 1    
    67   33  156 1    
    68   33  157 1    
    69   33  158 1    
    70   34   35 am   BACKBONE|DICT|INTERRES
    71   34  159 1    
    72   35   36 2    
    73   35   37 1    
    74   37   38 1    
    75   37   39 1    
    76   37  160 1    
    77   38  161 1    
    78   38  162 1    
    79   38  163 1    
    80   39   40 am   BACKBONE|DICT|INTERRES
    81   39  164 1    
    82   40   41 2    
    83   40   42 1    
    84   42   43 1    
    85   42   44 1    
    86   42  165 1    
    87   43  166 1    
    88   43  167 1    
    89   43  168 1    
    90   44   45 am   BACKBONE|DICT|INTERRES
    91   44  169 1    
    92   45   46 2    
    93   45   47 1    
    94   47   48 1    
    95   47   49 1    
    96   47  170 1    
    97   48  171 1    
    98   48  172 1    
    99   48  173 1    
   100   49   50 am   BACKBONE|DICT|INTERRES
   101   49  174 1    
   102   50   51 2    
   103   50   52 1    
   104   52   53 1    
   105   52   54 1    
   106   52  175 1    
   107   53  176 1    
   108   53  177 1    
   109   53  178 1    
   110   54   55 am   BACKBONE|DICT|INTERRES
   111   54  179 1    
   112   55   56 2    
   113   55   57 1    
   114   57   58 1    
   115   57   59 1    
   116   57  180 1    
   117   58  181 1    
   118   58  182 1    
   119   58  183 1    
   120   59   60 am   BACKBONE|DICT|INTERRES
   121   59  184 1    
   122   60   61 2    
   123   60   62 1    
   124   62   63 1    
   125   62   64 1    
   126   62  185 1    
   127   63  186 1    
   128   63  187 1    
   129   63  188 1    
   130   64   65 am   BACKBONE|DICT|INTERRES
   131   64  189 1    
   132   65   66 2    
   133   67   68 2    
   134   67   69 am   BACKBONE|DICT|INTERRES
   135   69   70 1    
   136   69  190 1    
   137   70   71 1    
   138   70   72 1    
   139   70  191 1    
   140   71  192 1    
   141   71  193 1    
   142   71  194 1    
   143   72   73 2    
   144   72   74 am   BACKBONE|DICT|INTERRES
   145   74   75 1    
   146   74  195 1    
   147   75   76 1    
   148   75   77 1    
   149   75  196 1    
   150   76  197 1    
   151   76  198 1    
   152   76  199 1    
   153   77   78 2    
   154   77   79 am   BACKBONE|DICT|INTERRES
   155   79   80 1    
   156   79  200 1    
   157   80   81 1    
   158   80   82 1    
   159   80  201 1    
   160   81  202 1    
   161   81  203 1    
   162   81  204 1    
   163   82   83 2    
   164   82   84 am   BACKBONE|DICT|INTERRES
   165   84   85 1    
   166   84  205 1    
   167   85   86 1    
   168   85   87 1    
   169   85  206 1    
   170   86  207 1    
   171   86  208 1    
   172   86  209 1    
   173   87   88 2    
   174   87   89 am   BACKBONE|DICT|INTERRES
   175   89   90 1    
   176   89  210 1    
   177   90   91 1    
   178   90   92 1    
   179   90  211 1    
   180   91  212 1    
   181   91  213 1    
   182   91  214 1    
   183   92   93 2    
   184   92   94 am   BACKBONE|DICT|INTERRES
   185   94   95 1    
   186   94  215 1    
   187   95   96 1    
   188   95   97 1    
   189   95  216 1    
   190   96  217 1    
   191   96  218 1    
   192   96  219 1    
   193   97   98 2    
   194   97   99 am   BACKBONE|DICT|INTERRES
   195   99  100 1    
   196   99  220 1    
   197  100  101 1    
   198  100  102 1    
   199  100  221 1    
   200  101  222 1    
   201  101  223 1    
   202  101  224 1    
   203  102  103 2    
   204  102  104 am   BACKBONE|DICT|INTERRES
   205  104  105 1    
   206  104  225 1    
   207  105  106 1    
   208  105  107 1    
   209  105  226 1    
   210  106  227 1    
   211  106  228 1    
   212  106  229 1    
   213  107  108 2    
   214  107  109 am   BACKBONE|DICT|INTERRES
   215  109  110 1    
   216  109  230 1    
   217  110  111 1    
   218  110  112 1    
   219  110  231 1    
   220  111  232 1    
   221  111  233 1    
   222  111  234 1    
   223  112  113 2    
   224  112  114 am   BACKBONE|DICT|INTERRES
   225  114  115 1    
   226  114  235 1    
   227  115  116 1    
   228  115  117 1    
   229  115  236 1    
   230  116  237 1    
   231  116  238 1    
   232  116  239 1    
   233  117  118 2    
   234  117  119 am   BACKBONE|DICT|INTERRES
   235  119  120 1    
   236  119  240 1    
   237  120  121 1    
   238  120  124 1    
   239  120  241 1    
   240  121  122 am   BACKBONE|DICT|INTERRES
   241  121  123 2    
   242  122  242 1    
   243  122  243 1    
   244  124  125 1    
   245  124  244 1    
   246  124  245 1    
   247  125  126 1    
   248  126  246 1    
   249  126  247 1    
@<TRIPOS>SUBSTRUCTURE
     1 UNK         1 GROUP             0       ****    0 ROOT    
