@<TRIPOS>MOLECULE
3R540
247   249    1
SMALL
USER_CHARGES


@<TRIPOS>ATOM
      1 CA          4.1572  -14.9469  -44.0279 C.3       0 UNK        -0.1800 
      2 C           2.9903  -14.7317  -44.9802 C.2       0 UNK         0.5000 
      3 O           1.9045  -14.3508  -44.5455 O.2       0 UNK        -0.5000 
      4 N           3.2092  -14.9607  -46.2802 N.am      1 UNK        -0.5000 
      5 CA          2.2305  -14.8271  -47.3668 C.3       1 UNK         0.1400 
      6 C6          2.6077  -15.7013  -48.5900 C.3       23 UNK        -0.0398 
      7 S7          4.3323  -15.5079  -49.1716 S.3       23 UNK        -0.2404 
      8 C8          4.8435  -17.2525  -49.3663 C.3       23 UNK        -0.0205 
      9 C9          3.9274  -18.0830  -50.2660 C.ar      23 UNK        -0.0193 
     10 C10         3.2945  -17.5251  -51.3812 C.ar      23 UNK        -0.1150 
     11 C11         2.4301  -18.2863  -52.1698 C.ar      23 UNK        -0.0193 
     12 C12         2.2400  -19.6396  -51.8697 C.ar      23 UNK        -0.1150 
     13 C13         2.8925  -20.2285  -50.7780 C.ar      23 UNK        -0.0193 
     14 C14         3.7232  -19.4356  -49.9787 C.ar      23 UNK        -0.1150 
     15 C15         2.7976  -21.7230  -50.4657 C.3       23 UNK        -0.0205 
     16 S16         1.3052  -22.5863  -51.0744 S.3       23 UNK        -0.2404 
     17 C17         0.1062  -22.3031  -49.7308 C.3       23 UNK        -0.0398 
     18 CA          0.0694  -23.4745  -48.7190 C.3       11 UNK         0.1400 
     19 N           1.3307  -23.6260  -47.9882 N.am      11 UNK        -0.5000 
     20 C           1.6616  -24.6941  -47.2508 C.2       10 UNK         0.5000 
     21 O           0.9358  -25.6762  -47.1090 O.2       10 UNK        -0.5000 
     22 CA          3.0194  -24.6537  -46.5271 C.3       10 UNK         0.1400 
     23 CB          4.1122  -25.2677  -47.4144 C.3       10 UNK        -0.1800 
     24 N           3.4345  -23.3112  -46.1205 N.am      10 UNK        -0.5000 
     25 C           2.7853  -22.5200  -45.2550 C.2       9 UNK         0.5000 
     26 O           1.7307  -22.8383  -44.7015 O.2       9 UNK        -0.5000 
     27 CA          3.4143  -21.1377  -44.9644 C.3       9 UNK         0.1400 
     28 CB          4.6858  -20.8420  -45.7921 C.3       9 UNK        -0.1800 
     29 N           2.4826  -20.0172  -45.1171 N.am      9 UNK        -0.5000 
     30 C           1.6569  -19.7594  -46.1387 C.2       8 UNK         0.5000 
     31 O           1.4375  -20.5529  -47.0572 O.2       8 UNK        -0.5000 
     32 CA          0.9882  -18.3646  -46.1403 C.3       8 UNK         0.1400 
     33 CB          0.0711  -18.1685  -47.3594 C.3       8 UNK        -0.1800 
     34 N           0.2447  -18.0351  -44.9161 N.am      8 UNK        -0.5000 
     35 C           0.7891  -17.7234  -43.7279 C.2       7 UNK         0.5000 
     36 O           2.0034  -17.7613  -43.5220 O.2       7 UNK        -0.5000 
     37 CA         -0.1431  -17.3080  -42.5696 C.3       7 UNK         0.1400 
     38 CB          0.2612  -15.9422  -41.9900 C.3       7 UNK        -0.1800 
     39 N          -1.5498  -17.2428  -42.9641 N.am      7 UNK        -0.5000 
     40 C          -2.4719  -18.1724  -42.6772 C.2       6 UNK         0.5000 
     41 O          -2.2366  -19.1727  -41.9992 O.2       6 UNK        -0.5000 
     42 CA         -3.9012  -17.9680  -43.2304 C.3       6 UNK         0.1400 
     43 CB         -4.8627  -17.5746  -42.0981 C.3       6 UNK        -0.1800 
     44 N          -4.0077  -16.9707  -44.2985 N.am      6 UNK        -0.5000 
     45 C          -3.4070  -17.0456  -45.4938 C.2       5 UNK         0.5000 
     46 O          -2.7288  -18.0074  -45.8433 O.2       5 UNK        -0.5000 
     47 CA         -3.5197  -15.8181  -46.4209 C.3       5 UNK         0.1400 
     48 CB         -4.6258  -16.0312  -47.4655 C.3       5 UNK        -0.1800 
     49 N          -3.7547  -14.5517  -45.7144 N.am      5 UNK        -0.5000 
     50 C          -2.9539  -14.0291  -44.7749 C.2       4 UNK         0.5000 
     51 O          -1.9189  -14.5731  -44.3863 O.2       4 UNK        -0.5000 
     52 CA         -3.3859  -12.6751  -44.1809 C.3       4 UNK         0.1400 
     53 CB         -2.7968  -12.4435  -42.7780 C.3       4 UNK        -0.1800 
     54 N          -2.9563  -11.5905  -45.0560 N.am      4 UNK        -0.5000 
     55 C          -3.5601  -11.2242  -46.1946 C.2       3 UNK         0.5000 
     56 O          -4.6441  -11.6748  -46.5682 O.2       3 UNK        -0.5000 
     57 CA         -2.8073  -10.2060  -47.0775 C.3       3 UNK         0.1400 
     58 CB         -3.2898   -8.7774  -46.7844 C.3       3 UNK        -0.1800 
     59 N          -1.3494  -10.2651  -46.9128 N.am      3 UNK        -0.5000 
     60 C          -0.5905  -11.3241  -47.2308 C.2       2 UNK         0.5000 
     61 O          -1.0469  -12.3329  -47.7747 O.2       2 UNK        -0.5000 
     62 CA          0.9079  -11.2492  -46.8570 C.3       2 UNK         0.1400 
     63 CB          1.1559  -10.4989  -45.5336 C.3       2 UNK        -0.1800 
     64 N           1.4682  -12.5917  -46.7278 N.am      2 UNK        -0.5000 
     65 C           1.9243  -13.3527  -47.7276 C.2       1 UNK         0.5000 
     66 O           2.0903  -12.9341  -48.8749 O.2       1 UNK        -0.5000 
     67 C          -1.1080  -23.3271  -47.7386 C.2       11 UNK         0.5000 
     68 O          -2.1337  -23.9891  -47.9070 O.2       11 UNK        -0.5000 
     69 N          -0.9122  -22.5047  -46.6990 N.am      12 UNK        -0.5000 
     70 CA         -1.8600  -22.3358  -45.6014 C.3       12 UNK         0.1400 
     71 CB         -1.4577  -21.1266  -44.7530 C.3       12 UNK        -0.1800 
     72 C          -1.9791  -23.5974  -44.7303 C.2       12 UNK         0.5000 
     73 O          -3.0951  -23.9819  -44.3825 O.2       12 UNK        -0.5000 
     74 N          -0.8416  -24.2414  -44.4275 N.am      13 UNK        -0.5000 
     75 CA         -0.7701  -25.4815  -43.6473 C.3       13 UNK         0.1400 
     76 CB          0.6974  -25.8218  -43.3521 C.3       13 UNK        -0.1800 
     77 C          -1.4763  -26.6710  -44.3274 C.2       13 UNK         0.5000 
     78 O          -2.1245  -27.4644  -43.6445 O.2       13 UNK        -0.5000 
     79 N          -1.3719  -26.7506  -45.6609 N.am      14 UNK        -0.5000 
     80 CA         -2.0747  -27.7217  -46.5025 C.3       14 UNK         0.1400 
     81 CB         -1.3698  -27.7926  -47.8669 C.3       14 UNK        -0.1800 
     82 C          -3.5710  -27.4001  -46.6981 C.2       14 UNK         0.5000 
     83 O          -4.2958  -28.2428  -47.2287 O.2       14 UNK        -0.5000 
     84 N          -3.9981  -26.1917  -46.2987 N.am      15 UNK        -0.5000 
     85 CA         -5.3275  -25.6030  -46.4902 C.3       15 UNK         0.1400 
     86 CB         -6.4009  -26.3819  -45.7022 C.3       15 UNK        -0.1800 
     87 C          -5.6845  -25.4110  -47.9795 C.2       15 UNK         0.5000 
     88 O          -6.8553  -25.4955  -48.3564 O.2       15 UNK        -0.5000 
     89 N          -4.6651  -25.1398  -48.8042 N.am      16 UNK        -0.5000 
     90 CA         -4.7822  -24.8720  -50.2316 C.3       16 UNK         0.1400 
     91 CB         -3.4853  -25.3257  -50.9256 C.3       16 UNK        -0.1800 
     92 C          -5.0640  -23.3748  -50.4244 C.2       16 UNK         0.5000 
     93 O          -4.1524  -22.6154  -50.7496 O.2       16 UNK        -0.5000 
     94 N          -6.3148  -22.9700  -50.1665 N.am      17 UNK        -0.5000 
     95 CA         -6.7715  -21.5777  -50.0990 C.3       17 UNK         0.1400 
     96 CB         -8.2818  -21.5535  -49.8222 C.3       17 UNK        -0.1800 
     97 C          -6.4350  -20.7235  -51.3358 C.2       17 UNK         0.5000 
     98 O          -6.0255  -19.5739  -51.1818 O.2       17 UNK        -0.5000 
     99 N          -6.5705  -21.3088  -52.5334 N.am      18 UNK        -0.5000 
    100 CA        -6.2383  -20.6612  -53.8047 C.3       18 UNK         0.1400 
    101 CB        -6.7823  -21.5089  -54.9640 C.3       18 UNK        -0.1800 
    102 C         -4.7277  -20.4141  -53.9775 C.2       18 UNK         0.5000 
    103 O         -4.3405  -19.3836  -54.5306 O.2       18 UNK        -0.5000 
    104 N         -3.9059  -21.3500  -53.4827 N.am      19 UNK        -0.5000 
    105 CA        -2.4477  -21.2500  -53.4818 C.3       19 UNK         0.1400 
    106 CB        -1.8292  -22.6470  -53.3255 C.3       19 UNK        -0.1800 
    107 C         -1.9509  -20.3019  -52.3799 C.2       19 UNK         0.5000 
    108 O         -1.0209  -19.5399  -52.6219 O.2       19 UNK        -0.5000 
    109 N         -2.6061  -20.3298  -51.2120 N.am      20 UNK        -0.5000 
    110 CA        -2.3456  -19.4520  -50.0703 C.3       20 UNK         0.1400 
    111 CB        -3.1493  -19.9614  -48.8655 C.3       20 UNK        -0.1800 
    112 C         -2.6688  -17.9751  -50.3668 C.2       20 UNK         0.5000 
    113 O         -1.9422  -17.0883  -49.9207 O.2       20 UNK        -0.5000 
    114 N         -3.7333  -17.7426  -51.1471 N.am      21 UNK        -0.5000 
    115 CA        -4.0906  -16.4398  -51.7126 C.3       21 UNK         0.1400 
    116 CB        -5.5776  -16.4635  -52.0989 C.3       21 UNK        -0.1800 
    117 C         -3.2238  -16.0503  -52.9303 C.2       21 UNK         0.5000 
    118 O         -3.2808  -14.8987  -53.3638 O.2       21 UNK        -0.5000 
    119 N         -2.4483  -17.0071  -53.4558 N.am      22 UNK        -0.5000 
    120 CA        -1.5350  -16.8864  -54.6024 C.3       22 UNK         0.1400 
    121 C         -2.2614  -16.6066  -55.9507 C.2       22 UNK         0.5000 
    122 N         -3.4269  -17.1988  -56.1820 N.am      22 UNK        -0.7600 
    123 O         -1.7702  -15.8684  -56.8011 O.2       22 UNK        -0.5000 
    124 C124       -0.3262  -15.9451  -54.3332 C.3       23 UNK        -0.0398 
    125 S125        0.5587  -16.3445  -52.7853 S.3       23 UNK        -0.2404 
    126 C126        1.7134  -17.6378  -53.3465 C.3       23 UNK        -0.0205 
    127 H127        5.0402  -15.3210  -44.5464 H         1 UNK         0.0600 
    128 H128        3.8830  -15.6694  -43.2591 H         1 UNK         0.0600 
    129 H129        4.4192  -14.0092  -43.5381 H         1 UNK         0.0600 
    130 H130        4.1362  -15.2240  -46.5838 H         1 UNK         0.3000 
    131 H131        1.2833  -15.2244  -46.9947 H         1 UNK         0.0600 
    132 H132        1.9291  -15.5244  -49.4269 H         1 UNK         0.0800 
    133 H133        2.4575  -16.7460  -48.3234 H         1 UNK         0.0800 
    134 H134        5.8524  -17.2776  -49.7796 H         1 UNK         0.0800 
    135 H135        4.9035  -17.7027  -48.3740 H         1 UNK         0.0800 
    136 H136        3.4487  -16.4845  -51.6287 H         1 UNK         0.1150 
    137 H137        1.5921  -20.2319  -52.4992 H         1 UNK         0.1150 
    138 H138        4.2307  -19.8808  -49.1347 H         1 UNK         0.1150 
    139 H139        3.6653  -22.2068  -50.9154 H         1 UNK         0.0800 
    140 H140        2.8899  -21.8790  -49.3912 H         1 UNK         0.0800 
    141 H141       -0.8723  -22.1945  -50.1989 H         1 UNK         0.0800 
    142 H142        0.3185  -21.3512  -49.2431 H         1 UNK         0.0800 
    143 H143       -0.1010  -24.3961  -49.2805 H         1 UNK         0.0600 
    144 H144        1.9480  -22.8273  -47.9873 H         1 UNK         0.3000 
    145 H145        2.9349  -25.2609  -45.6250 H         1 UNK         0.0600 
    146 H146        5.0641  -25.3262  -46.8863 H         1 UNK         0.0600 
    147 H147        3.8466  -26.2823  -47.7149 H         1 UNK         0.0600 
    148 H148        4.2665  -24.6860  -48.3242 H         1 UNK         0.0600 
    149 H149        4.2921  -22.9670  -46.5264 H         1 UNK         0.3000 
    150 H150        3.6999  -21.1554  -43.9120 H         1 UNK         0.0600 
    151 H151        5.4634  -21.5857  -45.6134 H         1 UNK         0.0600 
    152 H152        5.1090  -19.8748  -45.5201 H         1 UNK         0.0600 
    153 H153        4.4777  -20.8174  -46.8624 H         1 UNK         0.0600 
    154 H154        2.5322  -19.3028  -44.3945 H         1 UNK         0.3000 
    155 H155        1.8013  -17.6428  -46.2272 H         1 UNK         0.0600 
    156 H156       -0.7440  -18.8903  -47.3586 H         1 UNK         0.0600 
    157 H157        0.6171  -18.3038  -48.2941 H         1 UNK         0.0600 
    158 H158       -0.3638  -17.1693  -47.3793 H         1 UNK         0.0600 
    159 H159       -0.7649  -18.0200  -45.0049 H         1 UNK         0.3000 
    160 H160       -0.0049  -18.0511  -41.7820 H         1 UNK         0.0600 
    161 H161        0.1345  -15.1430  -42.7202 H         1 UNK         0.0600 
    162 H162        1.3056  -15.9362  -41.6756 H         1 UNK         0.0600 
    163 H163       -0.3414  -15.6925  -41.1168 H         1 UNK         0.0600 
    164 H164       -1.8153  -16.4329  -43.5161 H         1 UNK         0.3000 
    165 H165       -4.2258  -18.9269  -43.6397 H         1 UNK         0.0600 
    166 H166       -5.8906  -17.5123  -42.4558 H         1 UNK         0.0600 
    167 H167       -4.8452  -18.3121  -41.2945 H         1 UNK         0.0600 
    168 H168       -4.5974  -16.6098  -41.6639 H         1 UNK         0.0600 
    169 H169       -4.5383  -16.1391  -44.0869 H         1 UNK         0.3000 
    170 H170       -2.5678  -15.7266  -46.9484 H         1 UNK         0.0600 
    171 H171       -4.4722  -16.9617  -48.0139 H         1 UNK         0.0600 
    172 H172       -5.6123  -16.0814  -47.0032 H         1 UNK         0.0600 
    173 H173       -4.6365  -15.2242  -48.1984 H         1 UNK         0.0600 
    174 H174       -4.5547  -14.0095  -46.0135 H         1 UNK         0.3000 
    175 H175       -4.4746  -12.6658  -44.0948 H         1 UNK         0.0600 
    176 H176       -1.7067  -12.4031  -42.7960 H         1 UNK         0.0600 
    177 H177       -3.1587  -11.5090  -42.3489 H         1 UNK         0.0600 
    178 H178       -3.0838  -13.2463  -42.0976 H         1 UNK         0.0600 
    179 H179       -2.0582  -11.1812  -44.8478 H         1 UNK         0.3000 
    180 H180       -3.0394  -10.4396  -48.1187 H         1 UNK         0.0600 
    181 H181       -2.8216   -8.0569  -47.4553 H         1 UNK         0.0600 
    182 H182       -3.0659   -8.4786  -45.7595 H         1 UNK         0.0600 
    183 H183       -4.3687   -8.6939  -46.9222 H         1 UNK         0.0600 
    184 H184       -0.9122   -9.4638  -46.4808 H         1 UNK         0.3000 
    185 H185        1.4233  -10.7159  -47.6581 H         1 UNK         0.0600 
    186 H186        2.2109  -10.5292  -45.2598 H         1 UNK         0.0600 
    187 H187        0.8817   -9.4463  -45.6092 H         1 UNK         0.0600 
    188 H188        0.5891  -10.9357  -44.7100 H         1 UNK         0.0600 
    189 H189        1.3762  -13.0380  -45.8188 H         1 UNK         0.3000 
    190 H190       -0.0323  -22.0048  -46.6311 H         1 UNK         0.3000 
    191 H191       -2.8427  -22.1324  -46.0326 H         1 UNK         0.0600 
    192 H192       -2.1717  -20.9738  -43.9445 H         1 UNK         0.0600 
    193 H193       -1.4472  -20.2209  -45.3550 H         1 UNK         0.0600 
    194 H194       -0.4710  -21.2475  -44.3052 H         1 UNK         0.0600 
    195 H195        0.0424  -23.8255  -44.7078 H         1 UNK         0.3000 
    196 H196       -1.2729  -25.2985  -42.6955 H         1 UNK         0.0600 
    197 H197        1.2434  -26.0584  -44.2644 H         1 UNK         0.0600 
    198 H198        1.2063  -24.9937  -42.8584 H         1 UNK         0.0600 
    199 H199        0.7707  -26.6886  -42.6942 H         1 UNK         0.0600 
    200 H200       -0.7545  -26.1046  -46.1435 H         1 UNK         0.3000 
    201 H201       -2.0089  -28.7043  -46.0311 H         1 UNK         0.0600 
    202 H202       -1.3943  -26.8304  -48.3806 H         1 UNK         0.0600 
    203 H203       -1.8452  -28.5257  -48.5197 H         1 UNK         0.0600 
    204 H204       -0.3261  -28.0872  -47.7565 H         1 UNK         0.0600 
    205 H205       -3.3232  -25.5792  -45.8581 H         1 UNK         0.3000 
    206 H206       -5.2749  -24.5997  -46.0655 H         1 UNK         0.0600 
    207 H207       -6.1143  -26.4979  -44.6569 H         1 UNK         0.0600 
    208 H208       -7.3559  -25.8555  -45.7191 H         1 UNK         0.0600 
    209 H209       -6.5700  -27.3757  -46.1171 H         1 UNK         0.0600 
    210 H210       -3.7455  -24.9798  -48.4015 H         1 UNK         0.3000 
    211 H211       -5.6117  -25.4409  -50.6567 H         1 UNK         0.0600 
    212 H212       -3.5324  -25.1406  -51.9992 H         1 UNK         0.0600 
    213 H213       -3.3195  -26.3941  -50.7860 H         1 UNK         0.0600 
    214 H214       -2.6108  -24.8017  -50.5378 H         1 UNK         0.0600 
    215 H215       -6.9789  -23.6717  -49.8662 H         1 UNK         0.3000 
    216 H216       -6.2688  -21.1208  -49.2450 H         1 UNK         0.0600 
    217 H217       -8.8448  -22.0453  -50.6164 H         1 UNK         0.0600 
    218 H218       -8.6492  -20.5293  -49.7442 H         1 UNK         0.0600 
    219 H219       -8.5189  -22.0543  -48.8832 H         1 UNK         0.0600 
    220 H220       -6.9059  -22.2600  -52.5729 H         1 UNK         0.3000 
    221 H221       -6.7360  -19.6893  -53.8309 H         1 UNK         0.0600 
    222 H222       -7.8643  -21.6226  -54.8954 H         1 UNK         0.0600 
    223 H223       -6.3393  -22.5055  -54.9780 H         1 UNK         0.0600 
    224 H224       -6.5662  -21.0398  -55.9249 H         1 UNK         0.0600 
    225 H225       -4.3041  -22.1245  -52.9701 H         1 UNK         0.3000 
    226 H226       -2.1263  -20.8459  -54.4444 H         1 UNK         0.0600 
    227 H227       -2.0543  -23.0852  -52.3537 H         1 UNK         0.0600 
    228 H228       -2.1904  -23.3292  -54.0949 H         1 UNK         0.0600 
    229 H229       -0.7436  -22.5996  -53.4168 H         1 UNK         0.0600 
    230 H230       -3.3221  -21.0421  -51.0828 H         1 UNK         0.3000 
    231 H231       -1.2822  -19.5168  -49.8321 H         1 UNK         0.0600 
    232 H232       -4.2215  -19.9168  -49.0521 H         1 UNK         0.0600 
    233 H233       -2.9513  -19.3605  -47.9810 H         1 UNK         0.0600 
    234 H234       -2.8937  -20.9927  -48.6233 H         1 UNK         0.0600 
    235 H235       -4.3371  -18.5206  -51.3938 H         1 UNK         0.3000 
    236 H236       -3.9475  -15.6741  -50.9474 H         1 UNK         0.0600 
    237 H237       -6.2053  -16.6873  -51.2360 H         1 UNK         0.0600 
    238 H238       -5.8974  -15.4978  -52.4920 H         1 UNK         0.0600 
    239 H239       -5.7797  -17.2143  -52.8641 H         1 UNK         0.0600 
    240 H240       -2.4401  -17.9111  -53.0046 H         1 UNK         0.3000 
    241 H241       -1.1188  -17.8844  -54.7379 H         1 UNK         0.0600 
    242 H242       -3.9078  -17.0302  -57.0508 H         1 UNK         0.3800 
    243 H243       -3.8079  -17.8672  -55.5154 H         1 UNK         0.3800 
    244 H244       -0.6625  -14.9093  -54.2726 H         1 UNK         0.0800 
    245 H245        0.3836  -15.9847  -55.1609 H         1 UNK         0.0800 
    246 H246        2.4478  -17.2021  -54.0251 H         1 UNK         0.0800 
    247 H247        1.1642  -18.3884  -53.9164 H         1 UNK         0.0800 
@<TRIPOS>BOND
     1    1    2 1    
     2    1  127 1    
     3    1  128 1    
     4    1  129 1    
     5    2    3 2    
     6    2    4 am   BACKBONE|DICT|INTERRES
     7    4    5 1    
     8    4  130 1    
     9    5    6 1    
    10    5   65 1    
    11    5  131 1    
    12    6    7 1    
    13    6  132 1    
    14    6  133 1    
    15    7    8 1    
    16    8    9 1    
    17    8  134 1    
    18    8  135 1    
    19    9   10 ar   
    20    9   14 ar   
    21   10   11 ar   
    22   10  136 1    
    23   11   12 ar   
    24   11  126 1    
    25   12   13 ar   
    26   12  137 1    
    27   13   14 ar   
    28   13   15 1    
    29   14  138 1    
    30   15   16 1    
    31   15  139 1    
    32   15  140 1    
    33   16   17 1    
    34   17   18 1    
    35   17  141 1    
    36   17  142 1    
    37   18   19 1    
    38   18   67 1    
    39   18  143 1    
    40   19   20 am   BACKBONE|DICT|INTERRES
    41   19  144 1    
    42   20   21 2    
    43   20   22 1    
    44   22   23 1    
    45   22   24 1    
    46   22  145 1    
    47   23  146 1    
    48   23  147 1    
    49   23  148 1    
    50   24   25 am   BACKBONE|DICT|INTERRES
    51   24  149 1    
    52   25   26 2    
    53   25   27 1    
    54   27   28 1    
    55   27   29 1    
    56   27  150 1    
    57   28  151 1    
    58   28  152 1    
    59   28  153 1    
    60   29   30 am   BACKBONE|DICT|INTERRES
    61   29  154 1    
    62   30   31 2    
    63   30   32 1    
    64   32   33 1    
    65   32   34 1    
    66   32  155 1    
    67   33  156 1    
    68   33  157 1    
    69   33  158 1    
    70   34   35 am   BACKBONE|DICT|INTERRES
    71   34  159 1    
    72   35   36 2    
    73   35   37 1    
    74   37   38 1    
    75   37   39 1    
    76   37  160 1    
    77   38  161 1    
    78   38  162 1    
    79   38  163 1    
    80   39   40 am   BACKBONE|DICT|INTERRES
    81   39  164 1    
    82   40   41 2    
    83   40   42 1    
    84   42   43 1    
    85   42   44 1    
    86   42  165 1    
    87   43  166 1    
    88   43  167 1    
    89   43  168 1    
    90   44   45 am   BACKBONE|DICT|INTERRES
    91   44  169 1    
    92   45   46 2    
    93   45   47 1    
    94   47   48 1    
    95   47   49 1    
    96   47  170 1    
    97   48  171 1    
    98   48  172 1    
    99   48  173 1    
   100   49   50 am   BACKBONE|DICT|INTERRES
   101   49  174 1    
   102   50   51 2    
   103   50   52 1    
   104   52   53 1    
   105   52   54 1    
   106   52  175 1    
   107   53  176 1    
   108   53  177 1    
   109   53  178 1    
   110   54   55 am   BACKBONE|DICT|INTERRES
   111   54  179 1    
   112   55   56 2    
   113   55   57 1    
   114   57   58 1    
   115   57   59 1    
   116   57  180 1    
   117   58  181 1    
   118   58  182 1    
   119   58  183 1    
   120   59   60 am   BACKBONE|DICT|INTERRES
   121   59  184 1    
   122   60   61 2    
   123   60   62 1    
   124   62   63 1    
   125   62   64 1    
   126   62  185 1    
   127   63  186 1    
   128   63  187 1    
   129   63  188 1    
   130   64   65 am   BACKBONE|DICT|INTERRES
   131   64  189 1    
   132   65   66 2    
   133   67   68 2    
   134   67   69 am   BACKBONE|DICT|INTERRES
   135   69   70 1    
   136   69  190 1    
   137   70   71 1    
   138   70   72 1    
   139   70  191 1    
   140   71  192 1    
   141   71  193 1    
   142   71  194 1    
   143   72   73 2    
   144   72   74 am   BACKBONE|DICT|INTERRES
   145   74   75 1    
   146   74  195 1    
   147   75   76 1    
   148   75   77 1    
   149   75  196 1    
   150   76  197 1    
   151   76  198 1    
   152   76  199 1    
   153   77   78 2    
   154   77   79 am   BACKBONE|DICT|INTERRES
   155   79   80 1    
   156   79  200 1    
   157   80   81 1    
   158   80   82 1    
   159   80  201 1    
   160   81  202 1    
   161   81  203 1    
   162   81  204 1    
   163   82   83 2    
   164   82   84 am   BACKBONE|DICT|INTERRES
   165   84   85 1    
   166   84  205 1    
   167   85   86 1    
   168   85   87 1    
   169   85  206 1    
   170   86  207 1    
   171   86  208 1    
   172   86  209 1    
   173   87   88 2    
   174   87   89 am   BACKBONE|DICT|INTERRES
   175   89   90 1    
   176   89  210 1    
   177   90   91 1    
   178   90   92 1    
   179   90  211 1    
   180   91  212 1    
   181   91  213 1    
   182   91  214 1    
   183   92   93 2    
   184   92   94 am   BACKBONE|DICT|INTERRES
   185   94   95 1    
   186   94  215 1    
   187   95   96 1    
   188   95   97 1    
   189   95  216 1    
   190   96  217 1    
   191   96  218 1    
   192   96  219 1    
   193   97   98 2    
   194   97   99 am   BACKBONE|DICT|INTERRES
   195   99  100 1    
   196   99  220 1    
   197  100  101 1    
   198  100  102 1    
   199  100  221 1    
   200  101  222 1    
   201  101  223 1    
   202  101  224 1    
   203  102  103 2    
   204  102  104 am   BACKBONE|DICT|INTERRES
   205  104  105 1    
   206  104  225 1    
   207  105  106 1    
   208  105  107 1    
   209  105  226 1    
   210  106  227 1    
   211  106  228 1    
   212  106  229 1    
   213  107  108 2    
   214  107  109 am   BACKBONE|DICT|INTERRES
   215  109  110 1    
   216  109  230 1    
   217  110  111 1    
   218  110  112 1    
   219  110  231 1    
   220  111  232 1    
   221  111  233 1    
   222  111  234 1    
   223  112  113 2    
   224  112  114 am   BACKBONE|DICT|INTERRES
   225  114  115 1    
   226  114  235 1    
   227  115  116 1    
   228  115  117 1    
   229  115  236 1    
   230  116  237 1    
   231  116  238 1    
   232  116  239 1    
   233  117  118 2    
   234  117  119 am   BACKBONE|DICT|INTERRES
   235  119  120 1    
   236  119  240 1    
   237  120  121 1    
   238  120  124 1    
   239  120  241 1    
   240  121  122 am   BACKBONE|DICT|INTERRES
   241  121  123 2    
   242  122  242 1    
   243  122  243 1    
   244  124  125 1    
   245  124  244 1    
   246  124  245 1    
   247  125  126 1    
   248  126  246 1    
   249  126  247 1    
@<TRIPOS>SUBSTRUCTURE
     1 UNK         1 GROUP             0       ****    0 ROOT    
