@<TRIPOS>MOLECULE
3R540
247   249    1
SMALL
USER_CHARGES


@<TRIPOS>ATOM
      1 CA         -3.4700  -16.2608  -46.0003 C.3       0 UNK        -0.1800 
      2 C          -3.2134  -14.8929  -46.6157 C.2       0 UNK         0.5000 
      3 O          -4.0806  -14.0223  -46.5635 O.2       0 UNK        -0.5000 
      4 N          -2.0113  -14.6926  -47.1712 N.am      1 UNK        -0.5000 
      5 CA         -1.5622  -13.4375  -47.8013 C.3       1 UNK         0.1400 
      6 C6         -0.5280  -13.7045  -48.9258 C.3       23 UNK        -0.0398 
      7 S7         -1.3355  -14.4105  -50.4026 S.3       23 UNK        -0.2404 
      8 C8         -1.1904  -16.1977  -50.1081 C.3       23 UNK        -0.0205 
      9 C9         -0.1332  -16.8321  -50.9930 C.ar      23 UNK        -0.0193 
     10 C10        -0.4597  -17.2337  -52.2903 C.ar      23 UNK        -0.1150 
     11 C11         0.4809  -17.8793  -53.0983 C.ar      23 UNK        -0.0193 
     12 C12         1.7629  -18.1179  -52.5903 C.ar      23 UNK        -0.1150 
     13 C13         2.1065  -17.7047  -51.2991 C.ar      23 UNK        -0.0193 
     14 C14         1.1560  -17.0557  -50.5062 C.ar      23 UNK        -0.1150 
     15 C15         3.5045  -17.9687  -50.7641 C.3       23 UNK        -0.0205 
     16 S16         3.6767  -19.6647  -50.1264 S.3       23 UNK        -0.2404 
     17 C17         2.8468  -19.5451  -48.5054 C.3       23 UNK        -0.0398 
     18 CA          1.9415  -20.7607  -48.1888 C.3       11 UNK         0.1400 
     19 N           1.7854  -20.9494  -46.7437 N.am      11 UNK        -0.5000 
     20 C           1.3289  -22.0673  -46.1620 C.2       10 UNK         0.5000 
     21 O           1.0240  -23.0866  -46.7804 O.2       10 UNK        -0.5000 
     22 CA          1.1597  -22.0350  -44.6318 C.3       10 UNK         0.1400 
     23 CB          2.4836  -22.3804  -43.9337 C.3       10 UNK        -0.1800 
     24 N           0.6642  -20.7496  -44.1345 N.am      10 UNK        -0.5000 
     25 C          -0.5448  -20.2407  -44.4105 C.2       9 UNK         0.5000 
     26 O          -1.3810  -20.8151  -45.1063 O.2       9 UNK        -0.5000 
     27 CA         -0.8517  -18.8335  -43.8657 C.3       9 UNK         0.1400 
     28 CB         -1.1968  -18.8770  -42.3696 C.3       9 UNK        -0.1800 
     29 N           0.2565  -17.9064  -44.0899 N.am      9 UNK        -0.5000 
     30 C           0.6728  -17.5015  -45.2984 C.2       8 UNK         0.5000 
     31 O           0.1085  -17.7881  -46.3549 O.2       8 UNK        -0.5000 
     32 CA          1.9561  -16.6561  -45.3316 C.3       8 UNK         0.1400 
     33 CB          1.6265  -15.1725  -45.1210 C.3       8 UNK        -0.1800 
     34 N           2.9326  -17.0917  -44.3308 N.am      8 UNK        -0.5000 
     35 C           3.6047  -18.2504  -44.3946 C.2       7 UNK         0.5000 
     36 O           3.4685  -19.0656  -45.3045 O.2       7 UNK        -0.5000 
     37 CA          4.5500  -18.5765  -43.2250 C.3       7 UNK         0.1400 
     38 CB          5.8869  -17.8378  -43.3848 C.3       7 UNK        -0.1800 
     39 N           3.9666  -18.2526  -41.9240 N.am      7 UNK        -0.5000 
     40 C           2.8735  -18.8368  -41.4129 C.2       6 UNK         0.5000 
     41 O           2.2611  -19.7460  -41.9702 O.2       6 UNK        -0.5000 
     42 CA          2.3477  -18.2780  -40.0786 C.3       6 UNK         0.1400 
     43 CB          2.9632  -19.0394  -38.8955 C.3       6 UNK        -0.1800 
     44 N           2.5932  -16.8429  -39.9135 N.am      6 UNK        -0.5000 
     45 C           2.0847  -15.8898  -40.7041 C.2       5 UNK         0.5000 
     46 O           1.3682  -16.1153  -41.6842 O.2       5 UNK        -0.5000 
     47 CA          2.4520  -14.4410  -40.3534 C.3       5 UNK         0.1400 
     48 CB          3.2031  -13.7705  -41.5146 C.3       5 UNK        -0.1800 
     49 N           1.2241  -13.7068  -40.0789 N.am      5 UNK        -0.5000 
     50 C           0.5969  -13.6907  -38.8947 C.2       4 UNK         0.5000 
     51 O           1.0771  -14.1460  -37.8560 O.2       4 UNK        -0.5000 
     52 CA         -0.8239  -13.0951  -38.8826 C.3       4 UNK         0.1400 
     53 CB         -0.7781  -11.5854  -38.6037 C.3       4 UNK        -0.1800 
     54 N          -1.5267  -13.3292  -40.1450 N.am      4 UNK        -0.5000 
     55 C          -1.9344  -14.5227  -40.5931 C.2       3 UNK         0.5000 
     56 O          -1.8706  -15.5567  -39.9281 O.2       3 UNK        -0.5000 
     57 CA         -2.4681  -14.5880  -42.0373 C.3       3 UNK         0.1400 
     58 CB         -3.9798  -14.2983  -42.0899 C.3       3 UNK        -0.1800 
     59 N          -1.7281  -13.7655  -43.0084 N.am      3 UNK        -0.5000 
     60 C          -1.6626  -12.4264  -43.1156 C.2       2 UNK         0.5000 
     61 O          -2.1764  -11.6441  -42.3166 O.2       2 UNK        -0.5000 
     62 CA         -0.9070  -11.8727  -44.3320 C.3       2 UNK         0.1400 
     63 CB          0.5935  -11.7115  -44.0351 C.3       2 UNK        -0.1800 
     64 N          -1.1287  -12.7486  -45.4796 N.am      2 UNK        -0.5000 
     65 C          -1.0529  -12.4021  -46.7684 C.2       1 UNK         0.5000 
     66 O          -0.6350  -11.3092  -47.1531 O.2       1 UNK        -0.5000 
     67 C           0.5821  -20.6959  -48.9225 C.2       11 UNK         0.5000 
     68 O           0.4965  -21.1476  -50.0636 O.2       11 UNK        -0.5000 
     69 N          -0.4616  -20.1800  -48.2537 N.am      12 UNK        -0.5000 
     70 CA         -1.8393  -20.2160  -48.7476 C.3       12 UNK         0.1400 
     71 CB         -2.6744  -19.1389  -48.0412 C.3       12 UNK        -0.1800 
     72 C          -2.4919  -21.6002  -48.5765 C.2       12 UNK         0.5000 
     73 O          -3.2028  -22.0514  -49.4773 O.2       12 UNK        -0.5000 
     74 N          -2.2112  -22.2432  -47.4350 N.am      13 UNK        -0.5000 
     75 CA         -2.6794  -23.5560  -46.9855 C.3       13 UNK         0.1400 
     76 CB         -2.2489  -24.6648  -47.9689 C.3       13 UNK        -0.1800 
     77 C          -4.1911  -23.6046  -46.6813 C.2       13 UNK         0.5000 
     78 O          -4.9088  -22.6126  -46.8418 O.2       13 UNK        -0.5000 
     79 N          -4.6454  -24.7747  -46.2112 N.am      14 UNK        -0.5000 
     80 CA         -6.0412  -25.0728  -45.8905 C.3       14 UNK         0.1400 
     81 CB         -6.1358  -26.4951  -45.3183 C.3       14 UNK        -0.1800 
     82 C          -6.9512  -24.9226  -47.1216 C.2       14 UNK         0.5000 
     83 O          -6.5913  -25.3878  -48.2055 O.2       14 UNK        -0.5000 
     84 N          -8.0891  -24.2397  -46.9339 N.am      15 UNK        -0.5000 
     85 CA         -9.0961  -23.9044  -47.9511 C.3       15 UNK         0.1400 
     86 CB         -9.8186  -25.1813  -48.4303 C.3       15 UNK        -0.1800 
     87 C          -8.5519  -23.0625  -49.1298 C.2       15 UNK         0.5000 
     88 O          -9.1712  -23.0421  -50.1946 O.2       15 UNK        -0.5000 
     89 N          -7.4033  -22.3955  -48.9231 N.am      16 UNK        -0.5000 
     90 CA         -6.6275  -21.6327  -49.9067 C.3       16 UNK         0.1400 
     91 CB         -7.4163  -20.3917  -50.3788 C.3       16 UNK        -0.1800 
     92 C          -6.1093  -22.4988  -51.0785 C.2       16 UNK         0.5000 
     93 O          -5.9217  -21.9842  -52.1819 O.2       16 UNK        -0.5000 
     94 N          -5.8914  -23.8003  -50.8326 N.am      17 UNK        -0.5000 
     95 CA         -5.5218  -24.7873  -51.8489 C.3       17 UNK         0.1400 
     96 CB         -5.5382  -26.1905  -51.2253 C.3       17 UNK        -0.1800 
     97 C          -4.1681  -24.5147  -52.5283 C.2       17 UNK         0.5000 
     98 O          -4.0584  -24.6779  -53.7443 O.2       17 UNK        -0.5000 
     99 N          -3.1690  -24.0869  -51.7453 N.am      18 UNK        -0.5000 
    100 CA        -1.8457  -23.7339  -52.2584 C.3       18 UNK         0.1400 
    101 CB        -0.7834  -23.9381  -51.1719 C.3       18 UNK        -0.1800 
    102 C         -1.8201  -22.3067  -52.8304 C.2       18 UNK         0.5000 
    103 O         -1.0962  -22.0703  -53.7969 O.2       18 UNK        -0.5000 
    104 N         -2.6530  -21.4063  -52.2840 N.am      19 UNK        -0.5000 
    105 CA        -2.8892  -20.0599  -52.8125 C.3       19 UNK         0.1400 
    106 CB        -3.7625  -19.2360  -51.8507 C.3       19 UNK        -0.1800 
    107 C         -3.4938  -20.0702  -54.2281 C.2       19 UNK         0.5000 
    108 O         -3.0870  -19.2699  -55.0698 O.2       19 UNK        -0.5000 
    109 N         -4.4367  -20.9902  -54.4682 N.am      20 UNK        -0.5000 
    110 CA        -5.0638  -21.2145  -55.7697 C.3       20 UNK         0.1400 
    111 CB        -6.2694  -22.1497  -55.5902 C.3       20 UNK        -0.1800 
    112 C         -4.0901  -21.7809  -56.8220 C.2       20 UNK         0.5000 
    113 O         -4.2171  -21.4497  -58.0014 O.2       20 UNK        -0.5000 
    114 N         -3.1473  -22.6249  -56.3822 N.am      21 UNK        -0.5000 
    115 CA        -2.1401  -23.2559  -57.2320 C.3       21 UNK         0.1400 
    116 CB        -1.6544  -24.5536  -56.5641 C.3       21 UNK        -0.1800 
    117 C         -0.9657  -22.3078  -57.5346 C.2       21 UNK         0.5000 
    118 O         -0.6951  -22.0218  -58.7012 O.2       21 UNK        -0.5000 
    119 N         -0.2879  -21.8513  -56.4739 N.am      22 UNK        -0.5000 
    120 CA         0.9126  -20.9981  -56.4905 C.3       22 UNK         0.1400 
    121 C          2.1713  -21.6084  -57.1838 C.2       22 UNK         0.5000 
    122 N          2.2556  -22.9225  -57.3526 N.am      22 UNK        -0.7600 
    123 O          3.1002  -20.8933  -57.5499 O.2       22 UNK        -0.5000 
    124 C124        0.5985  -19.5336  -56.9233 C.3       23 UNK        -0.0398 
    125 S125        1.3260  -18.3177  -55.7696 S.3       23 UNK        -0.2404 
    126 C126        0.0510  -18.3895  -54.4702 C.3       23 UNK        -0.0205 
    127 H127       -4.2609  -16.7757  -46.5455 H         1 UNK         0.0600 
    128 H128       -3.7820  -16.1554  -44.9613 H         1 UNK         0.0600 
    129 H129       -2.5774  -16.8850  -46.0232 H         1 UNK         0.0600 
    130 H130       -1.3421  -15.4491  -47.1757 H         1 UNK         0.3000 
    131 H131       -2.4294  -12.9610  -48.2644 H         1 UNK         0.0600 
    132 H132        0.2805  -14.3520  -48.5829 H         1 UNK         0.0800 
    133 H133       -0.0531  -12.7771  -49.2508 H         1 UNK         0.0800 
    134 H134       -2.1582  -16.6610  -50.3033 H         1 UNK         0.0800 
    135 H135       -0.9660  -16.3994  -49.0612 H         1 UNK         0.0800 
    136 H136       -1.4613  -17.0651  -52.6609 H         1 UNK         0.1150 
    137 H137        2.4930  -18.6419  -53.1905 H         1 UNK         0.1150 
    138 H138        1.4113  -16.7393  -49.5050 H         1 UNK         0.1150 
    139 H139        4.2306  -17.8207  -51.5649 H         1 UNK         0.0800 
    140 H140        3.7647  -17.2512  -49.9842 H         1 UNK         0.0800 
    141 H141        2.2960  -18.6101  -48.4045 H         1 UNK         0.0800 
    142 H142        3.6571  -19.4897  -47.7796 H         1 UNK         0.0800 
    143 H143        2.4513  -21.6543  -48.5561 H         1 UNK         0.0600 
    144 H144        2.0947  -20.1848  -46.1512 H         1 UNK         0.3000 
    145 H145        0.4268  -22.7993  -44.3653 H         1 UNK         0.0600 
    146 H146        2.3530  -22.4482  -42.8536 H         1 UNK         0.0600 
    147 H147        2.8677  -23.3421  -44.2760 H         1 UNK         0.0600 
    148 H148        3.2500  -21.6303  -44.1311 H         1 UNK         0.0600 
    149 H149        1.2814  -20.2405  -43.5069 H         1 UNK         0.3000 
    150 H150       -1.7236  -18.4527  -44.4005 H         1 UNK         0.0600 
    151 H151       -2.0723  -19.5025  -42.1917 H         1 UNK         0.0600 
    152 H152       -1.4229  -17.8825  -41.9850 H         1 UNK         0.0600 
    153 H153       -0.3792  -19.2841  -41.7756 H         1 UNK         0.0600 
    154 H154        0.7671  -17.5935  -43.2730 H         1 UNK         0.3000 
    155 H155        2.4057  -16.7692  -46.3206 H         1 UNK         0.0600 
    156 H156        2.5261  -14.5578  -45.1562 H         1 UNK         0.0600 
    157 H157        1.1412  -15.0045  -44.1598 H         1 UNK         0.0600 
    158 H158        0.9556  -14.8084  -45.8993 H         1 UNK         0.0600 
    159 H159        3.0504  -16.5016  -43.5204 H         1 UNK         0.3000 
    160 H160        4.7480  -19.6503  -43.2471 H         1 UNK         0.0600 
    161 H161        5.7597  -16.7554  -43.3385 H         1 UNK         0.0600 
    162 H162        6.3502  -18.0733  -44.3440 H         1 UNK         0.0600 
    163 H163        6.5922  -18.1267  -42.6054 H         1 UNK         0.0600 
    164 H164        4.4080  -17.5154  -41.3948 H         1 UNK         0.3000 
    165 H165        1.2672  -18.4341  -40.0605 H         1 UNK         0.0600 
    166 H166        2.5336  -18.7113  -37.9487 H         1 UNK         0.0600 
    167 H167        2.7762  -20.1107  -38.9813 H         1 UNK         0.0600 
    168 H168        4.0433  -18.8977  -38.8424 H         1 UNK         0.0600 
    169 H169        3.1609  -16.5726  -39.1231 H         1 UNK         0.3000 
    170 H170        3.0985  -14.4239  -39.4733 H         1 UNK         0.0600 
    171 H171        4.1444  -14.2831  -41.7161 H         1 UNK         0.0600 
    172 H172        2.6223  -13.7812  -42.4364 H         1 UNK         0.0600 
    173 H173        3.4416  -12.7326  -41.2821 H         1 UNK         0.0600 
    174 H174        0.7254  -13.3554  -40.8817 H         1 UNK         0.3000 
    175 H175       -1.3852  -13.5790  -38.0806 H         1 UNK         0.0600 
    176 H176       -0.2444  -11.0468  -39.3878 H         1 UNK         0.0600 
    177 H177       -1.7825  -11.1673  -38.5342 H         1 UNK         0.0600 
    178 H178       -0.2734  -11.3779  -37.6592 H         1 UNK         0.0600 
    179 H179       -1.6681  -12.5299  -40.7574 H         1 UNK         0.3000 
    180 H180       -2.3277  -15.6181  -42.3684 H         1 UNK         0.0600 
    181 H181       -4.3662  -14.3997  -43.1041 H         1 UNK         0.0600 
    182 H182       -4.2159  -13.2929  -41.7402 H         1 UNK         0.0600 
    183 H183       -4.5307  -14.9980  -41.4602 H         1 UNK         0.0600 
    184 H184       -1.1636  -14.3036  -43.6473 H         1 UNK         0.3000 
    185 H185       -1.3282  -10.8902  -44.5562 H         1 UNK         0.0600 
    186 H186        0.7530  -11.0550  -43.1789 H         1 UNK         0.0600 
    187 H187        1.0642  -12.6657  -43.8080 H         1 UNK         0.0600 
    188 H188        1.1207  -11.2726  -44.8822 H         1 UNK         0.0600 
    189 H189       -1.5841  -13.6259  -45.2796 H         1 UNK         0.3000 
    190 H190       -0.3122  -19.7825  -47.3349 H         1 UNK         0.3000 
    191 H191       -1.8131  -19.9918  -49.8131 H         1 UNK         0.0600 
    192 H192       -3.6923  -19.1154  -48.4324 H         1 UNK         0.0600 
    193 H193       -2.2458  -18.1495  -48.1857 H         1 UNK         0.0600 
    194 H194       -2.7400  -19.3186  -46.9678 H         1 UNK         0.0600 
    195 H195       -1.6978  -21.7234  -46.7285 H         1 UNK         0.3000 
    196 H196       -2.1673  -23.7333  -46.0387 H         1 UNK         0.0600 
    197 H197       -2.8115  -24.6232  -48.9010 H         1 UNK         0.0600 
    198 H198       -1.1882  -24.5850  -48.2072 H         1 UNK         0.0600 
    199 H199       -2.4027  -25.6566  -47.5437 H         1 UNK         0.0600 
    200 H200       -3.9992  -25.5447  -46.1234 H         1 UNK         0.3000 
    201 H201       -6.3620  -24.3678  -45.1208 H         1 UNK         0.0600 
    202 H202       -5.7995  -27.2416  -46.0392 H         1 UNK         0.0600 
    203 H203       -7.1641  -26.7396  -45.0488 H         1 UNK         0.0600 
    204 H204       -5.5309  -26.6005  -44.4175 H         1 UNK         0.0600 
    205 H205       -8.2809  -23.8800  -46.0088 H         1 UNK         0.3000 
    206 H206       -9.8347  -23.2758  -47.4518 H         1 UNK         0.0600 
    207 H207      -10.2000  -25.7587  -47.5881 H         1 UNK         0.0600 
    208 H208      -10.6712  -24.9365  -49.0647 H         1 UNK         0.0600 
    209 H209       -9.1571  -25.8277  -49.0081 H         1 UNK         0.0600 
    210 H210       -6.9567  -22.4974  -48.0201 H         1 UNK         0.3000 
    211 H211       -5.7428  -21.2755  -49.3792 H         1 UNK         0.0600 
    212 H212       -6.8005  -19.7371  -50.9944 H         1 UNK         0.0600 
    213 H213       -7.7642  -19.8010  -49.5315 H         1 UNK         0.0600 
    214 H214       -8.2859  -20.6662  -50.9761 H         1 UNK         0.0600 
    215 H215       -6.0781  -24.1594  -49.9029 H         1 UNK         0.3000 
    216 H216       -6.2873  -24.7555  -52.6270 H         1 UNK         0.0600 
    217 H217       -4.8323  -26.2707  -50.3975 H         1 UNK         0.0600 
    218 H218       -5.2725  -26.9507  -51.9611 H         1 UNK         0.0600 
    219 H219       -6.5289  -26.4398  -50.8444 H         1 UNK         0.0600 
    220 H220       -3.3543  -23.8828  -50.7714 H         1 UNK         0.3000 
    221 H221       -1.5936  -24.4121  -53.0764 H         1 UNK         0.0600 
    222 H222       -0.7493  -24.9770  -50.8442 H         1 UNK         0.0600 
    223 H223       -0.9731  -23.3184  -50.2989 H         1 UNK         0.0600 
    224 H224        0.2088  -23.6797  -51.5440 H         1 UNK         0.0600 
    225 H225       -3.1820  -21.6822  -51.4643 H         1 UNK         0.3000 
    226 H226       -1.9230  -19.5658  -52.8744 H         1 UNK         0.0600 
    227 H227       -4.5517  -19.8364  -51.4052 H         1 UNK         0.0600 
    228 H228       -3.1723  -18.8090  -51.0439 H         1 UNK         0.0600 
    229 H229       -4.2360  -18.3947  -52.3591 H         1 UNK         0.0600 
    230 H230       -4.7815  -21.5477  -53.6911 H         1 UNK         0.3000 
    231 H231       -5.4293  -20.2539  -56.1385 H         1 UNK         0.0600 
    232 H232       -5.9694  -23.1198  -55.1919 H         1 UNK         0.0600 
    233 H233       -6.7748  -22.3249  -56.5407 H         1 UNK         0.0600 
    234 H234       -7.0018  -21.7208  -54.9058 H         1 UNK         0.0600 
    235 H235       -3.1186  -22.8429  -55.3963 H         1 UNK         0.3000 
    236 H236       -2.6027  -23.5287  -58.1831 H         1 UNK         0.0600 
    237 H237       -2.4788  -25.2531  -56.4234 H         1 UNK         0.0600 
    238 H238       -0.9059  -25.0536  -57.1799 H         1 UNK         0.0600 
    239 H239       -1.2082  -24.3693  -55.5865 H         1 UNK         0.0600 
    240 H240       -0.6142  -22.0993  -55.5415 H         1 UNK         0.3000 
    241 H241        1.2030  -20.9833  -55.4397 H         1 UNK         0.0600 
    242 H242        3.0736  -23.3144  -57.7927 H         1 UNK         0.3800 
    243 H243        1.5122  -23.5285  -57.0457 H         1 UNK         0.3800 
    244 H244       -0.4785  -19.3592  -56.9550 H         1 UNK         0.0800 
    245 H245        0.9498  -19.3274  -57.9356 H         1 UNK         0.0800 
    246 H246       -0.8221  -17.8388  -54.8233 H         1 UNK         0.0800 
    247 H247       -0.2597  -19.4266  -54.3499 H         1 UNK         0.0800 
@<TRIPOS>BOND
     1    1    2 1    
     2    1  127 1    
     3    1  128 1    
     4    1  129 1    
     5    2    3 2    
     6    2    4 am   BACKBONE|DICT|INTERRES
     7    4    5 1    
     8    4  130 1    
     9    5    6 1    
    10    5   65 1    
    11    5  131 1    
    12    6    7 1    
    13    6  132 1    
    14    6  133 1    
    15    7    8 1    
    16    8    9 1    
    17    8  134 1    
    18    8  135 1    
    19    9   10 ar   
    20    9   14 ar   
    21   10   11 ar   
    22   10  136 1    
    23   11   12 ar   
    24   11  126 1    
    25   12   13 ar   
    26   12  137 1    
    27   13   14 ar   
    28   13   15 1    
    29   14  138 1    
    30   15   16 1    
    31   15  139 1    
    32   15  140 1    
    33   16   17 1    
    34   17   18 1    
    35   17  141 1    
    36   17  142 1    
    37   18   19 1    
    38   18   67 1    
    39   18  143 1    
    40   19   20 am   BACKBONE|DICT|INTERRES
    41   19  144 1    
    42   20   21 2    
    43   20   22 1    
    44   22   23 1    
    45   22   24 1    
    46   22  145 1    
    47   23  146 1    
    48   23  147 1    
    49   23  148 1    
    50   24   25 am   BACKBONE|DICT|INTERRES
    51   24  149 1    
    52   25   26 2    
    53   25   27 1    
    54   27   28 1    
    55   27   29 1    
    56   27  150 1    
    57   28  151 1    
    58   28  152 1    
    59   28  153 1    
    60   29   30 am   BACKBONE|DICT|INTERRES
    61   29  154 1    
    62   30   31 2    
    63   30   32 1    
    64   32   33 1    
    65   32   34 1    
    66   32  155 1    
    67   33  156 1    
    68   33  157 1    
    69   33  158 1    
    70   34   35 am   BACKBONE|DICT|INTERRES
    71   34  159 1    
    72   35   36 2    
    73   35   37 1    
    74   37   38 1    
    75   37   39 1    
    76   37  160 1    
    77   38  161 1    
    78   38  162 1    
    79   38  163 1    
    80   39   40 am   BACKBONE|DICT|INTERRES
    81   39  164 1    
    82   40   41 2    
    83   40   42 1    
    84   42   43 1    
    85   42   44 1    
    86   42  165 1    
    87   43  166 1    
    88   43  167 1    
    89   43  168 1    
    90   44   45 am   BACKBONE|DICT|INTERRES
    91   44  169 1    
    92   45   46 2    
    93   45   47 1    
    94   47   48 1    
    95   47   49 1    
    96   47  170 1    
    97   48  171 1    
    98   48  172 1    
    99   48  173 1    
   100   49   50 am   BACKBONE|DICT|INTERRES
   101   49  174 1    
   102   50   51 2    
   103   50   52 1    
   104   52   53 1    
   105   52   54 1    
   106   52  175 1    
   107   53  176 1    
   108   53  177 1    
   109   53  178 1    
   110   54   55 am   BACKBONE|DICT|INTERRES
   111   54  179 1    
   112   55   56 2    
   113   55   57 1    
   114   57   58 1    
   115   57   59 1    
   116   57  180 1    
   117   58  181 1    
   118   58  182 1    
   119   58  183 1    
   120   59   60 am   BACKBONE|DICT|INTERRES
   121   59  184 1    
   122   60   61 2    
   123   60   62 1    
   124   62   63 1    
   125   62   64 1    
   126   62  185 1    
   127   63  186 1    
   128   63  187 1    
   129   63  188 1    
   130   64   65 am   BACKBONE|DICT|INTERRES
   131   64  189 1    
   132   65   66 2    
   133   67   68 2    
   134   67   69 am   BACKBONE|DICT|INTERRES
   135   69   70 1    
   136   69  190 1    
   137   70   71 1    
   138   70   72 1    
   139   70  191 1    
   140   71  192 1    
   141   71  193 1    
   142   71  194 1    
   143   72   73 2    
   144   72   74 am   BACKBONE|DICT|INTERRES
   145   74   75 1    
   146   74  195 1    
   147   75   76 1    
   148   75   77 1    
   149   75  196 1    
   150   76  197 1    
   151   76  198 1    
   152   76  199 1    
   153   77   78 2    
   154   77   79 am   BACKBONE|DICT|INTERRES
   155   79   80 1    
   156   79  200 1    
   157   80   81 1    
   158   80   82 1    
   159   80  201 1    
   160   81  202 1    
   161   81  203 1    
   162   81  204 1    
   163   82   83 2    
   164   82   84 am   BACKBONE|DICT|INTERRES
   165   84   85 1    
   166   84  205 1    
   167   85   86 1    
   168   85   87 1    
   169   85  206 1    
   170   86  207 1    
   171   86  208 1    
   172   86  209 1    
   173   87   88 2    
   174   87   89 am   BACKBONE|DICT|INTERRES
   175   89   90 1    
   176   89  210 1    
   177   90   91 1    
   178   90   92 1    
   179   90  211 1    
   180   91  212 1    
   181   91  213 1    
   182   91  214 1    
   183   92   93 2    
   184   92   94 am   BACKBONE|DICT|INTERRES
   185   94   95 1    
   186   94  215 1    
   187   95   96 1    
   188   95   97 1    
   189   95  216 1    
   190   96  217 1    
   191   96  218 1    
   192   96  219 1    
   193   97   98 2    
   194   97   99 am   BACKBONE|DICT|INTERRES
   195   99  100 1    
   196   99  220 1    
   197  100  101 1    
   198  100  102 1    
   199  100  221 1    
   200  101  222 1    
   201  101  223 1    
   202  101  224 1    
   203  102  103 2    
   204  102  104 am   BACKBONE|DICT|INTERRES
   205  104  105 1    
   206  104  225 1    
   207  105  106 1    
   208  105  107 1    
   209  105  226 1    
   210  106  227 1    
   211  106  228 1    
   212  106  229 1    
   213  107  108 2    
   214  107  109 am   BACKBONE|DICT|INTERRES
   215  109  110 1    
   216  109  230 1    
   217  110  111 1    
   218  110  112 1    
   219  110  231 1    
   220  111  232 1    
   221  111  233 1    
   222  111  234 1    
   223  112  113 2    
   224  112  114 am   BACKBONE|DICT|INTERRES
   225  114  115 1    
   226  114  235 1    
   227  115  116 1    
   228  115  117 1    
   229  115  236 1    
   230  116  237 1    
   231  116  238 1    
   232  116  239 1    
   233  117  118 2    
   234  117  119 am   BACKBONE|DICT|INTERRES
   235  119  120 1    
   236  119  240 1    
   237  120  121 1    
   238  120  124 1    
   239  120  241 1    
   240  121  122 am   BACKBONE|DICT|INTERRES
   241  121  123 2    
   242  122  242 1    
   243  122  243 1    
   244  124  125 1    
   245  124  244 1    
   246  124  245 1    
   247  125  126 1    
   248  126  246 1    
   249  126  247 1    
@<TRIPOS>SUBSTRUCTURE
     1 UNK         1 GROUP             0       ****    0 ROOT    
