@<TRIPOS>MOLECULE
3R540
247   249    1
SMALL
USER_CHARGES


@<TRIPOS>ATOM
      1 CA          6.7049  -13.1272  -50.6122 C.3       0 UNK        -0.1800 
      2 C           6.4960  -12.6571  -49.1795 C.2       0 UNK         0.5000 
      3 O           6.8599  -11.5297  -48.8431 O.2       0 UNK        -0.5000 
      4 N           5.9191  -13.5198  -48.3358 N.am      1 UNK        -0.5000 
      5 CA          5.5378  -13.2203  -46.9534 C.3       1 UNK         0.1400 
      6 C6          5.3572  -14.5158  -46.1165 C.3       23 UNK        -0.0398 
      7 S7          4.1632  -15.7200  -46.8082 S.3       23 UNK        -0.2404 
      8 C8          5.3067  -16.9832  -47.4564 C.3       23 UNK        -0.0205 
      9 C9          4.6022  -18.0952  -48.2239 C.ar      23 UNK        -0.0193 
     10 C10         3.7350  -17.7948  -49.2781 C.ar      23 UNK        -0.1150 
     11 C11         3.1386  -18.8147  -50.0246 C.ar      23 UNK        -0.0193 
     12 C12         3.4092  -20.1492  -49.7094 C.ar      23 UNK        -0.1150 
     13 C13         4.2925  -20.4647  -48.6726 C.ar      23 UNK        -0.0193 
     14 C14         4.8780  -19.4340  -47.9297 C.ar      23 UNK        -0.1150 
     15 C15         4.6745  -21.9126  -48.3994 C.3       23 UNK        -0.0205 
     16 S16         4.1078  -22.4855  -46.7706 S.3       23 UNK        -0.2404 
     17 C17         2.3147  -22.6776  -47.0476 C.3       23 UNK        -0.0398 
     18 CA          1.7205  -23.8164  -46.1826 C.3       11 UNK         0.1400 
     19 N           1.9585  -23.5825  -44.7557 N.am      11 UNK        -0.5000 
     20 C           2.2570  -24.5198  -43.8497 C.2       10 UNK         0.5000 
     21 O           2.3100  -25.7238  -44.1025 O.2       10 UNK        -0.5000 
     22 CA          2.5679  -24.0290  -42.4208 C.3       10 UNK         0.1400 
     23 CB          4.0867  -23.9149  -42.2181 C.3       10 UNK        -0.1800 
     24 N           1.9533  -22.7356  -42.1103 N.am      10 UNK        -0.5000 
     25 C           0.6557  -22.5674  -41.8247 C.2       9 UNK         0.5000 
     26 O          -0.1507  -23.4941  -41.7435 O.2       9 UNK        -0.5000 
     27 CA          0.1672  -21.1183  -41.6235 C.3       9 UNK         0.1400 
     28 CB          0.2851  -20.7143  -40.1461 C.3       9 UNK        -0.1800 
     29 N           0.8376  -20.1072  -42.4532 N.am      9 UNK        -0.5000 
     30 C           0.8918  -20.1230  -43.7914 C.2       8 UNK         0.5000 
     31 O           0.5334  -21.0817  -44.4747 O.2       8 UNK        -0.5000 
     32 CA          1.4602  -18.8754  -44.4912 C.3       8 UNK         0.1400 
     33 CB          2.9649  -19.0450  -44.7447 C.3       8 UNK        -0.1800 
     34 N           0.7877  -18.6247  -45.7695 N.am      8 UNK        -0.5000 
     35 C          -0.5136  -18.3326  -45.8977 C.2       7 UNK         0.5000 
     36 O          -1.2711  -18.1331  -44.9426 O.2       7 UNK        -0.5000 
     37 CA         -1.0650  -18.2652  -47.3290 C.3       7 UNK         0.1400 
     38 CB         -1.2075  -19.6676  -47.9468 C.3       7 UNK        -0.1800 
     39 N          -2.3522  -17.5801  -47.2846 N.am      7 UNK        -0.5000 
     40 C          -2.9328  -16.9539  -48.3114 C.2       6 UNK         0.5000 
     41 O          -2.5624  -17.0766  -49.4787 O.2       6 UNK        -0.5000 
     42 CA         -4.0573  -15.9543  -47.9898 C.3       6 UNK         0.1400 
     43 CB         -4.6709  -16.1038  -46.5837 C.3       6 UNK        -0.1800 
     44 N          -3.4420  -14.6397  -48.0938 N.am      6 UNK        -0.5000 
     45 C          -3.8028  -13.6546  -48.9248 C.2       5 UNK         0.5000 
     46 O          -4.8387  -13.6583  -49.5904 O.2       5 UNK        -0.5000 
     47 CA         -2.8148  -12.4722  -49.0552 C.3       5 UNK         0.1400 
     48 CB         -3.1927  -11.3418  -48.0862 C.3       5 UNK        -0.1800 
     49 N          -1.4283  -12.8743  -48.8000 N.am      5 UNK        -0.5000 
     50 C          -0.7371  -13.7320  -49.5648 C.2       4 UNK         0.5000 
     51 O          -1.1008  -14.0582  -50.6940 O.2       4 UNK        -0.5000 
     52 CA          0.5444  -14.3622  -48.9718 C.3       4 UNK         0.1400 
     53 CB          1.7628  -14.0712  -49.8613 C.3       4 UNK        -0.1800 
     54 N           0.8490  -13.9847  -47.5834 N.am      4 UNK        -0.5000 
     55 C           0.1101  -14.3082  -46.5085 C.2       3 UNK         0.5000 
     56 O          -0.9609  -14.9060  -46.5898 O.2       3 UNK        -0.5000 
     57 CA          0.6066  -13.8844  -45.1117 C.3       3 UNK         0.1400 
     58 CB          1.0549  -15.1119  -44.3054 C.3       3 UNK        -0.1800 
     59 N           1.6990  -12.9156  -45.1398 N.am      3 UNK        -0.5000 
     60 C           1.5797  -11.6201  -45.4606 C.2       2 UNK         0.5000 
     61 O           0.5064  -11.0791  -45.7282 O.2       2 UNK        -0.5000 
     62 CA          2.8885  -10.8033  -45.5233 C.3       2 UNK         0.1400 
     63 CB          3.0955  -10.0186  -44.2191 C.3       2 UNK        -0.1800 
     64 N           4.0793  -11.6236  -45.7840 N.am      2 UNK        -0.5000 
     65 C           4.2777  -12.3297  -46.9061 C.2       1 UNK         0.5000 
     66 O           3.4795  -12.3341  -47.8456 O.2       1 UNK        -0.5000 
     67 C           0.2172  -23.9672  -46.4788 C.2       11 UNK         0.5000 
     68 O          -0.1398  -24.5983  -47.4728 O.2       11 UNK        -0.5000 
     69 N          -0.6303  -23.3788  -45.6236 N.am      12 UNK        -0.5000 
     70 CA         -2.0752  -23.2034  -45.7671 C.3       12 UNK         0.1400 
     71 CB         -2.6229  -22.5706  -44.4783 C.3       12 UNK        -0.1800 
     72 C          -2.8799  -24.4618  -46.1256 C.2       12 UNK         0.5000 
     73 O          -3.8549  -24.3508  -46.8694 O.2       12 UNK        -0.5000 
     74 N          -2.4515  -25.6233  -45.6166 N.am      13 UNK        -0.5000 
     75 CA         -3.0630  -26.9242  -45.8906 C.3       13 UNK         0.1400 
     76 CB         -2.5243  -27.9504  -44.8822 C.3       13 UNK        -0.1800 
     77 C          -2.8344  -27.4165  -47.3335 C.2       13 UNK         0.5000 
     78 O          -3.6840  -28.1305  -47.8670 O.2       13 UNK        -0.5000 
     79 N          -1.7011  -27.0316  -47.9347 N.am      14 UNK        -0.5000 
     80 CA         -1.3313  -27.3702  -49.3086 C.3       14 UNK         0.1400 
     81 CB          0.1854  -27.6091  -49.3780 C.3       14 UNK        -0.1800 
     82 C          -1.7476  -26.2582  -50.2844 C.2       14 UNK         0.5000 
     83 O          -2.2268  -26.5556  -51.3789 O.2       14 UNK        -0.5000 
     84 N          -1.5639  -24.9983  -49.8665 N.am      15 UNK        -0.5000 
     85 CA         -1.8917  -23.7995  -50.6383 C.3       15 UNK         0.1400 
     86 CB         -1.1845  -22.5927  -50.0007 C.3       15 UNK        -0.1800 
     87 C          -3.4045  -23.5327  -50.7469 C.2       15 UNK         0.5000 
     88 O          -3.8191  -22.8385  -51.6742 O.2       15 UNK        -0.5000 
     89 N          -4.1871  -24.0682  -49.7954 N.am      16 UNK        -0.5000 
     90 CA         -5.6260  -23.8626  -49.6056 C.3       16 UNK         0.1400 
     91 CB         -6.4306  -24.4808  -50.7657 C.3       16 UNK        -0.1800 
     92 C          -5.9236  -22.3706  -49.3648 C.2       16 UNK         0.5000 
     93 O          -6.5858  -21.7227  -50.1787 O.2       16 UNK        -0.5000 
     94 N          -5.3557  -21.8555  -48.2646 N.am      17 UNK        -0.5000 
     95 CA         -5.2261  -20.4380  -47.9036 C.3       17 UNK         0.1400 
     96 CB         -4.7369  -20.3381  -46.4514 C.3       17 UNK        -0.1800 
     97 C          -6.4873  -19.5738  -48.0780 C.2       17 UNK         0.5000 
     98 O          -6.3907  -18.4635  -48.5982 O.2       17 UNK        -0.5000 
     99 N          -7.6343  -20.0945  -47.6282 N.am      18 UNK        -0.5000 
    100 CA        -8.9147  -19.3866  -47.6454 C.3       18 UNK         0.1400 
    101 CB        -9.7222  -19.8160  -46.4097 C.3       18 UNK        -0.1800 
    102 C         -9.7342  -19.6350  -48.9255 C.2       18 UNK         0.5000 
    103 O        -10.6628  -18.8709  -49.1928 O.2       18 UNK        -0.5000 
    104 N         -9.4169  -20.7034  -49.6687 N.am      19 UNK        -0.5000 
    105 CA       -10.1999  -21.1653  -50.8156 C.3       19 UNK         0.1400 
    106 CB       -10.3474  -22.6928  -50.7433 C.3       19 UNK        -0.1800 
    107 C         -9.5745  -20.7480  -52.1544 C.2       19 UNK         0.5000 
    108 O        -10.3015  -20.2986  -53.0417 O.2       19 UNK        -0.5000 
    109 N         -8.2527  -20.9128  -52.2815 N.am      20 UNK        -0.5000 
    110 CA        -7.4907  -20.6277  -53.4968 C.3       20 UNK         0.1400 
    111 CB        -6.8139  -21.9171  -53.9873 C.3       20 UNK        -0.1800 
    112 C         -6.4424  -19.5322  -53.2598 C.2       20 UNK         0.5000 
    113 O         -6.2664  -18.6856  -54.1376 O.2       20 UNK        -0.5000 
    114 N         -5.7852  -19.5615  -52.0877 N.am      21 UNK        -0.5000 
    115 CA        -4.6854  -18.6831  -51.6637 C.3       21 UNK         0.1400 
    116 CB        -5.1630  -17.2120  -51.6136 C.3       21 UNK        -0.1800 
    117 C         -3.4029  -18.8493  -52.5138 C.2       21 UNK         0.5000 
    118 O         -3.3581  -19.6615  -53.4411 O.2       21 UNK        -0.5000 
    119 N         -2.3665  -18.0700  -52.1814 N.am      22 UNK        -0.5000 
    120 CA        -1.1210  -17.9547  -52.9629 C.3       22 UNK         0.1400 
    121 C         -1.2957  -17.3358  -54.3846 C.2       22 UNK         0.5000 
    122 N         -2.3940  -16.6558  -54.6921 N.am      22 UNK        -0.7600 
    123 O         -0.4130  -17.4776  -55.2264 O.2       22 UNK        -0.5000 
    124 C124       -0.0288  -17.1755  -52.1895 C.3       23 UNK        -0.0398 
    125 S125        0.5689  -18.0361  -50.6967 S.3       23 UNK        -0.2404 
    126 C126        2.2585  -18.4623  -51.2114 C.3       23 UNK        -0.0205 
    127 H127        7.7633  -13.0877  -50.8704 H         1 UNK         0.0600 
    128 H128        6.1598  -12.4820  -51.3013 H         1 UNK         0.0600 
    129 H129        6.3572  -14.1505  -50.7579 H         1 UNK         0.0600 
    130 H130        5.5929  -14.4089  -48.6838 H         1 UNK         0.3000 
    131 H131        6.3513  -12.6493  -46.5005 H         1 UNK         0.0600 
    132 H132        5.0455  -14.2758  -45.0987 H         1 UNK         0.0800 
    133 H133        6.3268  -15.0024  -46.0035 H         1 UNK         0.0800 
    134 H134        6.0328  -16.5132  -48.1205 H         1 UNK         0.0800 
    135 H135        5.8729  -17.3978  -46.6208 H         1 UNK         0.0800 
    136 H136        3.5375  -16.7633  -49.5322 H         1 UNK         0.1150 
    137 H137        2.9628  -20.9392  -50.2969 H         1 UNK         0.1150 
    138 H138        5.5700  -19.6801  -47.1364 H         1 UNK         0.1150 
    139 H139        4.2918  -22.5763  -49.1762 H         1 UNK         0.0800 
    140 H140        5.7613  -21.9993  -48.4380 H         1 UNK         0.0800 
    141 H141        1.8307  -21.7235  -46.8304 H         1 UNK         0.0800 
    142 H142        2.1383  -22.8778  -48.1061 H         1 UNK         0.0800 
    143 H143        2.2006  -24.7506  -46.4821 H         1 UNK         0.0600 
    144 H144        1.8752  -22.6203  -44.4522 H         1 UNK         0.3000 
    145 H145        2.1860  -24.7769  -41.7225 H         1 UNK         0.0600 
    146 H146        4.3281  -23.6262  -41.1949 H         1 UNK         0.0600 
    147 H147        4.5792  -24.8690  -42.4102 H         1 UNK         0.0600 
    148 H148        4.5280  -23.1771  -42.8897 H         1 UNK         0.0600 
    149 H149        2.5484  -21.9213  -42.1536 H         1 UNK         0.3000 
    150 H150       -0.8907  -21.1008  -41.8940 H         1 UNK         0.0600 
    151 H151       -0.2240  -21.4325  -39.5017 H         1 UNK         0.0600 
    152 H152       -0.1696  -19.7402  -39.9650 H         1 UNK         0.0600 
    153 H153        1.3262  -20.6652  -39.8247 H         1 UNK         0.0600 
    154 H154        1.1794  -19.2925  -41.9643 H         1 UNK         0.3000 
    155 H155        1.3055  -18.0107  -43.8443 H         1 UNK         0.0600 
    156 H156        3.3909  -18.1505  -45.1977 H         1 UNK         0.0600 
    157 H157        3.1687  -19.8849  -45.4094 H         1 UNK         0.0600 
    158 H158        3.5041  -19.2240  -43.8139 H         1 UNK         0.0600 
    159 H159        1.3371  -18.7897  -46.5999 H         1 UNK         0.3000 
    160 H160       -0.3737  -17.6667  -47.9248 H         1 UNK         0.0600 
    161 H161       -1.8236  -20.3146  -47.3276 H         1 UNK         0.0600 
    162 H162       -0.2340  -20.1478  -48.0524 H         1 UNK         0.0600 
    163 H163       -1.6539  -19.6249  -48.9402 H         1 UNK         0.0600 
    164 H164       -2.6663  -17.3922  -46.3401 H         1 UNK         0.3000 
    165 H165       -4.8437  -16.0840  -48.7358 H         1 UNK         0.0600 
    166 H166       -3.9350  -15.9598  -45.7915 H         1 UNK         0.0600 
    167 H167       -5.4613  -15.3689  -46.4308 H         1 UNK         0.0600 
    168 H168       -5.1232  -17.0858  -46.4546 H         1 UNK         0.0600 
    169 H169       -2.5473  -14.5619  -47.6165 H         1 UNK         0.3000 
    170 H170       -2.8805  -12.0908  -50.0762 H         1 UNK         0.0600 
    171 H171       -4.2139  -11.0018  -48.2629 H         1 UNK         0.0600 
    172 H172       -3.1288  -11.6652  -47.0463 H         1 UNK         0.0600 
    173 H173       -2.5370  -10.4798  -48.2106 H         1 UNK         0.0600 
    174 H174       -1.0453  -12.6333  -47.8975 H         1 UNK         0.3000 
    175 H175        0.3838  -15.4421  -48.9781 H         1 UNK         0.0600 
    176 H176        1.9389  -12.9996  -49.9594 H         1 UNK         0.0600 
    177 H177        2.6673  -14.5244  -49.4563 H         1 UNK         0.0600 
    178 H178        1.6206  -14.4744  -50.8646 H         1 UNK         0.0600 
    179 H179        1.7073  -13.4624  -47.4494 H         1 UNK         0.3000 
    180 H180       -0.2391  -13.4291  -44.5922 H         1 UNK         0.0600 
    181 H181        1.8706  -15.6428  -44.7969 H         1 UNK         0.0600 
    182 H182        0.2300  -15.8147  -44.1841 H         1 UNK         0.0600 
    183 H183        1.3877  -14.8315  -43.3060 H         1 UNK         0.0600 
    184 H184        2.6206  -13.2723  -44.9379 H         1 UNK         0.3000 
    185 H185        2.7874  -10.0878  -46.3420 H         1 UNK         0.0600 
    186 H186        3.9730   -9.3747  -44.2804 H         1 UNK         0.0600 
    187 H187        2.2384   -9.3773  -44.0088 H         1 UNK         0.0600 
    188 H188        3.2246  -10.6842  -43.3647 H         1 UNK         0.0600 
    189 H189        4.7717  -11.6537  -45.0491 H         1 UNK         0.3000 
    190 H190       -0.2074  -22.8152  -44.8933 H         1 UNK         0.3000 
    191 H191       -2.2199  -22.5015  -46.5876 H         1 UNK         0.0600 
    192 H192       -3.7083  -22.4695  -44.5129 H         1 UNK         0.0600 
    193 H193       -2.2092  -21.5739  -44.3223 H         1 UNK         0.0600 
    194 H194       -2.3802  -23.1741  -43.6028 H         1 UNK         0.0600 
    195 H195       -1.6372  -25.6142  -45.0198 H         1 UNK         0.3000 
    196 H196       -4.1409  -26.8319  -45.7407 H         1 UNK         0.0600 
    197 H197       -2.9780  -28.9297  -45.0410 H         1 UNK         0.0600 
    198 H198       -2.7485  -27.6522  -43.8579 H         1 UNK         0.0600 
    199 H199       -1.4437  -28.0709  -44.9689 H         1 UNK         0.0600 
    200 H200       -1.0855  -26.3881  -47.4505 H         1 UNK         0.3000 
    201 H201       -1.8302  -28.2924  -49.6144 H         1 UNK         0.0600 
    202 H202        0.4839  -28.4282  -48.7236 H         1 UNK         0.0600 
    203 H203        0.7501  -26.7235  -49.0836 H         1 UNK         0.0600 
    204 H204        0.4927  -27.8731  -50.3906 H         1 UNK         0.0600 
    205 H205       -1.1143  -24.8472  -48.9661 H         1 UNK         0.3000 
    206 H206       -1.5053  -23.9270  -51.6517 H         1 UNK         0.0600 
    207 H207       -0.1040  -22.7353  -49.9728 H         1 UNK         0.0600 
    208 H208       -1.3772  -21.6799  -50.5665 H         1 UNK         0.0600 
    209 H209       -1.5258  -22.4253  -48.9791 H         1 UNK         0.0600 
    210 H210       -3.7314  -24.5777  -49.0490 H         1 UNK         0.3000 
    211 H211       -5.9044  -24.3958  -48.6955 H         1 UNK         0.0600 
    212 H212       -6.2665  -23.9591  -51.7072 H         1 UNK         0.0600 
    213 H213       -7.4981  -24.4516  -50.5536 H         1 UNK         0.0600 
    214 H214       -6.1609  -25.5263  -50.9147 H         1 UNK         0.0600 
    215 H215       -4.8499  -22.5056  -47.6758 H         1 UNK         0.3000 
    216 H216       -4.4513  -20.0182  -48.5467 H         1 UNK         0.0600 
    217 H217       -4.6106  -19.3013  -46.1423 H         1 UNK         0.0600 
    218 H218       -3.7727  -20.8202  -46.3271 H         1 UNK         0.0600 
    219 H219       -5.4354  -20.8052  -45.7561 H         1 UNK         0.0600 
    220 H220       -7.6235  -21.0158  -47.2154 H         1 UNK         0.3000 
    221 H221       -8.7406  -18.3107  -47.5729 H         1 UNK         0.0600 
    222 H222       -9.9395  -20.8848  -46.4215 H         1 UNK         0.0600 
    223 H223       -9.1823  -19.5927  -45.4893 H         1 UNK         0.0600 
    224 H224      -10.6754  -19.2877  -46.3612 H         1 UNK         0.0600 
    225 H225       -8.5843  -21.2282  -49.4368 H         1 UNK         0.3000 
    226 H226      -11.2064  -20.7428  -50.7778 H         1 UNK         0.0600 
    227 H227      -10.8461  -22.9973  -49.8231 H         1 UNK         0.0600 
    228 H228      -10.9438  -23.0676  -51.5761 H         1 UNK         0.0600 
    229 H229       -9.3807  -23.1922  -50.7819 H         1 UNK         0.0600 
    230 H230       -7.7205  -21.2623  -51.4881 H         1 UNK         0.3000 
    231 H231       -8.1529  -20.2776  -54.2913 H         1 UNK         0.0600 
    232 H232       -6.3028  -21.7496  -54.9361 H         1 UNK         0.0600 
    233 H233       -7.5415  -22.7137  -54.1430 H         1 UNK         0.0600 
    234 H234       -6.0683  -22.2736  -53.2766 H         1 UNK         0.0600 
    235 H235       -5.9894  -20.3267  -51.4544 H         1 UNK         0.3000 
    236 H236       -4.4253  -18.9883  -50.6507 H         1 UNK         0.0600 
    237 H237       -6.0662  -17.1141  -51.0114 H         1 UNK         0.0600 
    238 H238       -4.4157  -16.5548  -51.1722 H         1 UNK         0.0600 
    239 H239       -5.3795  -16.8149  -52.6047 H         1 UNK         0.0600 
    240 H240       -2.4230  -17.5030  -51.3381 H         1 UNK         0.3000 
    241 H241       -0.7508  -18.9687  -53.1253 H         1 UNK         0.0600 
    242 H242       -3.1295  -16.5362  -54.0149 H         1 UNK         0.3800 
    243 H243       -2.4937  -16.2658  -55.6160 H         1 UNK         0.3800 
    244 H244        0.8242  -16.9618  -52.8355 H         1 UNK         0.0800 
    245 H245       -0.4140  -16.2026  -51.8877 H         1 UNK         0.0800 
    246 H246        2.7102  -17.6209  -51.7389 H         1 UNK         0.0800 
    247 H247        2.2199  -19.2880  -51.9236 H         1 UNK         0.0800 
@<TRIPOS>BOND
     1    1    2 1    
     2    1  127 1    
     3    1  128 1    
     4    1  129 1    
     5    2    3 2    
     6    2    4 am   BACKBONE|DICT|INTERRES
     7    4    5 1    
     8    4  130 1    
     9    5    6 1    
    10    5   65 1    
    11    5  131 1    
    12    6    7 1    
    13    6  132 1    
    14    6  133 1    
    15    7    8 1    
    16    8    9 1    
    17    8  134 1    
    18    8  135 1    
    19    9   10 ar   
    20    9   14 ar   
    21   10   11 ar   
    22   10  136 1    
    23   11   12 ar   
    24   11  126 1    
    25   12   13 ar   
    26   12  137 1    
    27   13   14 ar   
    28   13   15 1    
    29   14  138 1    
    30   15   16 1    
    31   15  139 1    
    32   15  140 1    
    33   16   17 1    
    34   17   18 1    
    35   17  141 1    
    36   17  142 1    
    37   18   19 1    
    38   18   67 1    
    39   18  143 1    
    40   19   20 am   BACKBONE|DICT|INTERRES
    41   19  144 1    
    42   20   21 2    
    43   20   22 1    
    44   22   23 1    
    45   22   24 1    
    46   22  145 1    
    47   23  146 1    
    48   23  147 1    
    49   23  148 1    
    50   24   25 am   BACKBONE|DICT|INTERRES
    51   24  149 1    
    52   25   26 2    
    53   25   27 1    
    54   27   28 1    
    55   27   29 1    
    56   27  150 1    
    57   28  151 1    
    58   28  152 1    
    59   28  153 1    
    60   29   30 am   BACKBONE|DICT|INTERRES
    61   29  154 1    
    62   30   31 2    
    63   30   32 1    
    64   32   33 1    
    65   32   34 1    
    66   32  155 1    
    67   33  156 1    
    68   33  157 1    
    69   33  158 1    
    70   34   35 am   BACKBONE|DICT|INTERRES
    71   34  159 1    
    72   35   36 2    
    73   35   37 1    
    74   37   38 1    
    75   37   39 1    
    76   37  160 1    
    77   38  161 1    
    78   38  162 1    
    79   38  163 1    
    80   39   40 am   BACKBONE|DICT|INTERRES
    81   39  164 1    
    82   40   41 2    
    83   40   42 1    
    84   42   43 1    
    85   42   44 1    
    86   42  165 1    
    87   43  166 1    
    88   43  167 1    
    89   43  168 1    
    90   44   45 am   BACKBONE|DICT|INTERRES
    91   44  169 1    
    92   45   46 2    
    93   45   47 1    
    94   47   48 1    
    95   47   49 1    
    96   47  170 1    
    97   48  171 1    
    98   48  172 1    
    99   48  173 1    
   100   49   50 am   BACKBONE|DICT|INTERRES
   101   49  174 1    
   102   50   51 2    
   103   50   52 1    
   104   52   53 1    
   105   52   54 1    
   106   52  175 1    
   107   53  176 1    
   108   53  177 1    
   109   53  178 1    
   110   54   55 am   BACKBONE|DICT|INTERRES
   111   54  179 1    
   112   55   56 2    
   113   55   57 1    
   114   57   58 1    
   115   57   59 1    
   116   57  180 1    
   117   58  181 1    
   118   58  182 1    
   119   58  183 1    
   120   59   60 am   BACKBONE|DICT|INTERRES
   121   59  184 1    
   122   60   61 2    
   123   60   62 1    
   124   62   63 1    
   125   62   64 1    
   126   62  185 1    
   127   63  186 1    
   128   63  187 1    
   129   63  188 1    
   130   64   65 am   BACKBONE|DICT|INTERRES
   131   64  189 1    
   132   65   66 2    
   133   67   68 2    
   134   67   69 am   BACKBONE|DICT|INTERRES
   135   69   70 1    
   136   69  190 1    
   137   70   71 1    
   138   70   72 1    
   139   70  191 1    
   140   71  192 1    
   141   71  193 1    
   142   71  194 1    
   143   72   73 2    
   144   72   74 am   BACKBONE|DICT|INTERRES
   145   74   75 1    
   146   74  195 1    
   147   75   76 1    
   148   75   77 1    
   149   75  196 1    
   150   76  197 1    
   151   76  198 1    
   152   76  199 1    
   153   77   78 2    
   154   77   79 am   BACKBONE|DICT|INTERRES
   155   79   80 1    
   156   79  200 1    
   157   80   81 1    
   158   80   82 1    
   159   80  201 1    
   160   81  202 1    
   161   81  203 1    
   162   81  204 1    
   163   82   83 2    
   164   82   84 am   BACKBONE|DICT|INTERRES
   165   84   85 1    
   166   84  205 1    
   167   85   86 1    
   168   85   87 1    
   169   85  206 1    
   170   86  207 1    
   171   86  208 1    
   172   86  209 1    
   173   87   88 2    
   174   87   89 am   BACKBONE|DICT|INTERRES
   175   89   90 1    
   176   89  210 1    
   177   90   91 1    
   178   90   92 1    
   179   90  211 1    
   180   91  212 1    
   181   91  213 1    
   182   91  214 1    
   183   92   93 2    
   184   92   94 am   BACKBONE|DICT|INTERRES
   185   94   95 1    
   186   94  215 1    
   187   95   96 1    
   188   95   97 1    
   189   95  216 1    
   190   96  217 1    
   191   96  218 1    
   192   96  219 1    
   193   97   98 2    
   194   97   99 am   BACKBONE|DICT|INTERRES
   195   99  100 1    
   196   99  220 1    
   197  100  101 1    
   198  100  102 1    
   199  100  221 1    
   200  101  222 1    
   201  101  223 1    
   202  101  224 1    
   203  102  103 2    
   204  102  104 am   BACKBONE|DICT|INTERRES
   205  104  105 1    
   206  104  225 1    
   207  105  106 1    
   208  105  107 1    
   209  105  226 1    
   210  106  227 1    
   211  106  228 1    
   212  106  229 1    
   213  107  108 2    
   214  107  109 am   BACKBONE|DICT|INTERRES
   215  109  110 1    
   216  109  230 1    
   217  110  111 1    
   218  110  112 1    
   219  110  231 1    
   220  111  232 1    
   221  111  233 1    
   222  111  234 1    
   223  112  113 2    
   224  112  114 am   BACKBONE|DICT|INTERRES
   225  114  115 1    
   226  114  235 1    
   227  115  116 1    
   228  115  117 1    
   229  115  236 1    
   230  116  237 1    
   231  116  238 1    
   232  116  239 1    
   233  117  118 2    
   234  117  119 am   BACKBONE|DICT|INTERRES
   235  119  120 1    
   236  119  240 1    
   237  120  121 1    
   238  120  124 1    
   239  120  241 1    
   240  121  122 am   BACKBONE|DICT|INTERRES
   241  121  123 2    
   242  122  242 1    
   243  122  243 1    
   244  124  125 1    
   245  124  244 1    
   246  124  245 1    
   247  125  126 1    
   248  126  246 1    
   249  126  247 1    
@<TRIPOS>SUBSTRUCTURE
     1 UNK         1 GROUP             0       ****    0 ROOT    
