@<TRIPOS>MOLECULE
3R540
247   249    1
SMALL
USER_CHARGES


@<TRIPOS>ATOM
      1 CA          5.5357  -13.6487  -46.6533 C.3       0 UNK        -0.1800 
      2 C           4.1565  -13.0833  -46.3515 C.2       0 UNK         0.5000 
      3 O           3.9344  -12.5624  -45.2596 O.2       0 UNK        -0.5000 
      4 N           3.2344  -13.1668  -47.3199 N.am      1 UNK        -0.5000 
      5 CA          1.8277  -12.7489  -47.2051 C.3       1 UNK         0.1400 
      6 C6          1.0104  -13.1236  -48.4632 C.3       23 UNK        -0.0398 
      7 S7          0.9245  -14.9246  -48.7445 S.3       23 UNK        -0.2404 
      8 C8          2.2137  -15.1821  -49.9996 C.3       23 UNK        -0.0205 
      9 C9          1.9036  -16.3939  -50.8625 C.ar      23 UNK        -0.0193 
     10 C10         1.2543  -16.2274  -52.0878 C.ar      23 UNK        -0.1150 
     11 C11         1.0002  -17.3258  -52.9123 C.ar      23 UNK        -0.0193 
     12 C12         1.3839  -18.6038  -52.4927 C.ar      23 UNK        -0.1150 
     13 C13         2.0341  -18.7876  -51.2673 C.ar      23 UNK        -0.0193 
     14 C14         2.2934  -17.6739  -50.4585 C.ar      23 UNK        -0.1150 
     15 C15         2.5312  -20.1754  -50.8715 C.3       23 UNK        -0.0205 
     16 S16         2.1940  -20.6123  -49.1335 S.3       23 UNK        -0.2404 
     17 C17         0.4600  -21.1766  -49.1901 C.3       23 UNK        -0.0398 
     18 CA          0.2308  -22.3467  -48.2016 C.3       11 UNK         0.1400 
     19 N           0.3404  -21.9274  -46.7990 N.am      11 UNK        -0.5000 
     20 C           0.3624  -22.7697  -45.7562 C.2       10 UNK         0.5000 
     21 O           0.3362  -23.9952  -45.8673 O.2       10 UNK        -0.5000 
     22 CA          0.3653  -22.1447  -44.3506 C.3       10 UNK         0.1400 
     23 CB          1.7762  -21.6794  -43.9609 C.3       10 UNK        -0.1800 
     24 N          -0.5841  -21.0381  -44.2212 N.am      10 UNK        -0.5000 
     25 C          -1.9143  -21.1640  -44.3363 C.2       9 UNK         0.5000 
     26 O          -2.4816  -22.2374  -44.5276 O.2       9 UNK        -0.5000 
     27 CA         -2.7570  -19.8782  -44.2709 C.3       9 UNK         0.1400 
     28 CB         -2.9798  -19.4414  -42.8160 C.3       9 UNK        -0.1800 
     29 N          -2.1704  -18.7773  -45.0308 N.am      9 UNK        -0.5000 
     30 C          -1.9523  -18.7882  -46.3543 C.2       8 UNK         0.5000 
     31 O          -2.2530  -19.7223  -47.0992 O.2       8 UNK        -0.5000 
     32 CA         -1.2202  -17.5620  -46.9222 C.3       8 UNK         0.1400 
     33 CB         -2.1892  -16.3774  -47.0729 C.3       8 UNK        -0.1800 
     34 N          -0.0861  -17.1740  -46.0811 N.am      8 UNK        -0.5000 
     35 C           0.9946  -17.9384  -45.8658 C.2       7 UNK         0.5000 
     36 O           1.1594  -19.0496  -46.3671 O.2       7 UNK        -0.5000 
     37 CA          2.0363  -17.3930  -44.8728 C.3       7 UNK         0.1400 
     38 CB          2.9012  -16.3105  -45.5308 C.3       7 UNK        -0.1800 
     39 N           1.4166  -16.8531  -43.6616 N.am      7 UNK        -0.5000 
     40 C           0.7590  -17.5973  -42.7588 C.2       6 UNK         0.5000 
     41 O           0.6607  -18.8208  -42.8282 O.2       6 UNK        -0.5000 
     42 CA          0.0520  -16.8553  -41.6077 C.3       6 UNK         0.1400 
     43 CB          0.9937  -16.7121  -40.4030 C.3       6 UNK        -0.1800 
     44 N          -0.4419  -15.5324  -41.9864 N.am      6 UNK        -0.5000 
     45 C          -1.3024  -15.2723  -42.9809 C.2       5 UNK         0.5000 
     46 O          -1.8569  -16.1505  -43.6421 O.2       5 UNK        -0.5000 
     47 CA         -1.5579  -13.7881  -43.3194 C.3       5 UNK         0.1400 
     48 CB         -2.9854  -13.3839  -42.9216 C.3       5 UNK        -0.1800 
     49 N          -0.6072  -12.8610  -42.6921 N.am      5 UNK        -0.5000 
     50 C           0.6996  -12.7828  -42.9778 C.2       4 UNK         0.5000 
     51 O           1.2614  -13.4936  -43.8128 O.2       4 UNK        -0.5000 
     52 CA          1.5215  -11.8220  -42.1119 C.3       4 UNK         0.1400 
     53 CB          2.1205  -12.5740  -40.9080 C.3       4 UNK        -0.1800 
     54 N           2.5851  -11.2082  -42.9010 N.am      4 UNK        -0.5000 
     55 C           3.2005  -10.0640  -42.5726 C.2       3 UNK         0.5000 
     56 O           2.9360   -9.4125  -41.5609 O.2       3 UNK        -0.5000 
     57 CA          4.2758   -9.5404  -43.5370 C.3       3 UNK         0.1400 
     58 CB          5.6019  -10.2951  -43.3496 C.3       3 UNK        -0.1800 
     59 N           3.8353   -9.6447  -44.9263 N.am      3 UNK        -0.5000 
     60 C           3.1210   -8.7057  -45.5639 C.2       2 UNK         0.5000 
     61 O           2.7970   -7.6326  -45.0534 O.2       2 UNK        -0.5000 
     62 CA          2.7012   -8.9976  -47.0186 C.3       2 UNK         0.1400 
     63 CB          3.6783   -8.3346  -48.0018 C.3       2 UNK        -0.1800 
     64 N           2.6269  -10.4267  -47.3187 N.am      2 UNK        -0.5000 
     65 C           1.6587  -11.2470  -46.8872 C.2       1 UNK         0.5000 
     66 O           0.6760  -10.8660  -46.2504 O.2       1 UNK        -0.5000 
     67 C          -1.1036  -23.0698  -48.4766 C.2       11 UNK         0.5000 
     68 O          -1.1016  -24.1172  -49.1263 O.2       11 UNK        -0.5000 
     69 N          -2.2080  -22.5357  -47.9356 N.am      12 UNK        -0.5000 
     70 CA         -3.5322  -23.1505  -48.0089 C.3       12 UNK         0.1400 
     71 CB         -4.5941  -22.1648  -47.5010 C.3       12 UNK        -0.1800 
     72 C          -3.6116  -24.4942  -47.2596 C.2       12 UNK         0.5000 
     73 O          -4.1513  -25.4596  -47.7988 O.2       12 UNK        -0.5000 
     74 N          -3.0390  -24.5545  -46.0496 N.am      13 UNK        -0.5000 
     75 CA         -2.9618  -25.7624  -45.2255 C.3       13 UNK         0.1400 
     76 CB         -2.4219  -25.4075  -43.8321 C.3       13 UNK        -0.1800 
     77 C          -2.1175  -26.8791  -45.8655 C.2       13 UNK         0.5000 
     78 O          -2.4923  -28.0475  -45.7656 O.2       13 UNK        -0.5000 
     79 N          -1.0162  -26.5027  -46.5312 N.am      14 UNK        -0.5000 
     80 CA         -0.1447  -27.4116  -47.2769 C.3       14 UNK         0.1400 
     81 CB          1.1355  -26.6717  -47.6941 C.3       14 UNK        -0.1800 
     82 C          -0.8404  -28.0336  -48.5020 C.2       14 UNK         0.5000 
     83 O          -0.6591  -29.2240  -48.7616 O.2       14 UNK        -0.5000 
     84 N          -1.6358  -27.2280  -49.2193 N.am      15 UNK        -0.5000 
     85 CA         -2.4458  -27.6751  -50.3546 C.3       15 UNK         0.1400 
     86 CB         -2.8509  -26.4526  -51.1887 C.3       15 UNK        -0.1800 
     87 C          -3.7058  -28.4527  -49.9296 C.2       15 UNK         0.5000 
     88 O          -4.1902  -29.2807  -50.7017 O.2       15 UNK        -0.5000 
     89 N          -4.2224  -28.1411  -48.7318 N.am      16 UNK        -0.5000 
     90 CA         -5.5147  -28.5523  -48.1740 C.3       16 UNK         0.1400 
     91 CB         -5.5723  -30.0775  -47.9491 C.3       16 UNK        -0.1800 
     92 C          -6.6952  -28.0032  -49.0052 C.2       16 UNK         0.5000 
     93 O          -7.6977  -28.6933  -49.1999 O.2       16 UNK        -0.5000 
     94 N          -6.5395  -26.7671  -49.4934 N.am      17 UNK        -0.5000 
     95 CA         -7.4426  -26.0574  -50.3942 C.3       17 UNK         0.1400 
     96 CB         -7.3877  -26.6901  -51.7999 C.3       17 UNK        -0.1800 
     97 C          -7.0112  -24.5839  -50.4474 C.2       17 UNK         0.5000 
     98 O          -5.9539  -24.2361  -49.9185 O.2       17 UNK        -0.5000 
     99 N          -7.8044  -23.7361  -51.1132 N.am      18 UNK        -0.5000 
    100 CA        -7.4974  -22.3241  -51.3633 C.3       18 UNK         0.1400 
    101 CB        -8.7999  -21.5892  -51.7282 C.3       18 UNK        -0.1800 
    102 C         -6.4059  -22.1667  -52.4457 C.2       18 UNK         0.5000 
    103 O         -6.7049  -21.7336  -53.5601 O.2       18 UNK        -0.5000 
    104 N         -5.1760  -22.5667  -52.0893 N.am      19 UNK        -0.5000 
    105 CA        -3.9510  -22.6525  -52.8922 C.3       19 UNK         0.1400 
    106 CB        -2.7555  -22.7890  -51.9332 C.3       19 UNK        -0.1800 
    107 C         -3.7399  -21.4598  -53.8395 C.2       19 UNK         0.5000 
    108 O         -3.3026  -20.4017  -53.3852 O.2       19 UNK        -0.5000 
    109 N         -4.1235  -21.6368  -55.1132 N.am      20 UNK        -0.5000 
    110 CA        -4.0740  -20.6564  -56.2084 C.3       20 UNK         0.1400 
    111 CB        -2.6176  -20.4786  -56.6827 C.3       20 UNK        -0.1800 
    112 C         -4.7740  -19.3089  -55.9032 C.2       20 UNK         0.5000 
    113 O         -4.4380  -18.2925  -56.5130 O.2       20 UNK        -0.5000 
    114 N         -5.7259  -19.3283  -54.9564 N.am      21 UNK        -0.5000 
    115 CA        -6.4132  -18.1823  -54.3538 C.3       21 UNK         0.1400 
    116 CB        -7.3317  -17.4907  -55.3828 C.3       21 UNK        -0.1800 
    117 C         -5.4664  -17.1953  -53.6278 C.2       21 UNK         0.5000 
    118 O         -5.7921  -16.0112  -53.5198 O.2       21 UNK        -0.5000 
    119 N         -4.3246  -17.6890  -53.1309 N.am      22 UNK        -0.5000 
    120 CA        -3.2952  -16.9023  -52.4306 C.3       22 UNK         0.1400 
    121 C         -2.6711  -17.6139  -51.1979 C.2       22 UNK         0.5000 
    122 N         -2.7514  -18.9317  -51.0671 N.am      22 UNK        -0.7600 
    123 O         -2.1383  -16.9467  -50.3183 O.2       22 UNK        -0.5000 
    124 C124       -2.2196  -16.3478  -53.4009 C.3       23 UNK        -0.0398 
    125 S125       -1.3620  -17.6474  -54.3597 S.3       23 UNK        -0.2404 
    126 C126        0.3754  -17.1202  -54.2850 C.3       23 UNK        -0.0205 
    127 H127        5.7778  -14.4385  -45.9424 H         1 UNK         0.0600 
    128 H128        6.2890  -12.8659  -46.5650 H         1 UNK         0.0600 
    129 H129        5.5923  -14.0665  -47.6587 H         1 UNK         0.0600 
    130 H130        3.4855  -13.5986  -48.1960 H         1 UNK         0.3000 
    131 H131        1.3998  -13.2919  -46.3622 H         1 UNK         0.0600 
    132 H132       -0.0199  -12.7779  -48.3584 H         1 UNK         0.0800 
    133 H133        1.4034  -12.6208  -49.3480 H         1 UNK         0.0800 
    134 H134        2.3081  -14.2995  -50.6335 H         1 UNK         0.0800 
    135 H135        3.1777  -15.3139  -49.5068 H         1 UNK         0.0800 
    136 H136        0.9661  -15.2364  -52.4092 H         1 UNK         0.1150 
    137 H137        1.1991  -19.4509  -53.1384 H         1 UNK         0.1150 
    138 H138        2.8104  -17.8004  -49.5176 H         1 UNK         0.1150 
    139 H139        2.1177  -20.9435  -51.5266 H         1 UNK         0.0800 
    140 H140        3.6109  -20.1987  -51.0235 H         1 UNK         0.0800 
    141 H141        0.2232  -21.4835  -50.2105 H         1 UNK         0.0800 
    142 H142       -0.1938  -20.3337  -48.9599 H         1 UNK         0.0800 
    143 H143        1.0161  -23.0860  -48.3751 H         1 UNK         0.0600 
    144 H144        0.4161  -20.9289  -46.6282 H         1 UNK         0.3000 
    145 H145        0.0636  -22.9215  -43.6451 H         1 UNK         0.0600 
    146 H146        1.8057  -21.3374  -42.9264 H         1 UNK         0.0600 
    147 H147        2.4957  -22.4938  -44.0538 H         1 UNK         0.0600 
    148 H148        2.1218  -20.8619  -44.5937 H         1 UNK         0.0600 
    149 H149       -0.1901  -20.1271  -44.0066 H         1 UNK         0.3000 
    150 H150       -3.7315  -20.0965  -44.7122 H         1 UNK         0.0600 
    151 H151       -3.4903  -20.2217  -42.2502 H         1 UNK         0.0600 
    152 H152       -3.5946  -18.5427  -42.7617 H         1 UNK         0.0600 
    153 H153       -2.0376  -19.2344  -42.3098 H         1 UNK         0.0600 
    154 H154       -1.9139  -17.9447  -44.5087 H         1 UNK         0.3000 
    155 H155       -0.8351  -17.8216  -47.9109 H         1 UNK         0.0600 
    156 H156       -2.6058  -16.0598  -46.1179 H         1 UNK         0.0600 
    157 H157       -1.6992  -15.5173  -47.5269 H         1 UNK         0.0600 
    158 H158       -3.0271  -16.6461  -47.7171 H         1 UNK         0.0600 
    159 H159       -0.1657  -16.2966  -45.5904 H         1 UNK         0.3000 
    160 H160        2.6880  -18.2200  -44.5829 H         1 UNK         0.0600 
    161 H161        2.3034  -15.4423  -45.8055 H         1 UNK         0.0600 
    162 H162        3.3759  -16.6835  -46.4393 H         1 UNK         0.0600 
    163 H163        3.6922  -15.9736  -44.8608 H         1 UNK         0.0600 
    164 H164        1.4384  -15.8477  -43.5465 H         1 UNK         0.3000 
    165 H165       -0.8076  -17.4542  -41.3026 H         1 UNK         0.0600 
    166 H166        0.4812  -16.2634  -39.5518 H         1 UNK         0.0600 
    167 H167        1.3654  -17.6856  -40.0805 H         1 UNK         0.0600 
    168 H168        1.8592  -16.0918  -40.6399 H         1 UNK         0.0600 
    169 H169       -0.0455  -14.7470  -41.4940 H         1 UNK         0.3000 
    170 H170       -1.4622  -13.6861  -44.4025 H         1 UNK         0.0600 
    171 H171       -3.7228  -14.0306  -43.3993 H         1 UNK         0.0600 
    172 H172       -3.1375  -13.4530  -41.8438 H         1 UNK         0.0600 
    173 H173       -3.2063  -12.3615  -43.2286 H         1 UNK         0.0600 
    174 H174       -0.9861  -12.2578  -41.9758 H         1 UNK         0.3000 
    175 H175        0.8550  -11.0363  -41.7491 H         1 UNK         0.0600 
    176 H176        2.8132  -13.3533  -41.2288 H         1 UNK         0.0600 
    177 H177        2.6617  -11.8995  -40.2446 H         1 UNK         0.0600 
    178 H178        1.3407  -13.0509  -40.3130 H         1 UNK         0.0600 
    179 H179        2.8534  -11.7107  -43.7441 H         1 UNK         0.3000 
    180 H180        4.4613   -8.4914  -43.2957 H         1 UNK         0.0600 
    181 H181        5.4952  -11.3645  -43.5308 H         1 UNK         0.0600 
    182 H182        5.9747  -10.1742  -42.3318 H         1 UNK         0.0600 
    183 H183        6.3696   -9.9160  -44.0241 H         1 UNK         0.0600 
    184 H184        3.9952  -10.5378  -45.3775 H         1 UNK         0.3000 
    185 H185        1.7129   -8.5588  -47.1721 H         1 UNK         0.0600 
    186 H186        3.7387   -7.2595  -47.8273 H         1 UNK         0.0600 
    187 H187        4.6861   -8.7401  -47.9033 H         1 UNK         0.0600 
    188 H188        3.3573   -8.4770  -49.0339 H         1 UNK         0.0600 
    189 H189        3.3987  -10.8247  -47.8336 H         1 UNK         0.3000 
    190 H190       -2.1406  -21.6520  -47.4383 H         1 UNK         0.3000 
    191 H191       -3.7334  -23.3493  -49.0614 H         1 UNK         0.0600 
    192 H192       -4.4288  -21.8946  -46.4580 H         1 UNK         0.0600 
    193 H193       -5.5928  -22.5967  -47.5766 H         1 UNK         0.0600 
    194 H194       -4.5911  -21.2471  -48.0894 H         1 UNK         0.0600 
    195 H195       -2.6613  -23.7027  -45.6405 H         1 UNK         0.3000 
    196 H196       -3.9773  -26.1458  -45.1065 H         1 UNK         0.0600 
    197 H197       -2.3658  -26.2922  -43.1967 H         1 UNK         0.0600 
    198 H198       -3.0692  -24.6881  -43.3305 H         1 UNK         0.0600 
    199 H199       -1.4216  -24.9773  -43.8866 H         1 UNK         0.0600 
    200 H200       -0.7400  -25.5254  -46.5054 H         1 UNK         0.3000 
    201 H201        0.1391  -28.2265  -46.6079 H         1 UNK         0.0600 
    202 H202        1.6795  -26.3051  -46.8235 H         1 UNK         0.0600 
    203 H203        0.9169  -25.8172  -48.3351 H         1 UNK         0.0600 
    204 H204        1.8078  -27.3320  -48.2433 H         1 UNK         0.0600 
    205 H205       -1.6961  -26.2478  -48.9679 H         1 UNK         0.3000 
    206 H206       -1.8395  -28.3319  -50.9820 H         1 UNK         0.0600 
    207 H207       -1.9745  -25.9014  -51.5298 H         1 UNK         0.0600 
    208 H208       -3.4157  -26.7494  -52.0733 H         1 UNK         0.0600 
    209 H209       -3.4795  -25.7726  -50.6123 H         1 UNK         0.0600 
    210 H210       -3.7760  -27.3820  -48.2283 H         1 UNK         0.3000 
    211 H211       -5.5841  -28.0739  -47.1960 H         1 UNK         0.0600 
    212 H212       -5.5848  -30.6291  -48.8892 H         1 UNK         0.0600 
    213 H213       -6.4710  -30.3550  -47.3973 H         1 UNK         0.0600 
    214 H214       -4.7161  -30.4211  -47.3685 H         1 UNK         0.0600 
    215 H215       -5.7204  -26.2271  -49.2261 H         1 UNK         0.3000 
    216 H216       -8.4583  -26.1078  -49.9978 H         1 UNK         0.0600 
    217 H217       -6.3777  -26.6593  -52.2110 H         1 UNK         0.0600 
    218 H218       -8.0433  -26.1688  -52.4980 H         1 UNK         0.0600 
    219 H219       -7.7073  -27.7319  -51.7834 H         1 UNK         0.0600 
    220 H220       -8.6430  -24.0921  -51.5486 H         1 UNK         0.3000 
    221 H221       -7.1138  -21.8775  -50.4432 H         1 UNK         0.0600 
    222 H222       -9.5273  -21.6522  -50.9187 H         1 UNK         0.0600 
    223 H223       -9.2608  -22.0035  -52.6258 H         1 UNK         0.0600 
    224 H224       -8.6125  -20.5307  -51.9133 H         1 UNK         0.0600 
    225 H225       -5.1082  -22.9719  -51.1614 H         1 UNK         0.3000 
    226 H226       -4.0133  -23.5646  -53.4882 H         1 UNK         0.0600 
    227 H227       -2.8523  -23.6688  -51.3029 H         1 UNK         0.0600 
    228 H228       -1.8177  -22.8840  -52.4818 H         1 UNK         0.0600 
    229 H229       -2.6640  -21.9269  -51.2717 H         1 UNK         0.0600 
    230 H230       -4.5398  -22.5246  -55.3573 H         1 UNK         0.3000 
    231 H231       -4.6355  -21.0951  -57.0342 H         1 UNK         0.0600 
    232 H232       -1.9875  -20.0646  -55.8964 H         1 UNK         0.0600 
    233 H233       -2.5556  -19.8100  -57.5419 H         1 UNK         0.0600 
    234 H234       -2.1854  -21.4320  -56.9859 H         1 UNK         0.0600 
    235 H235       -5.9438  -20.2269  -54.5327 H         1 UNK         0.3000 
    236 H236       -7.0540  -18.6007  -53.5764 H         1 UNK         0.0600 
    237 H237       -7.9662  -16.7449  -54.9028 H         1 UNK         0.0600 
    238 H238       -6.7599  -16.9812  -56.1588 H         1 UNK         0.0600 
    239 H239       -7.9911  -18.2099  -55.8685 H         1 UNK         0.0600 
    240 H240       -4.0933  -18.6649  -53.2898 H         1 UNK         0.3000 
    241 H241       -3.7914  -16.0334  -51.9941 H         1 UNK         0.0600 
    242 H242       -2.3701  -19.3578  -50.2402 H         1 UNK         0.3800 
    243 H243       -3.0571  -19.5106  -51.8451 H         1 UNK         0.3800 
    244 H244       -1.4947  -15.7430  -52.8550 H         1 UNK         0.0800 
    245 H245       -2.6905  -15.6691  -54.1129 H         1 UNK         0.0800 
    246 H246        0.9422  -17.6926  -55.0206 H         1 UNK         0.0800 
    247 H247        0.4490  -16.0766  -54.5949 H         1 UNK         0.0800 
@<TRIPOS>BOND
     1    1    2 1    
     2    1  127 1    
     3    1  128 1    
     4    1  129 1    
     5    2    3 2    
     6    2    4 am   BACKBONE|DICT|INTERRES
     7    4    5 1    
     8    4  130 1    
     9    5    6 1    
    10    5   65 1    
    11    5  131 1    
    12    6    7 1    
    13    6  132 1    
    14    6  133 1    
    15    7    8 1    
    16    8    9 1    
    17    8  134 1    
    18    8  135 1    
    19    9   10 ar   
    20    9   14 ar   
    21   10   11 ar   
    22   10  136 1    
    23   11   12 ar   
    24   11  126 1    
    25   12   13 ar   
    26   12  137 1    
    27   13   14 ar   
    28   13   15 1    
    29   14  138 1    
    30   15   16 1    
    31   15  139 1    
    32   15  140 1    
    33   16   17 1    
    34   17   18 1    
    35   17  141 1    
    36   17  142 1    
    37   18   19 1    
    38   18   67 1    
    39   18  143 1    
    40   19   20 am   BACKBONE|DICT|INTERRES
    41   19  144 1    
    42   20   21 2    
    43   20   22 1    
    44   22   23 1    
    45   22   24 1    
    46   22  145 1    
    47   23  146 1    
    48   23  147 1    
    49   23  148 1    
    50   24   25 am   BACKBONE|DICT|INTERRES
    51   24  149 1    
    52   25   26 2    
    53   25   27 1    
    54   27   28 1    
    55   27   29 1    
    56   27  150 1    
    57   28  151 1    
    58   28  152 1    
    59   28  153 1    
    60   29   30 am   BACKBONE|DICT|INTERRES
    61   29  154 1    
    62   30   31 2    
    63   30   32 1    
    64   32   33 1    
    65   32   34 1    
    66   32  155 1    
    67   33  156 1    
    68   33  157 1    
    69   33  158 1    
    70   34   35 am   BACKBONE|DICT|INTERRES
    71   34  159 1    
    72   35   36 2    
    73   35   37 1    
    74   37   38 1    
    75   37   39 1    
    76   37  160 1    
    77   38  161 1    
    78   38  162 1    
    79   38  163 1    
    80   39   40 am   BACKBONE|DICT|INTERRES
    81   39  164 1    
    82   40   41 2    
    83   40   42 1    
    84   42   43 1    
    85   42   44 1    
    86   42  165 1    
    87   43  166 1    
    88   43  167 1    
    89   43  168 1    
    90   44   45 am   BACKBONE|DICT|INTERRES
    91   44  169 1    
    92   45   46 2    
    93   45   47 1    
    94   47   48 1    
    95   47   49 1    
    96   47  170 1    
    97   48  171 1    
    98   48  172 1    
    99   48  173 1    
   100   49   50 am   BACKBONE|DICT|INTERRES
   101   49  174 1    
   102   50   51 2    
   103   50   52 1    
   104   52   53 1    
   105   52   54 1    
   106   52  175 1    
   107   53  176 1    
   108   53  177 1    
   109   53  178 1    
   110   54   55 am   BACKBONE|DICT|INTERRES
   111   54  179 1    
   112   55   56 2    
   113   55   57 1    
   114   57   58 1    
   115   57   59 1    
   116   57  180 1    
   117   58  181 1    
   118   58  182 1    
   119   58  183 1    
   120   59   60 am   BACKBONE|DICT|INTERRES
   121   59  184 1    
   122   60   61 2    
   123   60   62 1    
   124   62   63 1    
   125   62   64 1    
   126   62  185 1    
   127   63  186 1    
   128   63  187 1    
   129   63  188 1    
   130   64   65 am   BACKBONE|DICT|INTERRES
   131   64  189 1    
   132   65   66 2    
   133   67   68 2    
   134   67   69 am   BACKBONE|DICT|INTERRES
   135   69   70 1    
   136   69  190 1    
   137   70   71 1    
   138   70   72 1    
   139   70  191 1    
   140   71  192 1    
   141   71  193 1    
   142   71  194 1    
   143   72   73 2    
   144   72   74 am   BACKBONE|DICT|INTERRES
   145   74   75 1    
   146   74  195 1    
   147   75   76 1    
   148   75   77 1    
   149   75  196 1    
   150   76  197 1    
   151   76  198 1    
   152   76  199 1    
   153   77   78 2    
   154   77   79 am   BACKBONE|DICT|INTERRES
   155   79   80 1    
   156   79  200 1    
   157   80   81 1    
   158   80   82 1    
   159   80  201 1    
   160   81  202 1    
   161   81  203 1    
   162   81  204 1    
   163   82   83 2    
   164   82   84 am   BACKBONE|DICT|INTERRES
   165   84   85 1    
   166   84  205 1    
   167   85   86 1    
   168   85   87 1    
   169   85  206 1    
   170   86  207 1    
   171   86  208 1    
   172   86  209 1    
   173   87   88 2    
   174   87   89 am   BACKBONE|DICT|INTERRES
   175   89   90 1    
   176   89  210 1    
   177   90   91 1    
   178   90   92 1    
   179   90  211 1    
   180   91  212 1    
   181   91  213 1    
   182   91  214 1    
   183   92   93 2    
   184   92   94 am   BACKBONE|DICT|INTERRES
   185   94   95 1    
   186   94  215 1    
   187   95   96 1    
   188   95   97 1    
   189   95  216 1    
   190   96  217 1    
   191   96  218 1    
   192   96  219 1    
   193   97   98 2    
   194   97   99 am   BACKBONE|DICT|INTERRES
   195   99  100 1    
   196   99  220 1    
   197  100  101 1    
   198  100  102 1    
   199  100  221 1    
   200  101  222 1    
   201  101  223 1    
   202  101  224 1    
   203  102  103 2    
   204  102  104 am   BACKBONE|DICT|INTERRES
   205  104  105 1    
   206  104  225 1    
   207  105  106 1    
   208  105  107 1    
   209  105  226 1    
   210  106  227 1    
   211  106  228 1    
   212  106  229 1    
   213  107  108 2    
   214  107  109 am   BACKBONE|DICT|INTERRES
   215  109  110 1    
   216  109  230 1    
   217  110  111 1    
   218  110  112 1    
   219  110  231 1    
   220  111  232 1    
   221  111  233 1    
   222  111  234 1    
   223  112  113 2    
   224  112  114 am   BACKBONE|DICT|INTERRES
   225  114  115 1    
   226  114  235 1    
   227  115  116 1    
   228  115  117 1    
   229  115  236 1    
   230  116  237 1    
   231  116  238 1    
   232  116  239 1    
   233  117  118 2    
   234  117  119 am   BACKBONE|DICT|INTERRES
   235  119  120 1    
   236  119  240 1    
   237  120  121 1    
   238  120  124 1    
   239  120  241 1    
   240  121  122 am   BACKBONE|DICT|INTERRES
   241  121  123 2    
   242  122  242 1    
   243  122  243 1    
   244  124  125 1    
   245  124  244 1    
   246  124  245 1    
   247  125  126 1    
   248  126  246 1    
   249  126  247 1    
@<TRIPOS>SUBSTRUCTURE
     1 UNK         1 GROUP             0       ****    0 ROOT    
