@<TRIPOS>MOLECULE
3R540
247   249    1
SMALL
USER_CHARGES


@<TRIPOS>ATOM
      1 CA         -5.3130   -8.5484  -46.4309 C.3       0 UNK        -0.1800 
      2 C          -4.3315   -8.8853  -47.5443 C.2       0 UNK         0.5000 
      3 O          -4.2020   -8.1196  -48.4995 O.2       0 UNK        -0.5000 
      4 N          -3.6422  -10.0273  -47.4254 N.am      1 UNK        -0.5000 
      5 CA         -2.6306  -10.5072  -48.3768 C.3       1 UNK         0.1400 
      6 C6         -2.3520  -12.0197  -48.2006 C.3       23 UNK        -0.0398 
      7 S7         -1.7917  -12.4754  -46.5207 S.3       23 UNK        -0.2404 
      8 C8         -0.1147  -13.0835  -46.8778 C.3       23 UNK        -0.0205 
      9 C9         -0.1093  -14.4554  -47.5390 C.ar      23 UNK        -0.0193 
     10 C10         0.6402  -14.6711  -48.6973 C.ar      23 UNK        -0.1150 
     11 C11         0.6971  -15.9388  -49.2835 C.ar      23 UNK        -0.0193 
     12 C12        -0.0175  -16.9963  -48.7117 C.ar      23 UNK        -0.1150 
     13 C13        -0.7777  -16.7915  -47.5563 C.ar      23 UNK        -0.0193 
     14 C14        -0.8165  -15.5216  -46.9753 C.ar      23 UNK        -0.1150 
     15 C15        -1.5485  -17.9381  -46.9227 C.3       23 UNK        -0.0205 
     16 S16        -0.4834  -18.8872  -45.7976 S.3       23 UNK        -0.2404 
     17 C17        -1.7102  -19.8747  -44.8821 C.3       23 UNK        -0.0398 
     18 CA         -2.1472  -21.1734  -45.6056 C.3       11 UNK         0.1400 
     19 N          -1.0260  -21.9790  -46.0982 N.am      11 UNK        -0.5000 
     20 C          -1.1338  -23.0048  -46.9543 C.2       10 UNK         0.5000 
     21 O          -2.1982  -23.3761  -47.4482 O.2       10 UNK        -0.5000 
     22 CA          0.1593  -23.7683  -47.2902 C.3       10 UNK         0.1400 
     23 CB          0.9099  -23.0718  -48.4341 C.3       10 UNK        -0.1800 
     24 N           1.0445  -23.9098  -46.1328 N.am      10 UNK        -0.5000 
     25 C           0.7542  -24.6436  -45.0481 C.2       9 UNK         0.5000 
     26 O          -0.2654  -25.3225  -44.9378 O.2       9 UNK        -0.5000 
     27 CA          1.7382  -24.5582  -43.8648 C.3       9 UNK         0.1400 
     28 CB          2.8632  -25.5914  -44.0230 C.3       9 UNK        -0.1800 
     29 N           2.3231  -23.2254  -43.6805 N.am      9 UNK        -0.5000 
     30 C           1.6194  -22.1059  -43.4637 C.2       8 UNK         0.5000 
     31 O           0.3865  -22.0814  -43.4103 O.2       8 UNK        -0.5000 
     32 CA          2.4313  -20.8011  -43.3422 C.3       8 UNK         0.1400 
     33 CB          3.0579  -20.4273  -44.6955 C.3       8 UNK        -0.1800 
     34 N           1.6008  -19.6867  -42.8850 N.am      8 UNK        -0.5000 
     35 C           1.1336  -19.5472  -41.6365 C.2       7 UNK         0.5000 
     36 O           1.4764  -20.2749  -40.7023 O.2       7 UNK        -0.5000 
     37 CA          0.0846  -18.4375  -41.3982 C.3       7 UNK         0.1400 
     38 CB          0.0964  -17.9004  -39.9510 C.3       7 UNK        -0.1800 
     39 N           0.1363  -17.3369  -42.3693 N.am      7 UNK        -0.5000 
     40 C           1.1377  -16.4647  -42.5513 C.2       6 UNK         0.5000 
     41 O           2.1825  -16.4563  -41.8964 O.2       6 UNK        -0.5000 
     42 CA          0.9023  -15.3963  -43.6376 C.3       6 UNK         0.1400 
     43 CB          0.4018  -14.0948  -42.9899 C.3       6 UNK        -0.1800 
     44 N           2.0969  -15.1087  -44.4334 N.am      6 UNK        -0.5000 
     45 C           2.8101  -16.0148  -45.1204 C.2       5 UNK         0.5000 
     46 O           2.4899  -17.1987  -45.2147 O.2       5 UNK        -0.5000 
     47 CA          4.0981  -15.5384  -45.8279 C.3       5 UNK         0.1400 
     48 CB          3.9664  -15.6684  -47.3540 C.3       5 UNK        -0.1800 
     49 N           4.4858  -14.1620  -45.5161 N.am      5 UNK        -0.5000 
     50 C           4.9682  -13.7218  -44.3463 C.2       4 UNK         0.5000 
     51 O           5.2001  -14.4571  -43.3869 O.2       4 UNK        -0.5000 
     52 CA          5.2294  -12.2049  -44.2206 C.3       4 UNK         0.1400 
     53 CB          6.7341  -11.9253  -44.0763 C.3       4 UNK        -0.1800 
     54 N           4.7114  -11.4102  -45.3410 N.am      4 UNK        -0.5000 
     55 C           3.4179  -11.1807  -45.6000 C.2       3 UNK         0.5000 
     56 O           2.4886  -11.6366  -44.9287 O.2       3 UNK        -0.5000 
     57 CA          3.1255  -10.3412  -46.8498 C.3       3 UNK         0.1400 
     58 CB          3.2288  -11.1964  -48.1261 C.3       3 UNK        -0.1800 
     59 N           1.7929   -9.7530  -46.7426 N.am      3 UNK        -0.5000 
     60 C           1.4405   -8.5764  -47.2732 C.2       2 UNK         0.5000 
     61 O           2.1902   -7.9008  -47.9820 O.2       2 UNK        -0.5000 
     62 CA          0.0208   -8.0686  -46.9408 C.3       2 UNK         0.1400 
     63 CB         -0.3214   -6.7371  -47.6421 C.3       2 UNK        -0.1800 
     64 N          -1.0382   -9.0516  -47.1926 N.am      2 UNK        -0.5000 
     65 C          -1.3331   -9.6645  -48.3513 C.2       1 UNK         0.5000 
     66 O          -0.6613   -9.5656  -49.3788 O.2       1 UNK        -0.5000 
     67 C          -3.0502  -22.0106  -44.6821 C.2       11 UNK         0.5000 
     68 O          -4.2702  -21.9971  -44.8456 O.2       11 UNK        -0.5000 
     69 N          -2.4241  -22.7644  -43.7655 N.am      12 UNK        -0.5000 
     70 CA         -3.0784  -23.7050  -42.8518 C.3       12 UNK         0.1400 
     71 CB         -2.0364  -24.2606  -41.8699 C.3       12 UNK        -0.1800 
     72 C          -3.8057  -24.8497  -43.5850 C.2       12 UNK         0.5000 
     73 O          -4.8536  -25.3020  -43.1240 O.2       12 UNK        -0.5000 
     74 N          -3.2649  -25.2536  -44.7415 N.am      13 UNK        -0.5000 
     75 CA         -3.8565  -26.2077  -45.6782 C.3       13 UNK         0.1400 
     76 CB         -2.7272  -26.8612  -46.4933 C.3       13 UNK        -0.1800 
     77 C          -4.9259  -25.5869  -46.6049 C.2       13 UNK         0.5000 
     78 O          -5.3378  -26.2529  -47.5533 O.2       13 UNK        -0.5000 
     79 N          -5.3534  -24.3413  -46.3447 N.am      14 UNK        -0.5000 
     80 CA         -6.3652  -23.5769  -47.0829 C.3       14 UNK         0.1400 
     81 CB         -7.7505  -24.2511  -46.9875 C.3       14 UNK        -0.1800 
     82 C          -5.9289  -23.2916  -48.5320 C.2       14 UNK         0.5000 
     83 O          -6.6211  -23.6668  -49.4796 O.2       14 UNK        -0.5000 
     84 N          -4.7537  -22.6614  -48.6648 N.am      15 UNK        -0.5000 
     85 CA         -4.0571  -22.3370  -49.9148 C.3       15 UNK         0.1400 
     86 CB         -4.8521  -21.3082  -50.7438 C.3       15 UNK        -0.1800 
     87 C          -3.6883  -23.6053  -50.7090 C.2       15 UNK         0.5000 
     88 O          -3.8782  -23.6510  -51.9270 O.2       15 UNK        -0.5000 
     89 N          -3.1849  -24.6078  -49.9734 N.am      16 UNK        -0.5000 
     90 CA         -2.8363  -25.9610  -50.4148 C.3       16 UNK         0.1400 
     91 CB         -1.5898  -25.9313  -51.3213 C.3       16 UNK        -0.1800 
     92 C          -4.0359  -26.6963  -51.0479 C.2       16 UNK         0.5000 
     93 O          -3.9609  -27.1331  -52.1959 O.2       16 UNK        -0.5000 
     94 N          -5.1290  -26.7978  -50.2789 N.am      17 UNK        -0.5000 
     95 CA         -6.4173  -27.4002  -50.6335 C.3       17 UNK         0.1400 
     96 CB         -6.2752  -28.9228  -50.8409 C.3       17 UNK        -0.1800 
     97 C          -7.0973  -26.6801  -51.8150 C.2       17 UNK         0.5000 
     98 O          -7.5437  -27.3259  -52.7654 O.2       17 UNK        -0.5000 
     99 N          -7.1516  -25.3431  -51.7236 N.am      18 UNK        -0.5000 
    100 CA        -7.7300  -24.4059  -52.6906 C.3       18 UNK         0.1400 
    101 CB        -9.2599  -24.5853  -52.7798 C.3       18 UNK        -0.1800 
    102 C         -7.0376  -24.4256  -54.0707 C.2       18 UNK         0.5000 
    103 O         -7.6761  -24.1340  -55.0837 O.2       18 UNK        -0.5000 
    104 N         -5.7348  -24.7387  -54.0895 N.am      19 UNK        -0.5000 
    105 CA        -4.8908  -24.7115  -55.2864 C.3       19 UNK         0.1400 
    106 CB        -3.6853  -25.6375  -55.0716 C.3       19 UNK        -0.1800 
    107 C         -4.4151  -23.2915  -55.6495 C.2       19 UNK         0.5000 
    108 O         -3.8909  -23.1022  -56.7478 O.2       19 UNK        -0.5000 
    109 N         -4.5967  -22.3353  -54.7245 N.am      20 UNK        -0.5000 
    110 CA        -4.1600  -20.9383  -54.7860 C.3       20 UNK         0.1400 
    111 CB        -4.8190  -20.1851  -55.9611 C.3       20 UNK        -0.1800 
    112 C         -2.6234  -20.8449  -54.7755 C.2       20 UNK         0.5000 
    113 O         -2.0246  -20.2619  -55.6805 O.2       20 UNK        -0.5000 
    114 N         -2.0206  -21.4454  -53.7381 N.am      21 UNK        -0.5000 
    115 CA        -0.5757  -21.6001  -53.5251 C.3       21 UNK         0.1400 
    116 CB        -0.3530  -22.2566  -52.1539 C.3       21 UNK        -0.1800 
    117 C          0.2670  -20.3112  -53.6328 C.2       21 UNK         0.5000 
    118 O          1.4333  -20.3887  -54.0210 O.2       21 UNK        -0.5000 
    119 N         -0.3305  -19.1590  -53.3012 N.am      22 UNK        -0.5000 
    120 CA         0.2750  -17.8277  -53.4699 C.3       22 UNK         0.1400 
    121 C          0.2913  -17.3048  -54.9420 C.2       22 UNK         0.5000 
    122 N         -0.3851  -17.9391  -55.8923 N.am      22 UNK        -0.7600 
    123 O          0.9487  -16.3120  -55.2401 O.2       22 UNK        -0.5000 
    124 C124       -0.3531  -16.8047  -52.4843 C.3       23 UNK        -0.0398 
    125 S125        0.8040  -15.4729  -52.0149 S.3       23 UNK        -0.2404 
    126 C126        1.5644  -16.1611  -50.5122 C.3       23 UNK        -0.0205 
    127 H127       -5.3261   -9.3151  -45.6558 H         1 UNK         0.0600 
    128 H128       -6.3213   -8.4560  -46.8346 H         1 UNK         0.0600 
    129 H129       -5.0421   -7.6001  -45.9666 H         1 UNK         0.0600 
    130 H130       -3.7933  -10.6203  -46.6209 H         1 UNK         0.3000 
    131 H131       -3.0511  -10.3813  -49.3771 H         1 UNK         0.0600 
    132 H132       -3.2651  -12.5804  -48.4045 H         1 UNK         0.0800 
    133 H133       -1.6331  -12.3631  -48.9467 H         1 UNK         0.0800 
    134 H134        0.4538  -13.1442  -45.9520 H         1 UNK         0.0800 
    135 H135        0.3933  -12.3466  -47.4993 H         1 UNK         0.0800 
    136 H136        1.1980  -13.8574  -49.1390 H         1 UNK         0.1150 
    137 H137        0.0281  -17.9815  -49.1540 H         1 UNK         0.1150 
    138 H138       -1.3961  -15.3622  -46.0774 H         1 UNK         0.1150 
    139 H139       -2.4103  -17.5490  -46.3786 H         1 UNK         0.0800 
    140 H140       -1.9415  -18.6001  -47.6958 H         1 UNK         0.0800 
    141 H141       -2.5789  -19.2502  -44.6668 H         1 UNK         0.0800 
    142 H142       -1.2672  -20.1058  -43.9127 H         1 UNK         0.0800 
    143 H143       -2.7437  -20.8829  -46.4731 H         1 UNK         0.0600 
    144 H144       -0.1238  -21.7686  -45.6977 H         1 UNK         0.3000 
    145 H145       -0.1226  -24.7679  -47.6277 H         1 UNK         0.0600 
    146 H146        1.2318  -22.0675  -48.1553 H         1 UNK         0.0600 
    147 H147        1.7929  -23.6387  -48.7296 H         1 UNK         0.0600 
    148 H148        0.2742  -22.9810  -49.3155 H         1 UNK         0.0600 
    149 H149        1.9044  -23.3820  -46.1432 H         1 UNK         0.3000 
    150 H150        1.1800  -24.7993  -42.9580 H         1 UNK         0.0600 
    151 H151        2.4560  -26.5965  -44.1422 H         1 UNK         0.0600 
    152 H152        3.5109  -25.6073  -43.1462 H         1 UNK         0.0600 
    153 H153        3.4831  -25.3826  -44.8958 H         1 UNK         0.0600 
    154 H154        3.3307  -23.1701  -43.7182 H         1 UNK         0.3000 
    155 H155        3.2314  -20.9636  -42.6173 H         1 UNK         0.0600 
    156 H156        3.6984  -21.2235  -45.0760 H         1 UNK         0.0600 
    157 H157        3.6800  -19.5372  -44.6035 H         1 UNK         0.0600 
    158 H158        2.2979  -20.2262  -45.4515 H         1 UNK         0.0600 
    159 H159        1.2812  -19.0450  -43.5978 H         1 UNK         0.3000 
    160 H160       -0.8823  -18.9186  -41.5520 H         1 UNK         0.0600 
    161 H161       -0.6611  -17.1295  -39.8097 H         1 UNK         0.0600 
    162 H162        1.0636  -17.4744  -39.6836 H         1 UNK         0.0600 
    163 H163       -0.1169  -18.6960  -39.2362 H         1 UNK         0.0600 
    164 H164       -0.6757  -17.2546  -42.9646 H         1 UNK         0.3000 
    165 H165        0.1372  -15.7640  -44.3219 H         1 UNK         0.0600 
    166 H166        1.1582  -13.6575  -42.3367 H         1 UNK         0.0600 
    167 H167        0.1343  -13.3471  -43.7346 H         1 UNK         0.0600 
    168 H168       -0.4879  -14.2757  -42.3854 H         1 UNK         0.0600 
    169 H169        2.4369  -14.1584  -44.4055 H         1 UNK         0.3000 
    170 H170        4.9010  -16.2011  -45.4988 H         1 UNK         0.0600 
    171 H171        3.2406  -14.9604  -47.7520 H         1 UNK         0.0600 
    172 H172        4.9198  -15.4829  -47.8488 H         1 UNK         0.0600 
    173 H173        3.6415  -16.6693  -47.6420 H         1 UNK         0.0600 
    174 H174        4.3359  -13.4806  -46.2441 H         1 UNK         0.3000 
    175 H175        4.7309  -11.8692  -43.3088 H         1 UNK         0.0600 
    176 H176        7.2872  -12.2339  -44.9644 H         1 UNK         0.0600 
    177 H177        6.9250  -10.8646  -43.9123 H         1 UNK         0.0600 
    178 H178        7.1539  -12.4631  -43.2252 H         1 UNK         0.0600 
    179 H179        5.4074  -11.0092  -45.9538 H         1 UNK         0.3000 
    180 H180        3.8690   -9.5420  -46.8929 H         1 UNK         0.0600 
    181 H181        2.5853  -12.0738  -48.0817 H         1 UNK         0.0600 
    182 H182        4.2491  -11.5507  -48.2771 H         1 UNK         0.0600 
    183 H183        2.9530  -10.6235  -49.0116 H         1 UNK         0.0600 
    184 H184        1.1579  -10.2435  -46.1257 H         1 UNK         0.3000 
    185 H185        0.0134   -7.8800  -45.8664 H         1 UNK         0.0600 
    186 H186       -0.3104   -6.8374  -48.7280 H         1 UNK         0.0600 
    187 H187       -1.3095   -6.3809  -47.3502 H         1 UNK         0.0600 
    188 H188        0.3946   -5.9583  -47.3770 H         1 UNK         0.0600 
    189 H189       -1.6556   -9.2315  -46.4137 H         1 UNK         0.3000 
    190 H190       -1.4129  -22.6851  -43.6884 H         1 UNK         0.3000 
    191 H191       -3.8253  -23.1487  -42.2818 H         1 UNK         0.0600 
    192 H192       -1.2656  -24.8342  -42.3847 H         1 UNK         0.0600 
    193 H193       -1.5444  -23.4581  -41.3196 H         1 UNK         0.0600 
    194 H194       -2.5030  -24.9207  -41.1378 H         1 UNK         0.0600 
    195 H195       -2.3645  -24.8718  -45.0063 H         1 UNK         0.3000 
    196 H196       -4.3536  -26.9943  -45.1075 H         1 UNK         0.0600 
    197 H197       -2.0034  -27.3483  -45.8398 H         1 UNK         0.0600 
    198 H198       -2.1910  -26.1273  -47.0944 H         1 UNK         0.0600 
    199 H199       -3.1132  -27.6255  -47.1688 H         1 UNK         0.0600 
    200 H200       -4.9225  -23.8415  -45.5758 H         1 UNK         0.3000 
    201 H201       -6.4409  -22.6078  -46.5876 H         1 UNK         0.0600 
    202 H202       -8.5185  -23.6238  -47.4414 H         1 UNK         0.0600 
    203 H203       -8.0373  -24.4154  -45.9489 H         1 UNK         0.0600 
    204 H204       -7.7757  -25.2139  -47.4986 H         1 UNK         0.0600 
    205 H205       -4.2124  -22.5025  -47.8246 H         1 UNK         0.3000 
    206 H206       -3.1137  -21.8694  -49.6292 H         1 UNK         0.0600 
    207 H207       -5.7647  -21.7352  -51.1605 H         1 UNK         0.0600 
    208 H208       -4.2518  -20.9372  -51.5734 H         1 UNK         0.0600 
    209 H209       -5.1314  -20.4460  -50.1384 H         1 UNK         0.0600 
    210 H210       -3.0510  -24.4177  -48.9858 H         1 UNK         0.3000 
    211 H211       -2.5722  -26.5222  -49.5182 H         1 UNK         0.0600 
    212 H212       -0.7527  -25.4425  -50.8230 H         1 UNK         0.0600 
    213 H213       -1.2705  -26.9422  -51.5769 H         1 UNK         0.0600 
    214 H214       -1.7800  -25.4046  -52.2556 H         1 UNK         0.0600 
    215 H215       -5.0949  -26.4236  -49.3317 H         1 UNK         0.3000 
    216 H216       -7.0680  -27.2481  -49.7711 H         1 UNK         0.0600 
    217 H217       -7.2509  -29.3887  -50.9838 H         1 UNK         0.0600 
    218 H218       -5.6693  -29.1605  -51.7157 H         1 UNK         0.0600 
    219 H219       -5.8140  -29.3962  -49.9742 H         1 UNK         0.0600 
    220 H220       -6.7776  -24.9012  -50.8859 H         1 UNK         0.3000 
    221 H221       -7.5439  -23.4117  -52.2822 H         1 UNK         0.0600 
    222 H222       -9.5308  -25.5352  -53.2414 H         1 UNK         0.0600 
    223 H223       -9.7185  -24.5488  -51.7916 H         1 UNK         0.0600 
    224 H224       -9.7137  -23.7921  -53.3749 H         1 UNK         0.0600 
    225 H225       -5.2659  -24.9410  -53.2145 H         1 UNK         0.3000 
    226 H226       -5.4636  -25.0932  -56.1340 H         1 UNK         0.0600 
    227 H227       -4.0054  -26.6615  -54.8794 H         1 UNK         0.0600 
    228 H228       -3.0424  -25.6595  -55.9523 H         1 UNK         0.0600 
    229 H229       -3.0770  -25.3099  -54.2285 H         1 UNK         0.0600 
    230 H230       -4.9786  -22.6386  -53.8389 H         1 UNK         0.3000 
    231 H231       -4.5081  -20.4626  -53.8690 H         1 UNK         0.0600 
    232 H232       -4.5835  -19.1212  -55.9182 H         1 UNK         0.0600 
    233 H233       -5.9044  -20.2793  -55.9297 H         1 UNK         0.0600 
    234 H234       -4.4787  -20.5515  -56.9298 H         1 UNK         0.0600 
    235 H235       -2.6098  -21.9461  -53.0871 H         1 UNK         0.3000 
    236 H236       -0.2136  -22.2843  -54.2948 H         1 UNK         0.0600 
    237 H237       -0.8453  -23.2257  -52.0979 H         1 UNK         0.0600 
    238 H238        0.7084  -22.4228  -51.9641 H         1 UNK         0.0600 
    239 H239       -0.7393  -21.6367  -51.3440 H         1 UNK         0.0600 
    240 H240       -1.2961  -19.1845  -53.0109 H         1 UNK         0.3000 
    241 H241        1.3256  -17.9364  -53.1930 H         1 UNK         0.0600 
    242 H242       -0.3500  -17.5865  -56.8353 H         1 UNK         0.3800 
    243 H243       -0.9266  -18.7786  -55.6980 H         1 UNK         0.3800 
    244 H244       -1.2554  -16.3589  -52.9062 H         1 UNK         0.0800 
    245 H245       -0.6761  -17.3034  -51.5699 H         1 UNK         0.0800 
    246 H246        2.5303  -15.6781  -50.3570 H         1 UNK         0.0800 
    247 H247        1.7772  -17.2218  -50.6549 H         1 UNK         0.0800 
@<TRIPOS>BOND
     1    1    2 1    
     2    1  127 1    
     3    1  128 1    
     4    1  129 1    
     5    2    3 2    
     6    2    4 am   BACKBONE|DICT|INTERRES
     7    4    5 1    
     8    4  130 1    
     9    5    6 1    
    10    5   65 1    
    11    5  131 1    
    12    6    7 1    
    13    6  132 1    
    14    6  133 1    
    15    7    8 1    
    16    8    9 1    
    17    8  134 1    
    18    8  135 1    
    19    9   10 ar   
    20    9   14 ar   
    21   10   11 ar   
    22   10  136 1    
    23   11   12 ar   
    24   11  126 1    
    25   12   13 ar   
    26   12  137 1    
    27   13   14 ar   
    28   13   15 1    
    29   14  138 1    
    30   15   16 1    
    31   15  139 1    
    32   15  140 1    
    33   16   17 1    
    34   17   18 1    
    35   17  141 1    
    36   17  142 1    
    37   18   19 1    
    38   18   67 1    
    39   18  143 1    
    40   19   20 am   BACKBONE|DICT|INTERRES
    41   19  144 1    
    42   20   21 2    
    43   20   22 1    
    44   22   23 1    
    45   22   24 1    
    46   22  145 1    
    47   23  146 1    
    48   23  147 1    
    49   23  148 1    
    50   24   25 am   BACKBONE|DICT|INTERRES
    51   24  149 1    
    52   25   26 2    
    53   25   27 1    
    54   27   28 1    
    55   27   29 1    
    56   27  150 1    
    57   28  151 1    
    58   28  152 1    
    59   28  153 1    
    60   29   30 am   BACKBONE|DICT|INTERRES
    61   29  154 1    
    62   30   31 2    
    63   30   32 1    
    64   32   33 1    
    65   32   34 1    
    66   32  155 1    
    67   33  156 1    
    68   33  157 1    
    69   33  158 1    
    70   34   35 am   BACKBONE|DICT|INTERRES
    71   34  159 1    
    72   35   36 2    
    73   35   37 1    
    74   37   38 1    
    75   37   39 1    
    76   37  160 1    
    77   38  161 1    
    78   38  162 1    
    79   38  163 1    
    80   39   40 am   BACKBONE|DICT|INTERRES
    81   39  164 1    
    82   40   41 2    
    83   40   42 1    
    84   42   43 1    
    85   42   44 1    
    86   42  165 1    
    87   43  166 1    
    88   43  167 1    
    89   43  168 1    
    90   44   45 am   BACKBONE|DICT|INTERRES
    91   44  169 1    
    92   45   46 2    
    93   45   47 1    
    94   47   48 1    
    95   47   49 1    
    96   47  170 1    
    97   48  171 1    
    98   48  172 1    
    99   48  173 1    
   100   49   50 am   BACKBONE|DICT|INTERRES
   101   49  174 1    
   102   50   51 2    
   103   50   52 1    
   104   52   53 1    
   105   52   54 1    
   106   52  175 1    
   107   53  176 1    
   108   53  177 1    
   109   53  178 1    
   110   54   55 am   BACKBONE|DICT|INTERRES
   111   54  179 1    
   112   55   56 2    
   113   55   57 1    
   114   57   58 1    
   115   57   59 1    
   116   57  180 1    
   117   58  181 1    
   118   58  182 1    
   119   58  183 1    
   120   59   60 am   BACKBONE|DICT|INTERRES
   121   59  184 1    
   122   60   61 2    
   123   60   62 1    
   124   62   63 1    
   125   62   64 1    
   126   62  185 1    
   127   63  186 1    
   128   63  187 1    
   129   63  188 1    
   130   64   65 am   BACKBONE|DICT|INTERRES
   131   64  189 1    
   132   65   66 2    
   133   67   68 2    
   134   67   69 am   BACKBONE|DICT|INTERRES
   135   69   70 1    
   136   69  190 1    
   137   70   71 1    
   138   70   72 1    
   139   70  191 1    
   140   71  192 1    
   141   71  193 1    
   142   71  194 1    
   143   72   73 2    
   144   72   74 am   BACKBONE|DICT|INTERRES
   145   74   75 1    
   146   74  195 1    
   147   75   76 1    
   148   75   77 1    
   149   75  196 1    
   150   76  197 1    
   151   76  198 1    
   152   76  199 1    
   153   77   78 2    
   154   77   79 am   BACKBONE|DICT|INTERRES
   155   79   80 1    
   156   79  200 1    
   157   80   81 1    
   158   80   82 1    
   159   80  201 1    
   160   81  202 1    
   161   81  203 1    
   162   81  204 1    
   163   82   83 2    
   164   82   84 am   BACKBONE|DICT|INTERRES
   165   84   85 1    
   166   84  205 1    
   167   85   86 1    
   168   85   87 1    
   169   85  206 1    
   170   86  207 1    
   171   86  208 1    
   172   86  209 1    
   173   87   88 2    
   174   87   89 am   BACKBONE|DICT|INTERRES
   175   89   90 1    
   176   89  210 1    
   177   90   91 1    
   178   90   92 1    
   179   90  211 1    
   180   91  212 1    
   181   91  213 1    
   182   91  214 1    
   183   92   93 2    
   184   92   94 am   BACKBONE|DICT|INTERRES
   185   94   95 1    
   186   94  215 1    
   187   95   96 1    
   188   95   97 1    
   189   95  216 1    
   190   96  217 1    
   191   96  218 1    
   192   96  219 1    
   193   97   98 2    
   194   97   99 am   BACKBONE|DICT|INTERRES
   195   99  100 1    
   196   99  220 1    
   197  100  101 1    
   198  100  102 1    
   199  100  221 1    
   200  101  222 1    
   201  101  223 1    
   202  101  224 1    
   203  102  103 2    
   204  102  104 am   BACKBONE|DICT|INTERRES
   205  104  105 1    
   206  104  225 1    
   207  105  106 1    
   208  105  107 1    
   209  105  226 1    
   210  106  227 1    
   211  106  228 1    
   212  106  229 1    
   213  107  108 2    
   214  107  109 am   BACKBONE|DICT|INTERRES
   215  109  110 1    
   216  109  230 1    
   217  110  111 1    
   218  110  112 1    
   219  110  231 1    
   220  111  232 1    
   221  111  233 1    
   222  111  234 1    
   223  112  113 2    
   224  112  114 am   BACKBONE|DICT|INTERRES
   225  114  115 1    
   226  114  235 1    
   227  115  116 1    
   228  115  117 1    
   229  115  236 1    
   230  116  237 1    
   231  116  238 1    
   232  116  239 1    
   233  117  118 2    
   234  117  119 am   BACKBONE|DICT|INTERRES
   235  119  120 1    
   236  119  240 1    
   237  120  121 1    
   238  120  124 1    
   239  120  241 1    
   240  121  122 am   BACKBONE|DICT|INTERRES
   241  121  123 2    
   242  122  242 1    
   243  122  243 1    
   244  124  125 1    
   245  124  244 1    
   246  124  245 1    
   247  125  126 1    
   248  126  246 1    
   249  126  247 1    
@<TRIPOS>SUBSTRUCTURE
     1 UNK         1 GROUP             0       ****    0 ROOT    
