@<TRIPOS>MOLECULE
3R540
247   249    1
SMALL
USER_CHARGES


@<TRIPOS>ATOM
      1 CA         -0.8976  -12.7090  -49.8151 C.3       0 UNK        -0.1800 
      2 C          -1.0755  -12.9256  -48.3199 C.2       0 UNK         0.5000 
      3 O          -0.1411  -13.3561  -47.6452 O.2       0 UNK        -0.5000 
      4 N          -2.2658  -12.6100  -47.7912 N.am      1 UNK        -0.5000 
      5 CA         -2.6493  -12.8035  -46.3834 C.3       1 UNK         0.1400 
      6 C6         -4.1698  -12.6093  -46.1436 C.3       23 UNK        -0.0398 
      7 S7         -5.2453  -13.5048  -47.3186 S.3       23 UNK        -0.2404 
      8 C8         -5.0850  -15.2313  -46.7614 C.3       23 UNK        -0.0205 
      9 C9         -4.6484  -16.1232  -47.9126 C.ar      23 UNK        -0.0193 
     10 C10        -5.5767  -16.9130  -48.5990 C.ar      23 UNK        -0.1150 
     11 C11        -5.1690  -17.7221  -49.6658 C.ar      23 UNK        -0.0193 
     12 C12        -3.8272  -17.7255  -50.0526 C.ar      23 UNK        -0.1150 
     13 C13        -2.8943  -16.9378  -49.3755 C.ar      23 UNK        -0.0193 
     14 C14        -3.3078  -16.1479  -48.3016 C.ar      23 UNK        -0.1150 
     15 C15        -1.4381  -16.9297  -49.7984 C.3       23 UNK        -0.0205 
     16 S16        -0.4353  -17.9840  -48.7155 S.3       23 UNK        -0.2404 
     17 C17        -0.7909  -19.6456  -49.3683 C.3       23 UNK        -0.0398 
     18 CA         -1.3663  -20.6563  -48.3492 C.3       11 UNK         0.1400 
     19 N          -0.5453  -20.8286  -47.1443 N.am      11 UNK        -0.5000 
     20 C          -0.5123  -21.9753  -46.4490 C.2       10 UNK         0.5000 
     21 O          -1.1604  -22.9729  -46.7614 O.2       10 UNK        -0.5000 
     22 CA          0.3575  -22.0212  -45.1812 C.3       10 UNK         0.1400 
     23 CB          1.8506  -22.1271  -45.5276 C.3       10 UNK        -0.1800 
     24 N           0.1255  -20.8770  -44.3048 N.am      10 UNK        -0.5000 
     25 C          -1.0231  -20.6425  -43.6546 C.2       9 UNK         0.5000 
     26 O          -2.0010  -21.3898  -43.6947 O.2       9 UNK        -0.5000 
     27 CA         -1.1039  -19.3357  -42.8459 C.3       9 UNK         0.1400 
     28 CB         -0.5519  -19.5306  -41.4256 C.3       9 UNK        -0.1800 
     29 N          -0.4022  -18.2304  -43.4980 N.am      9 UNK        -0.5000 
     30 C          -0.7896  -17.6732  -44.6536 C.2       8 UNK         0.5000 
     31 O          -1.7831  -18.0249  -45.2829 O.2       8 UNK        -0.5000 
     32 CA          0.0952  -16.5492  -45.2103 C.3       8 UNK         0.1400 
     33 CB         -0.2556  -15.2270  -44.5158 C.3       8 UNK        -0.1800 
     34 N           1.5275  -16.8250  -45.0785 N.am      8 UNK        -0.5000 
     35 C           2.1555  -17.8782  -45.6224 C.2       7 UNK         0.5000 
     36 O           1.5974  -18.7400  -46.3012 O.2       7 UNK        -0.5000 
     37 CA          3.6504  -18.0364  -45.2978 C.3       7 UNK         0.1400 
     38 CB          4.5014  -17.0311  -46.0865 C.3       7 UNK        -0.1800 
     39 N           3.9526  -17.9162  -43.8713 N.am      7 UNK        -0.5000 
     40 C           3.4372  -18.6720  -42.8944 C.2       6 UNK         0.5000 
     41 O           2.5860  -19.5404  -43.0894 O.2       6 UNK        -0.5000 
     42 CA          3.9328  -18.4303  -41.4534 C.3       6 UNK         0.1400 
     43 CB          5.0227  -19.4500  -41.0736 C.3       6 UNK        -0.1800 
     44 N           4.3619  -17.0587  -41.1416 N.am      6 UNK        -0.5000 
     45 C           5.4058  -16.3549  -41.6007 C.2       5 UNK         0.5000 
     46 O           6.1833  -16.7688  -42.4620 O.2       5 UNK        -0.5000 
     47 CA          5.5706  -14.9316  -41.0208 C.3       5 UNK         0.1400 
     48 CB          6.8647  -14.2454  -41.4937 C.3       5 UNK        -0.1800 
     49 N           4.4367  -14.0719  -41.3628 N.am      5 UNK        -0.5000 
     50 C           3.2073  -14.1429  -40.8368 C.2       4 UNK         0.5000 
     51 O           2.9114  -14.9052  -39.9147 O.2       4 UNK        -0.5000 
     52 CA          2.1146  -13.2397  -41.4435 C.3       4 UNK         0.1400 
     53 CB          1.7683  -12.0946  -40.4796 C.3       4 UNK        -0.1800 
     54 N           2.4155  -12.6649  -42.7587 N.am      4 UNK        -0.5000 
     55 C           2.6602  -13.3325  -43.8929 C.2       3 UNK         0.5000 
     56 O           2.8083  -14.5548  -43.9421 O.2       3 UNK        -0.5000 
     57 CA          2.7116  -12.4833  -45.1832 C.3       3 UNK         0.1400 
     58 CB          3.0311  -13.3237  -46.4319 C.3       3 UNK        -0.1800 
     59 N           1.4588  -11.7550  -45.4150 N.am      3 UNK        -0.5000 
     60 C           1.0756  -10.6411  -44.7710 C.2       2 UNK         0.5000 
     61 O           1.7555  -10.1073  -43.8926 O.2       2 UNK        -0.5000 
     62 CA         -0.2772  -10.0047  -45.1525 C.3       2 UNK         0.1400 
     63 CB         -0.0530   -8.7277  -45.9772 C.3       2 UNK        -0.1800 
     64 N          -1.1605  -10.8956  -45.9039 N.am      2 UNK        -0.5000 
     65 C          -1.8357  -11.9348  -45.3935 C.2       1 UNK         0.5000 
     66 O          -1.8296  -12.2241  -44.1971 O.2       1 UNK        -0.5000 
     67 C          -2.8675  -20.4708  -48.0442 C.2       11 UNK         0.5000 
     68 O          -3.6886  -20.8803  -48.8629 O.2       11 UNK        -0.5000 
     69 N          -3.2304  -19.9535  -46.8610 N.am      12 UNK        -0.5000 
     70 CA         -4.6225  -19.8878  -46.3997 C.3       12 UNK         0.1400 
     71 CB         -4.7211  -19.0361  -45.1263 C.3       12 UNK        -0.1800 
     72 C          -5.2678  -21.2705  -46.1735 C.2       12 UNK         0.5000 
     73 O          -6.4931  -21.3806  -46.2469 O.2       12 UNK        -0.5000 
     74 N          -4.4508  -22.3071  -45.9357 N.am      13 UNK        -0.5000 
     75 CA         -4.8699  -23.7032  -45.8167 C.3       13 UNK         0.1400 
     76 CB         -3.7924  -24.4917  -45.0522 C.3       13 UNK        -0.1800 
     77 C          -5.1847  -24.3106  -47.2002 C.2       13 UNK         0.5000 
     78 O          -4.4286  -25.1433  -47.7051 O.2       13 UNK        -0.5000 
     79 N          -6.2941  -23.8525  -47.7972 N.am      14 UNK        -0.5000 
     80 CA         -6.8711  -24.2933  -49.0718 C.3       14 UNK         0.1400 
     81 CB         -7.4430  -25.7197  -48.9319 C.3       14 UNK        -0.1800 
     82 C          -5.8895  -24.1589  -50.2530 C.2       14 UNK         0.5000 
     83 O          -5.6735  -25.1220  -50.9919 O.2       14 UNK        -0.5000 
     84 N          -5.2733  -22.9736  -50.3816 N.am      15 UNK        -0.5000 
     85 CA         -4.2613  -22.6291  -51.3895 C.3       15 UNK         0.1400 
     86 CB         -4.8740  -22.6755  -52.8061 C.3       15 UNK        -0.1800 
     87 C          -2.9633  -23.4563  -51.2428 C.2       15 UNK         0.5000 
     88 O          -2.2938  -23.7256  -52.2400 O.2       15 UNK        -0.5000 
     89 N          -2.6577  -23.8783  -50.0046 N.am      16 UNK        -0.5000 
     90 CA         -1.6344  -24.8582  -49.6145 C.3       16 UNK         0.1400 
     91 CB         -0.2089  -24.3301  -49.8775 C.3       16 UNK        -0.1800 
     92 C          -1.8842  -26.2270  -50.2788 C.2       16 UNK         0.5000 
     93 O          -0.9700  -26.8060  -50.8653 O.2       16 UNK        -0.5000 
     94 N          -3.1442  -26.6841  -50.2339 N.am      17 UNK        -0.5000 
     95 CA         -3.6839  -27.8329  -50.9730 C.3       17 UNK         0.1400 
     96 CB         -3.1108  -29.1575  -50.4280 C.3       17 UNK        -0.1800 
     97 C          -3.5044  -27.6691  -52.5003 C.2       17 UNK         0.5000 
     98 O          -3.0557  -28.5920  -53.1821 O.2       17 UNK        -0.5000 
     99 N          -3.8342  -26.4644  -52.9881 N.am      18 UNK        -0.5000 
    100 CA        -3.7256  -25.9781  -54.3697 C.3       18 UNK         0.1400 
    101 CB        -4.6167  -26.8095  -55.3157 C.3       18 UNK        -0.1800 
    102 C         -2.2864  -25.8160  -54.9119 C.2       18 UNK         0.5000 
    103 O         -2.1289  -25.5664  -56.1083 O.2       18 UNK        -0.5000 
    104 N         -1.2615  -25.9307  -54.0560 N.am      19 UNK        -0.5000 
    105 CA         0.1447  -25.8126  -54.4472 C.3       19 UNK         0.1400 
    106 CB         1.0167  -26.5907  -53.4507 C.3       19 UNK        -0.1800 
    107 C          0.6384  -24.3567  -54.5532 C.2       19 UNK         0.5000 
    108 O          1.5330  -24.0908  -55.3573 O.2       19 UNK        -0.5000 
    109 N          0.0841  -23.4503  -53.7364 N.am      20 UNK        -0.5000 
    110 CA         0.5428  -22.0621  -53.6058 C.3       20 UNK         0.1400 
    111 CB         0.6772  -21.7216  -52.1132 C.3       20 UNK        -0.1800 
    112 C         -0.3865  -21.0455  -54.2910 C.2       20 UNK         0.5000 
    113 O          0.0167  -19.8927  -54.4537 O.2       20 UNK        -0.5000 
    114 N         -1.5978  -21.4787  -54.6698 N.am      21 UNK        -0.5000 
    115 CA        -2.6981  -20.6718  -55.2138 C.3       21 UNK         0.1400 
    116 CB        -2.2858  -19.9728  -56.5289 C.3       21 UNK        -0.1800 
    117 C         -3.2959  -19.6945  -54.1728 C.2       21 UNK         0.5000 
    118 O         -2.9641  -19.7606  -52.9872 O.2       21 UNK        -0.5000 
    119 N         -4.2153  -18.8395  -54.6312 N.am      22 UNK        -0.5000 
    120 CA        -4.9718  -17.8687  -53.8222 C.3       22 UNK         0.1400 
    121 C         -5.2046  -16.5290  -54.5875 C.2       22 UNK         0.5000 
    122 N         -4.4015  -16.2007  -55.5937 N.am      22 UNK        -0.7600 
    123 O         -6.1162  -15.7671  -54.2799 O.2       22 UNK        -0.5000 
    124 C124       -6.2649  -18.5182  -53.2505 C.3       23 UNK        -0.0398 
    125 S125       -6.9534  -17.6948  -51.7701 S.3       23 UNK        -0.2404 
    126 C126       -6.1743  -18.5985  -50.3944 C.3       23 UNK        -0.0205 
    127 H127       -0.4891  -13.6055  -50.2805 H         1 UNK         0.0600 
    128 H128       -0.2044  -11.8872  -49.9936 H         1 UNK         0.0600 
    129 H129       -1.8429  -12.4734  -50.3044 H         1 UNK         0.0600 
    130 H130       -3.0008  -12.2674  -48.3942 H         1 UNK         0.3000 
    131 H131       -2.4122  -13.8394  -46.1401 H         1 UNK         0.0600 
    132 H132       -4.4282  -11.5513  -46.2168 H         1 UNK         0.0800 
    133 H133       -4.4388  -12.9136  -45.1303 H         1 UNK         0.0800 
    134 H134       -4.3660  -15.3132  -45.9451 H         1 UNK         0.0800 
    135 H135       -6.0419  -15.5665  -46.3588 H         1 UNK         0.0800 
    136 H136       -6.6167  -16.8987  -48.3046 H         1 UNK         0.1150 
    137 H137       -3.5084  -18.3513  -50.8732 H         1 UNK         0.1150 
    138 H138       -2.5825  -15.5472  -47.7732 H         1 UNK         0.1150 
    139 H139       -1.3278  -17.2423  -50.8382 H         1 UNK         0.0800 
    140 H140       -1.0526  -15.9114  -49.7438 H         1 UNK         0.0800 
    141 H141        0.1562  -20.0341  -49.7426 H         1 UNK         0.0800 
    142 H142       -1.4392  -19.5798  -50.2440 H         1 UNK         0.0800 
    143 H143       -1.3331  -21.6064  -48.8825 H         1 UNK         0.0600 
    144 H144        0.0143  -20.0352  -46.8453 H         1 UNK         0.3000 
    145 H145        0.0828  -22.9209  -44.6264 H         1 UNK         0.0600 
    146 H146        2.4596  -22.2016  -44.6264 H         1 UNK         0.0600 
    147 H147        2.0468  -23.0158  -46.1286 H         1 UNK         0.0600 
    148 H148        2.2008  -21.2661  -46.0957 H         1 UNK         0.0600 
    149 H149        0.8908  -20.2209  -44.1943 H         1 UNK         0.3000 
    150 H150       -2.1576  -19.0616  -42.7632 H         1 UNK         0.0600 
    151 H151       -1.0943  -20.3202  -40.9040 H         1 UNK         0.0600 
    152 H152       -0.6541  -18.6210  -40.8336 H         1 UNK         0.0600 
    153 H153        0.5017  -19.8098  -41.4339 H         1 UNK         0.0600 
    154 H154        0.4575  -17.9168  -43.0732 H         1 UNK         0.3000 
    155 H155       -0.1312  -16.4404  -46.2717 H         1 UNK         0.0600 
    156 H156       -1.3345  -15.0751  -44.4794 H         1 UNK         0.0600 
    157 H157        0.1704  -14.3809  -45.0521 H         1 UNK         0.0600 
    158 H158        0.1082  -15.1994  -43.4885 H         1 UNK         0.0600 
    159 H159        2.0750  -16.1430  -44.5575 H         1 UNK         0.3000 
    160 H160        3.9441  -19.0414  -45.6075 H         1 UNK         0.0600 
    161 H161        5.5645  -17.2468  -45.9785 H         1 UNK         0.0600 
    162 H162        4.3329  -16.0114  -45.7428 H         1 UNK         0.0600 
    163 H163        4.2672  -17.0658  -47.1513 H         1 UNK         0.0600 
    164 H164        4.6795  -17.2588  -43.6103 H         1 UNK         0.3000 
    165 H165        3.0743  -18.6167  -40.8061 H         1 UNK         0.0600 
    166 H166        5.9146  -19.3419  -41.6914 H         1 UNK         0.0600 
    167 H167        5.3202  -19.3399  -40.0308 H         1 UNK         0.0600 
    168 H168        4.6612  -20.4711  -41.2019 H         1 UNK         0.0600 
    169 H169        3.7521  -16.5606  -40.4987 H         1 UNK         0.3000 
    170 H170        5.6228  -15.0270  -39.9342 H         1 UNK         0.0600 
    171 H171        7.7406  -14.8426  -41.2365 H         1 UNK         0.0600 
    172 H172        6.8720  -14.0984  -42.5745 H         1 UNK         0.0600 
    173 H173        6.9888  -13.2705  -41.0220 H         1 UNK         0.0600 
    174 H174        4.5712  -13.4442  -42.1412 H         1 UNK         0.3000 
    175 H175        1.2258  -13.8622  -41.5626 H         1 UNK         0.0600 
    176 H176        2.6105  -11.4142  -40.3475 H         1 UNK         0.0600 
    177 H177        0.9215  -11.5135  -40.8457 H         1 UNK         0.0600 
    178 H178        1.4961  -12.4768  -39.4948 H         1 UNK         0.0600 
    179 H179        2.2930  -11.6602  -42.8446 H         1 UNK         0.3000 
    180 H180        3.5179  -11.7573  -45.0611 H         1 UNK         0.0600 
    181 H181        2.3058  -14.1254  -46.5786 H         1 UNK         0.0600 
    182 H182        4.0180  -13.7786  -46.3506 H         1 UNK         0.0600 
    183 H183        3.0339  -12.7091  -47.3322 H         1 UNK         0.0600 
    184 H184        0.8356  -12.1565  -46.1064 H         1 UNK         0.3000 
    185 H185       -0.7788   -9.7268  -44.2231 H         1 UNK         0.0600 
    186 H186        0.5738   -8.0170  -45.4367 H         1 UNK         0.0600 
    187 H187        0.4389   -8.9431  -46.9266 H         1 UNK         0.0600 
    188 H188       -0.9966   -8.2261  -46.1931 H         1 UNK         0.0600 
    189 H189       -1.2219  -10.7371  -46.8992 H         1 UNK         0.3000 
    190 H190       -2.5280  -19.5420  -46.2532 H         1 UNK         0.3000 
    191 H191       -5.2051  -19.3917  -47.1775 H         1 UNK         0.0600 
    192 H192       -4.0938  -19.4342  -44.3286 H         1 UNK         0.0600 
    193 H193       -4.4162  -18.0077  -45.3184 H         1 UNK         0.0600 
    194 H194       -5.7457  -19.0012  -44.7543 H         1 UNK         0.0600 
    195 H195       -3.4547  -22.1347  -45.9019 H         1 UNK         0.3000 
    196 H196       -5.7851  -23.7439  -45.2224 H         1 UNK         0.0600 
    197 H197       -3.5917  -24.0444  -44.0784 H         1 UNK         0.0600 
    198 H198       -2.8517  -24.5338  -45.5999 H         1 UNK         0.0600 
    199 H199       -4.1138  -25.5194  -44.8798 H         1 UNK         0.0600 
    200 H200       -6.7891  -23.1036  -47.3230 H         1 UNK         0.3000 
    201 H201       -7.7038  -23.6222  -49.2869 H         1 UNK         0.0600 
    202 H202       -7.9615  -26.0241  -49.8419 H         1 UNK         0.0600 
    203 H203       -8.1624  -25.7774  -48.1151 H         1 UNK         0.0600 
    204 H204       -6.6597  -26.4542  -48.7409 H         1 UNK         0.0600 
    205 H205       -5.4450  -22.2574  -49.6878 H         1 UNK         0.3000 
    206 H206       -3.9667  -21.5947  -51.2197 H         1 UNK         0.0600 
    207 H207       -5.6285  -21.8993  -52.9252 H         1 UNK         0.0600 
    208 H208       -5.3537  -23.6266  -53.0266 H         1 UNK         0.0600 
    209 H209       -4.1199  -22.5127  -53.5713 H         1 UNK         0.0600 
    210 H210       -3.2903  -23.6127  -49.2622 H         1 UNK         0.3000 
    211 H211       -1.7409  -25.0086  -48.5395 H         1 UNK         0.0600 
    212 H212       -0.0428  -23.3586  -49.4172 H         1 UNK         0.0600 
    213 H213        0.5355  -25.0096  -49.4615 H         1 UNK         0.0600 
    214 H214       -0.0025  -24.2432  -50.9429 H         1 UNK         0.0600 
    215 H215       -3.8272  -26.1289  -49.7316 H         1 UNK         0.3000 
    216 H216       -4.7593  -27.8386  -50.7892 H         1 UNK         0.0600 
    217 H217       -3.5993  -30.0136  -50.8945 H         1 UNK         0.0600 
    218 H218       -2.0412  -29.2488  -50.6192 H         1 UNK         0.0600 
    219 H219       -3.2676  -29.2409  -49.3526 H         1 UNK         0.0600 
    220 H220       -4.2229  -25.8003  -52.3263 H         1 UNK         0.3000 
    221 H221       -4.1325  -24.9691  -54.3605 H         1 UNK         0.0600 
    222 H222       -4.2322  -27.8204  -55.4523 H         1 UNK         0.0600 
    223 H223       -5.6346  -26.8853  -54.9331 H         1 UNK         0.0600 
    224 H224       -4.6781  -26.3499  -56.3028 H         1 UNK         0.0600 
    225 H225       -1.4538  -26.1099  -53.0788 H         1 UNK         0.3000 
    226 H226        0.2736  -26.2778  -55.4269 H         1 UNK         0.0600 
    227 H227        0.6733  -27.6196  -53.3406 H         1 UNK         0.0600 
    228 H228        2.0535  -26.6266  -53.7872 H         1 UNK         0.0600 
    229 H229        1.0120  -26.1268  -52.4641 H         1 UNK         0.0600 
    230 H230       -0.6885  -23.7294  -53.1343 H         1 UNK         0.3000 
    231 H231        1.5293  -21.9454  -54.0589 H         1 UNK         0.0600 
    232 H232        1.0374  -20.7012  -51.9766 H         1 UNK         0.0600 
    233 H233        1.3909  -22.3816  -51.6206 H         1 UNK         0.0600 
    234 H234       -0.2790  -21.8041  -51.5956 H         1 UNK         0.0600 
    235 H235       -1.8249  -22.4377  -54.4496 H         1 UNK         0.3000 
    236 H236       -3.4890  -21.3791  -55.4641 H         1 UNK         0.0600 
    237 H237       -1.7733  -20.6645  -57.1978 H         1 UNK         0.0600 
    238 H238       -3.1554  -19.5973  -57.0685 H         1 UNK         0.0600 
    239 H239       -1.6220  -19.1261  -56.3523 H         1 UNK         0.0600 
    240 H240       -4.4500  -18.8506  -55.6138 H         1 UNK         0.3000 
    241 H241       -4.3437  -17.5831  -52.9776 H         1 UNK         0.0600 
    242 H242       -3.6092  -16.7724  -55.8392 H         1 UNK         0.3800 
    243 H243       -4.5596  -15.3336  -56.0837 H         1 UNK         0.3800 
    244 H244       -7.0396  -18.5471  -54.0181 H         1 UNK         0.0800 
    245 H245       -6.0805  -19.5609  -52.9941 H         1 UNK         0.0800 
    246 H246       -5.6886  -19.5101  -50.7458 H         1 UNK         0.0800 
    247 H247       -6.9513  -18.9216  -49.7001 H         1 UNK         0.0800 
@<TRIPOS>BOND
     1    1    2 1    
     2    1  127 1    
     3    1  128 1    
     4    1  129 1    
     5    2    3 2    
     6    2    4 am   BACKBONE|DICT|INTERRES
     7    4    5 1    
     8    4  130 1    
     9    5    6 1    
    10    5   65 1    
    11    5  131 1    
    12    6    7 1    
    13    6  132 1    
    14    6  133 1    
    15    7    8 1    
    16    8    9 1    
    17    8  134 1    
    18    8  135 1    
    19    9   10 ar   
    20    9   14 ar   
    21   10   11 ar   
    22   10  136 1    
    23   11   12 ar   
    24   11  126 1    
    25   12   13 ar   
    26   12  137 1    
    27   13   14 ar   
    28   13   15 1    
    29   14  138 1    
    30   15   16 1    
    31   15  139 1    
    32   15  140 1    
    33   16   17 1    
    34   17   18 1    
    35   17  141 1    
    36   17  142 1    
    37   18   19 1    
    38   18   67 1    
    39   18  143 1    
    40   19   20 am   BACKBONE|DICT|INTERRES
    41   19  144 1    
    42   20   21 2    
    43   20   22 1    
    44   22   23 1    
    45   22   24 1    
    46   22  145 1    
    47   23  146 1    
    48   23  147 1    
    49   23  148 1    
    50   24   25 am   BACKBONE|DICT|INTERRES
    51   24  149 1    
    52   25   26 2    
    53   25   27 1    
    54   27   28 1    
    55   27   29 1    
    56   27  150 1    
    57   28  151 1    
    58   28  152 1    
    59   28  153 1    
    60   29   30 am   BACKBONE|DICT|INTERRES
    61   29  154 1    
    62   30   31 2    
    63   30   32 1    
    64   32   33 1    
    65   32   34 1    
    66   32  155 1    
    67   33  156 1    
    68   33  157 1    
    69   33  158 1    
    70   34   35 am   BACKBONE|DICT|INTERRES
    71   34  159 1    
    72   35   36 2    
    73   35   37 1    
    74   37   38 1    
    75   37   39 1    
    76   37  160 1    
    77   38  161 1    
    78   38  162 1    
    79   38  163 1    
    80   39   40 am   BACKBONE|DICT|INTERRES
    81   39  164 1    
    82   40   41 2    
    83   40   42 1    
    84   42   43 1    
    85   42   44 1    
    86   42  165 1    
    87   43  166 1    
    88   43  167 1    
    89   43  168 1    
    90   44   45 am   BACKBONE|DICT|INTERRES
    91   44  169 1    
    92   45   46 2    
    93   45   47 1    
    94   47   48 1    
    95   47   49 1    
    96   47  170 1    
    97   48  171 1    
    98   48  172 1    
    99   48  173 1    
   100   49   50 am   BACKBONE|DICT|INTERRES
   101   49  174 1    
   102   50   51 2    
   103   50   52 1    
   104   52   53 1    
   105   52   54 1    
   106   52  175 1    
   107   53  176 1    
   108   53  177 1    
   109   53  178 1    
   110   54   55 am   BACKBONE|DICT|INTERRES
   111   54  179 1    
   112   55   56 2    
   113   55   57 1    
   114   57   58 1    
   115   57   59 1    
   116   57  180 1    
   117   58  181 1    
   118   58  182 1    
   119   58  183 1    
   120   59   60 am   BACKBONE|DICT|INTERRES
   121   59  184 1    
   122   60   61 2    
   123   60   62 1    
   124   62   63 1    
   125   62   64 1    
   126   62  185 1    
   127   63  186 1    
   128   63  187 1    
   129   63  188 1    
   130   64   65 am   BACKBONE|DICT|INTERRES
   131   64  189 1    
   132   65   66 2    
   133   67   68 2    
   134   67   69 am   BACKBONE|DICT|INTERRES
   135   69   70 1    
   136   69  190 1    
   137   70   71 1    
   138   70   72 1    
   139   70  191 1    
   140   71  192 1    
   141   71  193 1    
   142   71  194 1    
   143   72   73 2    
   144   72   74 am   BACKBONE|DICT|INTERRES
   145   74   75 1    
   146   74  195 1    
   147   75   76 1    
   148   75   77 1    
   149   75  196 1    
   150   76  197 1    
   151   76  198 1    
   152   76  199 1    
   153   77   78 2    
   154   77   79 am   BACKBONE|DICT|INTERRES
   155   79   80 1    
   156   79  200 1    
   157   80   81 1    
   158   80   82 1    
   159   80  201 1    
   160   81  202 1    
   161   81  203 1    
   162   81  204 1    
   163   82   83 2    
   164   82   84 am   BACKBONE|DICT|INTERRES
   165   84   85 1    
   166   84  205 1    
   167   85   86 1    
   168   85   87 1    
   169   85  206 1    
   170   86  207 1    
   171   86  208 1    
   172   86  209 1    
   173   87   88 2    
   174   87   89 am   BACKBONE|DICT|INTERRES
   175   89   90 1    
   176   89  210 1    
   177   90   91 1    
   178   90   92 1    
   179   90  211 1    
   180   91  212 1    
   181   91  213 1    
   182   91  214 1    
   183   92   93 2    
   184   92   94 am   BACKBONE|DICT|INTERRES
   185   94   95 1    
   186   94  215 1    
   187   95   96 1    
   188   95   97 1    
   189   95  216 1    
   190   96  217 1    
   191   96  218 1    
   192   96  219 1    
   193   97   98 2    
   194   97   99 am   BACKBONE|DICT|INTERRES
   195   99  100 1    
   196   99  220 1    
   197  100  101 1    
   198  100  102 1    
   199  100  221 1    
   200  101  222 1    
   201  101  223 1    
   202  101  224 1    
   203  102  103 2    
   204  102  104 am   BACKBONE|DICT|INTERRES
   205  104  105 1    
   206  104  225 1    
   207  105  106 1    
   208  105  107 1    
   209  105  226 1    
   210  106  227 1    
   211  106  228 1    
   212  106  229 1    
   213  107  108 2    
   214  107  109 am   BACKBONE|DICT|INTERRES
   215  109  110 1    
   216  109  230 1    
   217  110  111 1    
   218  110  112 1    
   219  110  231 1    
   220  111  232 1    
   221  111  233 1    
   222  111  234 1    
   223  112  113 2    
   224  112  114 am   BACKBONE|DICT|INTERRES
   225  114  115 1    
   226  114  235 1    
   227  115  116 1    
   228  115  117 1    
   229  115  236 1    
   230  116  237 1    
   231  116  238 1    
   232  116  239 1    
   233  117  118 2    
   234  117  119 am   BACKBONE|DICT|INTERRES
   235  119  120 1    
   236  119  240 1    
   237  120  121 1    
   238  120  124 1    
   239  120  241 1    
   240  121  122 am   BACKBONE|DICT|INTERRES
   241  121  123 2    
   242  122  242 1    
   243  122  243 1    
   244  124  125 1    
   245  124  244 1    
   246  124  245 1    
   247  125  126 1    
   248  126  246 1    
   249  126  247 1    
@<TRIPOS>SUBSTRUCTURE
     1 UNK         1 GROUP             0       ****    0 ROOT    
