@<TRIPOS>MOLECULE
3R540
247   249    1
SMALL
USER_CHARGES


@<TRIPOS>ATOM
      1 CA         -0.2451  -15.5829  -49.3235 C.3       0 UNK        -0.1800 
      2 C           0.9612  -14.6860  -49.0921 C.2       0 UNK         0.5000 
      3 O           0.7968  -13.4864  -48.8681 O.2       0 UNK        -0.5000 
      4 N           2.1678  -15.2615  -49.1501 N.am      1 UNK        -0.5000 
      5 CA          3.4405  -14.5515  -48.9651 C.3       1 UNK         0.1400 
      6 C6          4.5282  -15.0346  -49.9553 C.3       23 UNK        -0.0398 
      7 S7          4.1020  -14.6315  -51.6848 S.3       23 UNK        -0.2404 
      8 C8          4.0833  -16.2700  -52.4739 C.3       23 UNK        -0.0205 
      9 C9          2.8519  -17.0796  -52.0979 C.ar      23 UNK        -0.0193 
     10 C10         1.6398  -16.8645  -52.7607 C.ar      23 UNK        -0.1150 
     11 C11         0.5170  -17.6418  -52.4603 C.ar      23 UNK        -0.0193 
     12 C12         0.6158  -18.6385  -51.4836 C.ar      23 UNK        -0.1150 
     13 C13         1.8153  -18.8470  -50.7984 C.ar      23 UNK        -0.0193 
     14 C14         2.9313  -18.0680  -51.1136 C.ar      23 UNK        -0.1150 
     15 C15         1.9185  -19.9191  -49.7269 C.3       23 UNK        -0.0205 
     16 S16         1.3996  -19.2830  -48.1040 S.3       23 UNK        -0.2404 
     17 C17        -0.3262  -19.8753  -48.0170 C.3       23 UNK        -0.0398 
     18 CA         -0.4429  -21.2743  -47.3649 C.3       11 UNK         0.1400 
     19 N           0.2473  -21.3828  -46.0759 N.am      11 UNK        -0.5000 
     20 C           0.6571  -22.5477  -45.5580 C.2       10 UNK         0.5000 
     21 O           0.4257  -23.6425  -46.0749 O.2       10 UNK        -0.5000 
     22 CA          1.4384  -22.4795  -44.2369 C.3       10 UNK         0.1400 
     23 CB          2.7654  -21.7241  -44.4202 C.3       10 UNK        -0.1800 
     24 N           0.6899  -21.8767  -43.1343 N.am      10 UNK        -0.5000 
     25 C          -0.4633  -22.3345  -42.6246 C.2       9 UNK         0.5000 
     26 O          -1.1196  -23.2479  -43.1203 O.2       9 UNK        -0.5000 
     27 CA         -0.9646  -21.6567  -41.3363 C.3       9 UNK         0.1400 
     28 CB         -0.3257  -22.3096  -40.1012 C.3       9 UNK        -0.1800 
     29 N          -0.6648  -20.2258  -41.3385 N.am      9 UNK        -0.5000 
     30 C          -1.4054  -19.3235  -41.9917 C.2       8 UNK         0.5000 
     31 O          -2.5098  -19.5815  -42.4755 O.2       8 UNK        -0.5000 
     32 CA         -0.8214  -17.9012  -42.1377 C.3       8 UNK         0.1400 
     33 CB          0.7152  -17.8363  -41.9955 C.3       8 UNK        -0.1800 
     34 N          -1.2358  -17.2685  -43.3913 N.am      8 UNK        -0.5000 
     35 C          -1.0749  -17.7486  -44.6346 C.2       7 UNK         0.5000 
     36 O          -0.4530  -18.7796  -44.8995 O.2       7 UNK        -0.5000 
     37 CA         -1.7375  -16.9517  -45.7757 C.3       7 UNK         0.1400 
     38 CB         -3.0954  -17.5713  -46.1451 C.3       7 UNK        -0.1800 
     39 N          -1.9298  -15.5406  -45.4379 N.am      7 UNK        -0.5000 
     40 C          -0.9498  -14.6297  -45.4763 C.2       6 UNK         0.5000 
     41 O           0.1708  -14.8679  -45.9205 O.2       6 UNK        -0.5000 
     42 CA         -1.2609  -13.2225  -44.9266 C.3       6 UNK         0.1400 
     43 CB         -2.7345  -12.7998  -45.1136 C.3       6 UNK        -0.1800 
     44 N          -0.8437  -13.0702  -43.5273 N.am      6 UNK        -0.5000 
     45 C          -1.2544  -13.7826  -42.4663 C.2       5 UNK         0.5000 
     46 O          -2.1164  -14.6614  -42.5279 O.2       5 UNK        -0.5000 
     47 CA         -0.5958  -13.4529  -41.1120 C.3       5 UNK         0.1400 
     48 CB         -0.6169  -14.6290  -40.1169 C.3       5 UNK        -0.1800 
     49 N           0.7773  -12.9773  -41.2825 N.am      5 UNK        -0.5000 
     50 C           1.3774  -12.0729  -40.4957 C.2       4 UNK         0.5000 
     51 O           0.8352  -11.5530  -39.5193 O.2       4 UNK        -0.5000 
     52 CA          2.8218  -11.6609  -40.8566 C.3       4 UNK         0.1400 
     53 CB          3.8318  -12.4713  -40.0299 C.3       4 UNK        -0.1800 
     54 N           3.1428  -11.8132  -42.2771 N.am      4 UNK        -0.5000 
     55 C           2.5326  -11.1662  -43.2779 C.2       3 UNK         0.5000 
     56 O           1.6934  -10.2819  -43.1040 O.2       3 UNK        -0.5000 
     57 CA          2.8740  -11.5937  -44.7179 C.3       3 UNK         0.1400 
     58 CB          3.8404  -10.5854  -45.3579 C.3       3 UNK        -0.1800 
     59 N           3.4180  -12.9436  -44.9083 N.am      3 UNK        -0.5000 
     60 C           2.9328  -14.1117  -44.4616 C.2       2 UNK         0.5000 
     61 O           2.0793  -14.2129  -43.5781 O.2       2 UNK        -0.5000 
     62 CA          3.4832  -15.3687  -45.1708 C.3       2 UNK         0.1400 
     63 CB          2.8958  -16.6787  -44.6174 C.3       2 UNK        -0.1800 
     64 N           3.2139  -15.3022  -46.6106 N.am      2 UNK        -0.5000 
     65 C           3.9417  -14.6187  -47.5056 C.2       1 UNK         0.5000 
     66 O           4.9710  -14.0146  -47.1981 O.2       1 UNK        -0.5000 
     67 C          -1.9113  -21.7237  -47.2558 C.2       11 UNK         0.5000 
     68 O          -2.4854  -22.1258  -48.2656 O.2       11 UNK        -0.5000 
     69 N          -2.4772  -21.6933  -46.0402 N.am      12 UNK        -0.5000 
     70 CA         -3.7894  -22.2522  -45.7262 C.3       12 UNK         0.1400 
     71 CB         -4.2568  -21.7483  -44.3539 C.3       12 UNK        -0.1800 
     72 C          -3.7860  -23.7897  -45.7885 C.2       12 UNK         0.5000 
     73 O          -4.6501  -24.3651  -46.4492 O.2       12 UNK        -0.5000 
     74 N          -2.7966  -24.4264  -45.1431 N.am      13 UNK        -0.5000 
     75 CA         -2.6101  -25.8804  -45.1321 C.3       13 UNK         0.1400 
     76 CB         -1.5372  -26.2589  -44.1001 C.3       13 UNK        -0.1800 
     77 C          -2.2509  -26.4484  -46.5161 C.2       13 UNK         0.5000 
     78 O          -2.7621  -27.5038  -46.8917 O.2       13 UNK        -0.5000 
     79 N          -1.4080  -25.7219  -47.2630 N.am      14 UNK        -0.5000 
     80 CA         -1.0490  -26.0387  -48.6479 C.3       14 UNK         0.1400 
     81 CB          0.2427  -25.2871  -49.0062 C.3       14 UNK        -0.1800 
     82 C          -2.1582  -25.6906  -49.6618 C.2       14 UNK         0.5000 
     83 O          -2.0499  -26.0757  -50.8271 O.2       14 UNK        -0.5000 
     84 N          -3.1642  -24.9155  -49.2271 N.am      15 UNK        -0.5000 
     85 CA         -4.2657  -24.3412  -50.0085 C.3       15 UNK         0.1400 
     86 CB         -5.2469  -25.4450  -50.4504 C.3       15 UNK        -0.1800 
     87 C          -3.7848  -23.4760  -51.1925 C.2       15 UNK         0.5000 
     88 O          -4.4884  -23.3702  -52.1973 O.2       15 UNK        -0.5000 
     89 N          -2.5891  -22.8840  -51.0590 N.am      16 UNK        -0.5000 
     90 CA         -1.8205  -22.1740  -52.0871 C.3       16 UNK         0.1400 
     91 CB         -2.4788  -20.8216  -52.4180 C.3       16 UNK        -0.1800 
     92 C          -1.5316  -23.0356  -53.3380 C.2       16 UNK         0.5000 
     93 O          -1.5086  -22.5132  -54.4522 O.2       16 UNK        -0.5000 
     94 N          -1.3272  -24.3456  -53.1228 N.am      17 UNK        -0.5000 
     95 CA         -1.1746  -25.3950  -54.1357 C.3       17 UNK         0.1400 
     96 CB          0.0945  -25.1820  -54.9882 C.3       17 UNK        -0.1800 
     97 C          -2.4621  -25.5658  -54.9681 C.2       17 UNK         0.5000 
     98 O          -2.4144  -25.5776  -56.1994 O.2       17 UNK        -0.5000 
     99 N          -3.5898  -25.6882  -54.2515 N.am      18 UNK        -0.5000 
    100 CA        -4.9613  -25.8120  -54.7555 C.3       18 UNK         0.1400 
    101 CB        -5.1472  -27.1208  -55.5521 C.3       18 UNK        -0.1800 
    102 C         -5.4243  -24.5544  -55.5208 C.2       18 UNK         0.5000 
    103 O         -5.9344  -24.6523  -56.6386 O.2       18 UNK        -0.5000 
    104 N         -5.2474  -23.3930  -54.8819 N.am      19 UNK        -0.5000 
    105 CA        -5.6744  -22.0770  -55.3569 C.3       19 UNK         0.1400 
    106 CB        -4.4570  -21.2927  -55.8776 C.3       19 UNK        -0.1800 
    107 C         -6.4427  -21.3312  -54.2484 C.2       19 UNK         0.5000 
    108 O         -6.3467  -20.1072  -54.1439 O.2       19 UNK        -0.5000 
    109 N         -7.1843  -22.0912  -53.4257 N.am      20 UNK        -0.5000 
    110 CA        -8.0913  -21.6417  -52.3597 C.3       20 UNK         0.1400 
    111 CB        -9.3349  -20.9684  -52.9767 C.3       20 UNK        -0.1800 
    112 C         -7.4202  -20.7651  -51.2786 C.2       20 UNK         0.5000 
    113 O         -8.0676  -19.8812  -50.7159 O.2       20 UNK        -0.5000 
    114 N         -6.1265  -21.0165  -51.0267 N.am      21 UNK        -0.5000 
    115 CA        -5.2380  -20.2771  -50.1171 C.3       21 UNK         0.1400 
    116 CB        -5.7299  -20.3620  -48.6577 C.3       21 UNK        -0.1800 
    117 C         -4.9393  -18.8270  -50.5635 C.2       21 UNK         0.5000 
    118 O         -4.4555  -18.0421  -49.7481 O.2       21 UNK        -0.5000 
    119 N         -5.2195  -18.5151  -51.8389 N.am      22 UNK        -0.5000 
    120 CA        -4.9866  -17.2759  -52.6111 C.3       22 UNK         0.1400 
    121 C         -5.4169  -15.9002  -52.0113 C.2       22 UNK         0.5000 
    122 N         -5.7275  -15.7848  -50.7299 N.am      22 UNK        -0.7600 
    123 O         -5.5110  -14.9189  -52.7441 O.2       22 UNK        -0.5000 
    124 C124       -3.5820  -17.2291  -53.2730 C.3       23 UNK        -0.0398 
    125 S125       -2.1850  -17.0817  -52.1097 S.3       23 UNK        -0.2404 
    126 C126       -0.7863  -17.4344  -53.2203 C.3       23 UNK        -0.0205 
    127 H127       -0.9820  -15.4410  -48.5337 H         1 UNK         0.0600 
    128 H128       -0.7129  -15.3274  -50.2731 H         1 UNK         0.0600 
    129 H129        0.0288  -16.6378  -49.3484 H         1 UNK         0.0600 
    130 H130        2.2375  -16.2463  -49.3664 H         1 UNK         0.3000 
    131 H131        3.2873  -13.4886  -49.1636 H         1 UNK         0.0600 
    132 H132        5.4830  -14.5477  -49.7486 H         1 UNK         0.0800 
    133 H133        4.7074  -16.1041  -49.8418 H         1 UNK         0.0800 
    134 H134        4.9963  -16.8110  -52.2201 H         1 UNK         0.0800 
    135 H135        4.1065  -16.1349  -53.5562 H         1 UNK         0.0800 
    136 H136        1.5791  -16.1008  -53.5234 H         1 UNK         0.1150 
    137 H137       -0.2467  -19.2456  -51.2534 H         1 UNK         0.1150 
    138 H138        3.8660  -18.2412  -50.5991 H         1 UNK         0.1150 
    139 H139        1.3290  -20.7940  -50.0046 H         1 UNK         0.0800 
    140 H140        2.9497  -20.2667  -49.6486 H         1 UNK         0.0800 
    141 H141       -0.7581  -19.8818  -49.0188 H         1 UNK         0.0800 
    142 H142       -0.9036  -19.1454  -47.4562 H         1 UNK         0.0800 
    143 H143        0.0390  -21.9737  -48.0508 H         1 UNK         0.0600 
    144 H144        0.4028  -20.5123  -45.5767 H         1 UNK         0.3000 
    145 H145        1.6738  -23.5058  -43.9478 H         1 UNK         0.0600 
    146 H146        3.3845  -21.7932  -43.5257 H         1 UNK         0.0600 
    147 H147        3.3428  -22.1423  -45.2459 H         1 UNK         0.0600 
    148 H148        2.6049  -20.6665  -44.6349 H         1 UNK         0.0600 
    149 H149        1.1322  -21.0949  -42.6772 H         1 UNK         0.3000 
    150 H150       -2.0449  -21.8060  -41.2744 H         1 UNK         0.0600 
    151 H151       -0.5451  -23.3777  -40.0687 H         1 UNK         0.0600 
    152 H152       -0.7118  -21.8714  -39.1807 H         1 UNK         0.0600 
    153 H153        0.7592  -22.1971  -40.0977 H         1 UNK         0.0600 
    154 H154        0.2100  -19.9371  -40.9260 H         1 UNK         0.3000 
    155 H155       -1.2637  -17.3087  -41.3368 H         1 UNK         0.0600 
    156 H156        1.2175  -18.4900  -42.7095 H         1 UNK         0.0600 
    157 H157        1.0380  -18.1195  -40.9934 H         1 UNK         0.0600 
    158 H158        1.0763  -16.8222  -42.1683 H         1 UNK         0.0600 
    159 H159       -1.7446  -16.3969  -43.2771 H         1 UNK         0.3000 
    160 H160       -1.0824  -17.0177  -46.6459 H         1 UNK         0.0600 
    161 H161       -3.8103  -17.4902  -45.3255 H         1 UNK         0.0600 
    162 H162       -2.9966  -18.6309  -46.3839 H         1 UNK         0.0600 
    163 H163       -3.5267  -17.0828  -47.0193 H         1 UNK         0.0600 
    164 H164       -2.8175  -15.2794  -45.0338 H         1 UNK         0.3000 
    165 H165       -0.6487  -12.5294  -45.5059 H         1 UNK         0.0600 
    166 H166       -2.8736  -11.7530  -44.8436 H         1 UNK         0.0600 
    167 H167       -3.0414  -12.9066  -46.1549 H         1 UNK         0.0600 
    168 H168       -3.4212  -13.3884  -44.5052 H         1 UNK         0.0600 
    169 H169       -0.1231  -12.3817  -43.3655 H         1 UNK         0.3000 
    170 H170       -1.2021  -12.6480  -40.6917 H         1 UNK         0.0600 
    171 H171       -1.6240  -15.0257  -39.9847 H         1 UNK         0.0600 
    172 H172        0.0240  -15.4432  -40.4518 H         1 UNK         0.0600 
    173 H173       -0.2657  -14.3162  -39.1336 H         1 UNK         0.0600 
    174 H174        1.2952  -13.3818  -42.0616 H         1 UNK         0.3000 
    175 H175        2.9355  -10.6057  -40.6002 H         1 UNK         0.0600 
    176 H176        3.7795  -13.5354  -40.2640 H         1 UNK         0.0600 
    177 H177        4.8526  -12.1355  -40.2133 H         1 UNK         0.0600 
    178 H178        3.6413  -12.3602  -38.9616 H         1 UNK         0.0600 
    179 H179        3.7959  -12.5440  -42.5184 H         1 UNK         0.3000 
    180 H180        1.9376  -11.5617  -45.2781 H         1 UNK         0.0600 
    181 H181        4.8187  -10.6087  -44.8763 H         1 UNK         0.0600 
    182 H182        3.4583   -9.5667  -45.2776 H         1 UNK         0.0600 
    183 H183        3.9832  -10.7931  -46.4186 H         1 UNK         0.0600 
    184 H184        4.1321  -13.0175  -45.6249 H         1 UNK         0.3000 
    185 H185        4.5620  -15.3943  -45.0049 H         1 UNK         0.0600 
    186 H186        3.1290  -16.7912  -43.5584 H         1 UNK         0.0600 
    187 H187        1.8111  -16.7110  -44.7231 H         1 UNK         0.0600 
    188 H188        3.3056  -17.5466  -45.1342 H         1 UNK         0.0600 
    189 H189        2.3217  -15.6740  -46.9081 H         1 UNK         0.3000 
    190 H190       -1.9259  -21.3544  -45.2646 H         1 UNK         0.3000 
    191 H191       -4.4997  -21.8928  -46.4718 H         1 UNK         0.0600 
    192 H192       -3.5753  -22.0460  -43.5569 H         1 UNK         0.0600 
    193 H193       -5.2429  -22.1438  -44.1078 H         1 UNK         0.0600 
    194 H194       -4.3304  -20.6606  -44.3405 H         1 UNK         0.0600 
    195 H195       -2.1352  -23.8894  -44.5873 H         1 UNK         0.3000 
    196 H196       -3.5529  -26.3359  -44.8223 H         1 UNK         0.0600 
    197 H197       -1.3805  -27.3380  -44.0744 H         1 UNK         0.0600 
    198 H198       -1.8303  -25.9497  -43.0968 H         1 UNK         0.0600 
    199 H199       -0.5782  -25.7914  -44.3277 H         1 UNK         0.0600 
    200 H200       -0.9735  -24.9005  -46.8528 H         1 UNK         0.3000 
    201 H201       -0.8555  -27.1105  -48.7257 H         1 UNK         0.0600 
    202 H202        1.0505  -25.5416  -48.3196 H         1 UNK         0.0600 
    203 H203        0.1019  -24.2068  -48.9701 H         1 UNK         0.0600 
    204 H204        0.5800  -25.5413  -50.0119 H         1 UNK         0.0600 
    205 H205       -3.1506  -24.6404  -48.2541 H         1 UNK         0.3000 
    206 H206       -4.7991  -23.6668  -49.3372 H         1 UNK         0.0600 
    207 H207       -6.1329  -25.0189  -50.9226 H         1 UNK         0.0600 
    208 H208       -5.5873  -26.0302  -49.5961 H         1 UNK         0.0600 
    209 H209       -4.7913  -26.1308  -51.1652 H         1 UNK         0.0600 
    210 H210       -2.1623  -22.9391  -50.1413 H         1 UNK         0.3000 
    211 H211       -0.8442  -21.9606  -51.6495 H         1 UNK         0.0600 
    212 H212       -1.9382  -20.3015  -53.2068 H         1 UNK         0.0600 
    213 H213       -2.4740  -20.1667  -51.5483 H         1 UNK         0.0600 
    214 H214       -3.5094  -20.9355  -52.7509 H         1 UNK         0.0600 
    215 H215       -1.4142  -24.6915  -52.1731 H         1 UNK         0.3000 
    216 H216       -1.0416  -26.3286  -53.5869 H         1 UNK         0.0600 
    217 H217        0.2692  -26.0373  -55.6418 H         1 UNK         0.0600 
    218 H218        0.9772  -25.0690  -54.3590 H         1 UNK         0.0600 
    219 H219        0.0198  -24.2996  -55.6239 H         1 UNK         0.0600 
    220 H220       -3.5045  -25.6304  -53.2464 H         1 UNK         0.3000 
    221 H221       -5.6003  -25.8786  -53.8736 H         1 UNK         0.0600 
    222 H222       -4.5775  -27.1189  -56.4816 H         1 UNK         0.0600 
    223 H223       -4.8330  -27.9856  -54.9678 H         1 UNK         0.0600 
    224 H224       -6.1952  -27.2705  -55.8140 H         1 UNK         0.0600 
    225 H225       -4.8424  -23.4090  -53.9460 H         1 UNK         0.3000 
    226 H226       -6.3793  -22.1901  -56.1827 H         1 UNK         0.0600 
    227 H227       -3.7440  -21.0813  -55.0823 H         1 UNK         0.0600 
    228 H228       -3.9327  -21.8505  -56.6536 H         1 UNK         0.0600 
    229 H229       -4.7592  -20.3385  -56.3105 H         1 UNK         0.0600 
    230 H230       -7.1562  -23.0895  -53.5763 H         1 UNK         0.3000 
    231 H231       -8.4265  -22.5433  -51.8451 H         1 UNK         0.0600 
    232 H232       -9.8064  -21.6142  -53.7174 H         1 UNK         0.0600 
    233 H233       -9.0821  -20.0268  -53.4654 H         1 UNK         0.0600 
    234 H234      -10.0851  -20.7517  -52.2153 H         1 UNK         0.0600 
    235 H235       -5.6867  -21.7519  -51.5689 H         1 UNK         0.3000 
    236 H236       -4.2793  -20.7916  -50.1467 H         1 UNK         0.0600 
    237 H237       -4.9723  -19.9833  -47.9704 H         1 UNK         0.0600 
    238 H238       -5.9405  -21.3926  -48.3730 H         1 UNK         0.0600 
    239 H239       -6.6346  -19.7758  -48.4967 H         1 UNK         0.0600 
    240 H240       -5.6547  -19.2432  -52.3943 H         1 UNK         0.3000 
    241 H241       -5.6847  -17.3955  -53.4408 H         1 UNK         0.0600 
    242 H242       -6.0162  -14.8966  -50.3533 H         1 UNK         0.3800 
    243 H243       -5.5075  -16.5629  -50.1149 H         1 UNK         0.3800 
    244 H244       -3.4413  -18.1357  -53.8632 H         1 UNK         0.0800 
    245 H245       -3.5239  -16.4046  -53.9855 H         1 UNK         0.0800 
    246 H246       -0.6928  -16.6121  -53.9311 H         1 UNK         0.0800 
    247 H247       -0.9907  -18.3269  -53.8106 H         1 UNK         0.0800 
@<TRIPOS>BOND
     1    1    2 1    
     2    1  127 1    
     3    1  128 1    
     4    1  129 1    
     5    2    3 2    
     6    2    4 am   BACKBONE|DICT|INTERRES
     7    4    5 1    
     8    4  130 1    
     9    5    6 1    
    10    5   65 1    
    11    5  131 1    
    12    6    7 1    
    13    6  132 1    
    14    6  133 1    
    15    7    8 1    
    16    8    9 1    
    17    8  134 1    
    18    8  135 1    
    19    9   10 ar   
    20    9   14 ar   
    21   10   11 ar   
    22   10  136 1    
    23   11   12 ar   
    24   11  126 1    
    25   12   13 ar   
    26   12  137 1    
    27   13   14 ar   
    28   13   15 1    
    29   14  138 1    
    30   15   16 1    
    31   15  139 1    
    32   15  140 1    
    33   16   17 1    
    34   17   18 1    
    35   17  141 1    
    36   17  142 1    
    37   18   19 1    
    38   18   67 1    
    39   18  143 1    
    40   19   20 am   BACKBONE|DICT|INTERRES
    41   19  144 1    
    42   20   21 2    
    43   20   22 1    
    44   22   23 1    
    45   22   24 1    
    46   22  145 1    
    47   23  146 1    
    48   23  147 1    
    49   23  148 1    
    50   24   25 am   BACKBONE|DICT|INTERRES
    51   24  149 1    
    52   25   26 2    
    53   25   27 1    
    54   27   28 1    
    55   27   29 1    
    56   27  150 1    
    57   28  151 1    
    58   28  152 1    
    59   28  153 1    
    60   29   30 am   BACKBONE|DICT|INTERRES
    61   29  154 1    
    62   30   31 2    
    63   30   32 1    
    64   32   33 1    
    65   32   34 1    
    66   32  155 1    
    67   33  156 1    
    68   33  157 1    
    69   33  158 1    
    70   34   35 am   BACKBONE|DICT|INTERRES
    71   34  159 1    
    72   35   36 2    
    73   35   37 1    
    74   37   38 1    
    75   37   39 1    
    76   37  160 1    
    77   38  161 1    
    78   38  162 1    
    79   38  163 1    
    80   39   40 am   BACKBONE|DICT|INTERRES
    81   39  164 1    
    82   40   41 2    
    83   40   42 1    
    84   42   43 1    
    85   42   44 1    
    86   42  165 1    
    87   43  166 1    
    88   43  167 1    
    89   43  168 1    
    90   44   45 am   BACKBONE|DICT|INTERRES
    91   44  169 1    
    92   45   46 2    
    93   45   47 1    
    94   47   48 1    
    95   47   49 1    
    96   47  170 1    
    97   48  171 1    
    98   48  172 1    
    99   48  173 1    
   100   49   50 am   BACKBONE|DICT|INTERRES
   101   49  174 1    
   102   50   51 2    
   103   50   52 1    
   104   52   53 1    
   105   52   54 1    
   106   52  175 1    
   107   53  176 1    
   108   53  177 1    
   109   53  178 1    
   110   54   55 am   BACKBONE|DICT|INTERRES
   111   54  179 1    
   112   55   56 2    
   113   55   57 1    
   114   57   58 1    
   115   57   59 1    
   116   57  180 1    
   117   58  181 1    
   118   58  182 1    
   119   58  183 1    
   120   59   60 am   BACKBONE|DICT|INTERRES
   121   59  184 1    
   122   60   61 2    
   123   60   62 1    
   124   62   63 1    
   125   62   64 1    
   126   62  185 1    
   127   63  186 1    
   128   63  187 1    
   129   63  188 1    
   130   64   65 am   BACKBONE|DICT|INTERRES
   131   64  189 1    
   132   65   66 2    
   133   67   68 2    
   134   67   69 am   BACKBONE|DICT|INTERRES
   135   69   70 1    
   136   69  190 1    
   137   70   71 1    
   138   70   72 1    
   139   70  191 1    
   140   71  192 1    
   141   71  193 1    
   142   71  194 1    
   143   72   73 2    
   144   72   74 am   BACKBONE|DICT|INTERRES
   145   74   75 1    
   146   74  195 1    
   147   75   76 1    
   148   75   77 1    
   149   75  196 1    
   150   76  197 1    
   151   76  198 1    
   152   76  199 1    
   153   77   78 2    
   154   77   79 am   BACKBONE|DICT|INTERRES
   155   79   80 1    
   156   79  200 1    
   157   80   81 1    
   158   80   82 1    
   159   80  201 1    
   160   81  202 1    
   161   81  203 1    
   162   81  204 1    
   163   82   83 2    
   164   82   84 am   BACKBONE|DICT|INTERRES
   165   84   85 1    
   166   84  205 1    
   167   85   86 1    
   168   85   87 1    
   169   85  206 1    
   170   86  207 1    
   171   86  208 1    
   172   86  209 1    
   173   87   88 2    
   174   87   89 am   BACKBONE|DICT|INTERRES
   175   89   90 1    
   176   89  210 1    
   177   90   91 1    
   178   90   92 1    
   179   90  211 1    
   180   91  212 1    
   181   91  213 1    
   182   91  214 1    
   183   92   93 2    
   184   92   94 am   BACKBONE|DICT|INTERRES
   185   94   95 1    
   186   94  215 1    
   187   95   96 1    
   188   95   97 1    
   189   95  216 1    
   190   96  217 1    
   191   96  218 1    
   192   96  219 1    
   193   97   98 2    
   194   97   99 am   BACKBONE|DICT|INTERRES
   195   99  100 1    
   196   99  220 1    
   197  100  101 1    
   198  100  102 1    
   199  100  221 1    
   200  101  222 1    
   201  101  223 1    
   202  101  224 1    
   203  102  103 2    
   204  102  104 am   BACKBONE|DICT|INTERRES
   205  104  105 1    
   206  104  225 1    
   207  105  106 1    
   208  105  107 1    
   209  105  226 1    
   210  106  227 1    
   211  106  228 1    
   212  106  229 1    
   213  107  108 2    
   214  107  109 am   BACKBONE|DICT|INTERRES
   215  109  110 1    
   216  109  230 1    
   217  110  111 1    
   218  110  112 1    
   219  110  231 1    
   220  111  232 1    
   221  111  233 1    
   222  111  234 1    
   223  112  113 2    
   224  112  114 am   BACKBONE|DICT|INTERRES
   225  114  115 1    
   226  114  235 1    
   227  115  116 1    
   228  115  117 1    
   229  115  236 1    
   230  116  237 1    
   231  116  238 1    
   232  116  239 1    
   233  117  118 2    
   234  117  119 am   BACKBONE|DICT|INTERRES
   235  119  120 1    
   236  119  240 1    
   237  120  121 1    
   238  120  124 1    
   239  120  241 1    
   240  121  122 am   BACKBONE|DICT|INTERRES
   241  121  123 2    
   242  122  242 1    
   243  122  243 1    
   244  124  125 1    
   245  124  244 1    
   246  124  245 1    
   247  125  126 1    
   248  126  246 1    
   249  126  247 1    
@<TRIPOS>SUBSTRUCTURE
     1 UNK         1 GROUP             0       ****    0 ROOT    
