@<TRIPOS>MOLECULE
3R540
247   249    1
SMALL
USER_CHARGES


@<TRIPOS>ATOM
      1 CA          4.7063  -12.0431  -51.8749 C.3       0 UNK        -0.1800 
      2 C           4.2026  -13.4728  -51.6843 C.2       0 UNK         0.5000 
      3 O           4.5542  -14.3462  -52.4749 O.2       0 UNK        -0.5000 
      4 N           3.3998  -13.7684  -50.6537 N.am      1 UNK        -0.5000 
      5 CA          2.8125  -12.8347  -49.6864 C.3       1 UNK         0.1400 
      6 C6          2.3457  -13.5616  -48.3989 C.3       23 UNK        -0.0398 
      7 S7          1.2065  -14.9667  -48.6754 S.3       23 UNK        -0.2404 
      8 C8          2.3579  -16.3863  -48.6253 C.3       23 UNK        -0.0205 
      9 C9          2.0721  -17.4911  -49.6443 C.ar      23 UNK        -0.0193 
     10 C10         1.4169  -17.2421  -50.8589 C.ar      23 UNK        -0.1150 
     11 C11         1.2316  -18.2611  -51.7990 C.ar      23 UNK        -0.0193 
     12 C12         1.7388  -19.5365  -51.5279 C.ar      23 UNK        -0.1150 
     13 C13         2.3939  -19.8049  -50.3231 C.ar      23 UNK        -0.0193 
     14 C14         2.5462  -18.7813  -49.3834 C.ar      23 UNK        -0.1150 
     15 C15         2.9885  -21.1842  -50.0682 C.3       23 UNK        -0.0205 
     16 S16         1.7226  -22.4454  -49.7214 S.3       23 UNK        -0.2404 
     17 C17         1.1894  -21.9822  -48.0432 C.3       23 UNK        -0.0398 
     18 CA          0.4777  -23.1399  -47.2968 C.3       11 UNK         0.1400 
     19 N           0.5695  -22.9567  -45.8478 N.am      11 UNK        -0.5000 
     20 C           0.2363  -23.8535  -44.9122 C.2       10 UNK         0.5000 
     21 O          -0.1703  -24.9829  -45.1777 O.2       10 UNK        -0.5000 
     22 CA          0.3042  -23.3932  -43.4407 C.3       10 UNK         0.1400 
     23 CB          0.7918  -24.5088  -42.4940 C.3       10 UNK        -0.1800 
     24 N           1.0596  -22.1505  -43.2428 N.am      10 UNK        -0.5000 
     25 C           2.3759  -21.9446  -43.4077 C.2       9 UNK         0.5000 
     26 O           3.1745  -22.8261  -43.7249 O.2       9 UNK        -0.5000 
     27 CA          2.8877  -20.4998  -43.2307 C.3       9 UNK         0.1400 
     28 CB          3.3224  -19.9248  -44.5895 C.3       9 UNK        -0.1800 
     29 N           1.8966  -19.5966  -42.6424 N.am      9 UNK        -0.5000 
     30 C           1.5203  -19.5838  -41.3569 C.2       8 UNK         0.5000 
     31 O           2.0172  -20.3024  -40.4895 O.2       8 UNK        -0.5000 
     32 CA          0.3592  -18.6383  -40.9958 C.3       8 UNK         0.1400 
     33 CB          0.8730  -17.2122  -40.7447 C.3       8 UNK        -0.1800 
     34 N          -0.6826  -18.6081  -42.0271 N.am      8 UNK        -0.5000 
     35 C          -1.4954  -19.6328  -42.3232 C.2       7 UNK         0.5000 
     36 O          -1.4587  -20.7225  -41.7529 O.2       7 UNK        -0.5000 
     37 CA         -2.4831  -19.4209  -43.4832 C.3       7 UNK         0.1400 
     38 CB         -3.7388  -18.6739  -43.0108 C.3       7 UNK        -0.1800 
     39 N          -1.8643  -18.6955  -44.5924 N.am      7 UNK        -0.5000 
     40 C          -1.0007  -19.2537  -45.4535 C.2       6 UNK         0.5000 
     41 O          -0.7237  -20.4521  -45.4513 O.2       6 UNK        -0.5000 
     42 CA         -0.3137  -18.3327  -46.4802 C.3       6 UNK         0.1400 
     43 CB         -1.0929  -18.3536  -47.8020 C.3       6 UNK        -0.1800 
     44 N          -0.1633  -16.9538  -46.0066 N.am      6 UNK        -0.5000 
     45 C           0.5595  -16.6020  -44.9335 C.2       5 UNK         0.5000 
     46 O           1.2516  -17.3960  -44.2992 O.2       5 UNK        -0.5000 
     47 CA          0.4502  -15.1508  -44.4311 C.3       5 UNK         0.1400 
     48 CB          1.7255  -14.3633  -44.7516 C.3       5 UNK        -0.1800 
     49 N          -0.7225  -14.4060  -44.9016 N.am      5 UNK        -0.5000 
     50 C          -1.9965  -14.7187  -44.6391 C.2       4 UNK         0.5000 
     51 O          -2.3353  -15.7927  -44.1403 O.2       4 UNK        -0.5000 
     52 CA         -3.0812  -13.6688  -44.9556 C.3       4 UNK         0.1400 
     53 CB         -3.2318  -12.6956  -43.7720 C.3       4 UNK        -0.1800 
     54 N          -2.9621  -12.9204  -46.2179 N.am      4 UNK        -0.5000 
     55 C          -2.0034  -12.0785  -46.6293 C.2       3 UNK         0.5000 
     56 O          -0.9189  -11.9150  -46.0640 O.2       3 UNK        -0.5000 
     57 CA         -2.3464  -11.2334  -47.8636 C.3       3 UNK         0.1400 
     58 CB         -3.1698   -9.9988  -47.4473 C.3       3 UNK        -0.1800 
     59 N          -1.1097  -10.8195  -48.5182 N.am      3 UNK        -0.5000 
     60 C          -1.0131  -10.3004  -49.7483 C.2       2 UNK         0.5000 
     61 O          -1.9740  -10.1370  -50.5010 O.2       2 UNK        -0.5000 
     62 CA          0.3937   -9.8879  -50.2183 C.3       2 UNK         0.1400 
     63 CB          0.7264   -8.4670  -49.7369 C.3       2 UNK        -0.1800 
     64 N           1.4359  -10.8082  -49.7589 N.am      2 UNK        -0.5000 
     65 C           1.6772  -12.0006  -50.3188 C.2       1 UNK         0.5000 
     66 O           1.0592  -12.4343  -51.2933 O.2       1 UNK        -0.5000 
     67 C          -0.9917  -23.2910  -47.7447 C.2       11 UNK         0.5000 
     68 O          -1.2982  -24.1230  -48.6023 O.2       11 UNK        -0.5000 
     69 N          -1.8847  -22.5002  -47.1322 N.am      12 UNK        -0.5000 
     70 CA         -3.3294  -22.5808  -47.3390 C.3       12 UNK         0.1400 
     71 CB         -4.0058  -21.3152  -46.7935 C.3       12 UNK        -0.1800 
     72 C          -3.9262  -23.8532  -46.7141 C.2       12 UNK         0.5000 
     73 O          -4.7448  -24.5126  -47.3534 O.2       12 UNK        -0.5000 
     74 N          -3.4685  -24.1938  -45.5004 N.am      13 UNK        -0.5000 
     75 CA         -3.9006  -25.3652  -44.7323 C.3       13 UNK         0.1400 
     76 CB         -3.3485  -25.2663  -43.3021 C.3       13 UNK        -0.1800 
     77 C          -3.4942  -26.7010  -45.3825 C.2       13 UNK         0.5000 
     78 O          -4.2808  -27.6479  -45.3709 O.2       13 UNK        -0.5000 
     79 N          -2.2913  -26.7399  -45.9716 N.am      14 UNK        -0.5000 
     80 CA         -1.7603  -27.8693  -46.7393 C.3       14 UNK         0.1400 
     81 CB         -0.2391  -27.6944  -46.8803 C.3       14 UNK        -0.1800 
     82 C          -2.4059  -28.0303  -48.1313 C.2       14 UNK         0.5000 
     83 O          -2.1325  -29.0244  -48.8048 O.2       14 UNK        -0.5000 
     84 N          -3.2196  -27.0472  -48.5465 N.am      15 UNK        -0.5000 
     85 CA         -3.8832  -26.9243  -49.8474 C.3       15 UNK         0.1400 
     86 CB         -4.8750  -28.0808  -50.0891 C.3       15 UNK        -0.1800 
     87 C          -2.9006  -26.7114  -51.0182 C.2       15 UNK         0.5000 
     88 O          -3.2412  -27.0041  -52.1651 O.2       15 UNK        -0.5000 
     89 N          -1.7087  -26.1792  -50.7146 N.am      16 UNK        -0.5000 
     90 CA         -0.7075  -25.7751  -51.6982 C.3       16 UNK         0.1400 
     91 CB          0.6831  -25.7760  -51.0459 C.3       16 UNK        -0.1800 
     92 C          -1.0670  -24.4015  -52.2877 C.2       16 UNK         0.5000 
     93 O          -1.0967  -24.2527  -53.5097 O.2       16 UNK        -0.5000 
     94 N          -1.3943  -23.4458  -51.4066 N.am      17 UNK        -0.5000 
     95 CA         -1.9965  -22.1649  -51.7780 C.3       17 UNK         0.1400 
     96 CB         -1.6620  -21.0983  -50.7219 C.3       17 UNK        -0.1800 
     97 C          -3.5202  -22.2959  -51.9271 C.2       17 UNK         0.5000 
     98 O          -4.1035  -21.6697  -52.8106 O.2       17 UNK        -0.5000 
     99 N          -4.1272  -23.0984  -51.0366 N.am      18 UNK        -0.5000 
    100 CA        -5.5610  -23.4016  -50.9098 C.3       18 UNK         0.1400 
    101 CB        -6.0622  -24.1675  -52.1504 C.3       18 UNK        -0.1800 
    102 C         -6.4658  -22.1963  -50.5655 C.2       18 UNK         0.5000 
    103 O         -7.6875  -22.3507  -50.5327 O.2       18 UNK        -0.5000 
    104 N         -5.8684  -21.0340  -50.2862 N.am      19 UNK        -0.5000 
    105 CA        -6.5199  -19.7731  -49.9620 C.3       19 UNK         0.1400 
    106 CB        -7.1969  -19.1844  -51.2145 C.3       19 UNK        -0.1800 
    107 C         -5.4541  -18.8110  -49.4240 C.2       19 UNK         0.5000 
    108 O         -4.2599  -19.0173  -49.6677 O.2       19 UNK        -0.5000 
    109 N         -5.9067  -17.7654  -48.7205 N.am      20 UNK        -0.5000 
    110 CA        -5.0775  -16.6783  -48.2020 C.3       20 UNK         0.1400 
    111 CB        -5.9536  -15.7092  -47.3938 C.3       20 UNK        -0.1800 
    112 C         -4.3488  -15.9470  -49.3437 C.2       20 UNK         0.5000 
    113 O         -5.0044  -15.3841  -50.2231 O.2       20 UNK        -0.5000 
    114 N         -3.0120  -16.0330  -49.3334 N.am      21 UNK        -0.5000 
    115 CA        -2.0859  -15.5228  -50.3504 C.3       21 UNK         0.1400 
    116 CB        -1.9947  -13.9886  -50.2719 C.3       21 UNK        -0.1800 
    117 C         -2.3722  -16.0452  -51.7734 C.2       21 UNK         0.5000 
    118 O         -2.1701  -15.3196  -52.7481 O.2       21 UNK        -0.5000 
    119 N         -2.8523  -17.2941  -51.8594 N.am      22 UNK        -0.5000 
    120 CA        -3.2939  -17.9633  -53.0947 C.3       22 UNK         0.1400 
    121 C         -4.5902  -17.3590  -53.7218 C.2       22 UNK         0.5000 
    122 N         -5.3432  -16.5130  -53.0256 N.am      22 UNK        -0.7600 
    123 O         -4.9447  -17.6851  -54.8513 O.2       22 UNK        -0.5000 
    124 C124       -2.1513  -18.1506  -54.1387 C.3       23 UNK        -0.0398 
    125 S125       -0.7792  -19.1753  -53.5066 S.3       23 UNK        -0.2404 
    126 C126        0.5280  -17.9624  -53.1211 C.3       23 UNK        -0.0205 
    127 H127        3.8852  -11.3691  -52.1173 H         1 UNK         0.0600 
    128 H128        5.2104  -11.6810  -50.9791 H         1 UNK         0.0600 
    129 H129        5.4232  -11.9987  -52.6951 H         1 UNK         0.0600 
    130 H130        3.0505  -14.7122  -50.5797 H         1 UNK         0.3000 
    131 H131        3.5931  -12.1350  -49.3829 H         1 UNK         0.0600 
    132 H132        1.8539  -12.8580  -47.7248 H         1 UNK         0.0800 
    133 H133        3.2190  -13.9151  -47.8494 H         1 UNK         0.0800 
    134 H134        2.3390  -16.7983  -47.6154 H         1 UNK         0.0800 
    135 H135        3.3792  -16.0446  -48.7954 H         1 UNK         0.0800 
    136 H136        1.0657  -16.2478  -51.0921 H         1 UNK         0.1150 
    137 H137        1.6253  -20.3255  -52.2581 H         1 UNK         0.1150 
    138 H138        3.0695  -18.9809  -48.4587 H         1 UNK         0.1150 
    139 H139        3.5502  -21.4929  -50.9509 H         1 UNK         0.0800 
    140 H140        3.7096  -21.1539  -49.2499 H         1 UNK         0.0800 
    141 H141        2.0847  -21.6896  -47.4925 H         1 UNK         0.0800 
    142 H142        0.5666  -21.0880  -48.0954 H         1 UNK         0.0800 
    143 H143        0.9902  -24.0759  -47.5293 H         1 UNK         0.0600 
    144 H144        0.7710  -22.0184  -45.5298 H         1 UNK         0.3000 
    145 H145       -0.7228  -23.1566  -43.1599 H         1 UNK         0.0600 
    146 H146        0.8218  -24.1630  -41.4608 H         1 UNK         0.0600 
    147 H147        0.1247  -25.3708  -42.5267 H         1 UNK         0.0600 
    148 H148        1.7879  -24.8628  -42.7601 H         1 UNK         0.0600 
    149 H149        0.4999  -21.3519  -42.9759 H         1 UNK         0.3000 
    150 H150        3.7594  -20.5356  -42.5742 H         1 UNK         0.0600 
    151 H151        4.0956  -20.5412  -45.0499 H         1 UNK         0.0600 
    152 H152        3.7319  -18.9203  -44.4797 H         1 UNK         0.0600 
    153 H153        2.4865  -19.8694  -45.2877 H         1 UNK         0.0600 
    154 H154        1.4935  -18.9040  -43.2701 H         1 UNK         0.3000 
    155 H155       -0.0930  -19.0038  -40.0714 H         1 UNK         0.0600 
    156 H156        0.0613  -16.5442  -40.4560 H         1 UNK         0.0600 
    157 H157        1.3557  -16.7934  -41.6279 H         1 UNK         0.0600 
    158 H158        1.6058  -17.2008  -39.9370 H         1 UNK         0.0600 
    159 H159       -0.7636  -17.7596  -42.5672 H         1 UNK         0.3000 
    160 H160       -2.7930  -20.4064  -43.8349 H         1 UNK         0.0600 
    161 H161       -3.4988  -17.6875  -42.6129 H         1 UNK         0.0600 
    162 H162       -4.2481  -19.2296  -42.2226 H         1 UNK         0.0600 
    163 H163       -4.4487  -18.5422  -43.8276 H         1 UNK         0.0600 
    164 H164       -2.0339  -17.6949  -44.6301 H         1 UNK         0.3000 
    165 H165        0.6852  -18.7315  -46.6673 H         1 UNK         0.0600 
    166 H166       -2.1209  -18.0241  -47.6624 H         1 UNK         0.0600 
    167 H167       -0.6196  -17.7212  -48.5517 H         1 UNK         0.0600 
    168 H168       -1.1351  -19.3617  -48.2156 H         1 UNK         0.0600 
    169 H169       -0.6916  -16.2349  -46.4766 H         1 UNK         0.3000 
    170 H170        0.3665  -15.2077  -43.3441 H         1 UNK         0.0600 
    171 H171        2.6044  -14.8513  -44.3280 H         1 UNK         0.0600 
    172 H172        1.8811  -14.2863  -45.8237 H         1 UNK         0.0600 
    173 H173        1.6836  -13.3539  -44.3422 H         1 UNK         0.0600 
    174 H174       -0.5523  -13.4938  -45.3217 H         1 UNK         0.3000 
    175 H175       -4.0176  -14.2228  -45.0343 H         1 UNK         0.0600 
    176 H176       -4.0767  -12.0230  -43.9198 H         1 UNK         0.0600 
    177 H177       -3.4069  -13.2355  -42.8404 H         1 UNK         0.0600 
    178 H178       -2.3386  -12.0855  -43.6325 H         1 UNK         0.0600 
    179 H179       -3.7882  -12.9732  -46.7965 H         1 UNK         0.3000 
    180 H180       -2.9339  -11.8389  -48.5554 H         1 UNK         0.0600 
    181 H181       -3.4785   -9.4115  -48.3120 H         1 UNK         0.0600 
    182 H182       -4.0784  -10.2906  -46.9192 H         1 UNK         0.0600 
    183 H183       -2.6015   -9.3444  -46.7850 H         1 UNK         0.0600 
    184 H184       -0.2794  -10.9464  -47.9543 H         1 UNK         0.3000 
    185 H185        0.3899   -9.8783  -51.3107 H         1 UNK         0.0600 
    186 H186        1.6902   -8.1353  -50.1235 H         1 UNK         0.0600 
    187 H187       -0.0234   -7.7534  -50.0811 H         1 UNK         0.0600 
    188 H188        0.7614   -8.4062  -48.6484 H         1 UNK         0.0600 
    189 H189        1.9917  -10.5020  -48.9732 H         1 UNK         0.3000 
    190 H190       -1.5462  -21.8268  -46.4497 H         1 UNK         0.3000 
    191 H191       -3.5219  -22.6197  -48.4105 H         1 UNK         0.0600 
    192 H192       -5.0749  -21.3221  -47.0095 H         1 UNK         0.0600 
    193 H193       -3.5889  -20.4173  -47.2501 H         1 UNK         0.0600 
    194 H194       -3.8900  -21.2276  -45.7141 H         1 UNK         0.0600 
    195 H195       -2.7724  -23.6049  -45.0712 H         1 UNK         0.3000 
    196 H196       -4.9911  -25.3429  -44.6776 H         1 UNK         0.0600 
    197 H197       -3.7015  -26.0979  -42.6909 H         1 UNK         0.0600 
    198 H198       -3.6713  -24.3460  -42.8149 H         1 UNK         0.0600 
    199 H199       -2.2591  -25.2912  -43.2878 H         1 UNK         0.0600 
    200 H200       -1.6650  -25.9471  -45.8580 H         1 UNK         0.3000 
    201 H201       -1.9508  -28.7885  -46.1819 H         1 UNK         0.0600 
    202 H202        0.2441  -27.6476  -45.9042 H         1 UNK         0.0600 
    203 H203        0.0104  -26.7808  -47.4220 H         1 UNK         0.0600 
    204 H204        0.2069  -28.5300  -47.4212 H         1 UNK         0.0600 
    205 H205       -3.3874  -26.2822  -47.9060 H         1 UNK         0.3000 
    206 H206       -4.4704  -26.0099  -49.7860 H         1 UNK         0.0600 
    207 H207       -5.5495  -28.2047  -49.2418 H         1 UNK         0.0600 
    208 H208       -5.4920  -27.8881  -50.9674 H         1 UNK         0.0600 
    209 H209       -4.3631  -29.0291  -50.2536 H         1 UNK         0.0600 
    210 H210       -1.5288  -25.9126  -49.7544 H         1 UNK         0.3000 
    211 H211       -0.6929  -26.4988  -52.5162 H         1 UNK         0.0600 
    212 H212        0.7094  -25.1636  -50.1455 H         1 UNK         0.0600 
    213 H213        1.4395  -25.3909  -51.7308 H         1 UNK         0.0600 
    214 H214        0.9806  -26.7863  -50.7648 H         1 UNK         0.0600 
    215 H215       -1.3080  -23.6531  -50.4160 H         1 UNK         0.3000 
    216 H216       -1.5895  -21.8405  -52.7367 H         1 UNK         0.0600 
    217 H217       -2.1074  -20.1383  -50.9825 H         1 UNK         0.0600 
    218 H218       -0.5884  -20.9381  -50.6487 H         1 UNK         0.0600 
    219 H219       -2.0315  -21.3622  -49.7339 H         1 UNK         0.0600 
    220 H220       -3.5319  -23.5583  -50.3649 H         1 UNK         0.3000 
    221 H221       -5.6511  -24.0702  -50.0539 H         1 UNK         0.0600 
    222 H222       -6.0621  -23.5385  -53.0409 H         1 UNK         0.0600 
    223 H223       -5.4394  -25.0384  -52.3552 H         1 UNK         0.0600 
    224 H224       -7.0814  -24.5273  -52.0058 H         1 UNK         0.0600 
    225 H225       -4.8594  -20.9692  -50.3205 H         1 UNK         0.3000 
    226 H226       -7.2627  -19.9449  -49.1805 H         1 UNK         0.0600 
    227 H227       -7.6135  -18.1963  -51.0153 H         1 UNK         0.0600 
    228 H228       -6.4892  -19.0829  -52.0377 H         1 UNK         0.0600 
    229 H229       -8.0172  -19.8140  -51.5585 H         1 UNK         0.0600 
    230 H230       -6.9027  -17.6596  -48.5947 H         1 UNK         0.3000 
    231 H231       -4.3424  -17.1131  -47.5222 H         1 UNK         0.0600 
    232 H232       -5.3630  -14.8797  -47.0053 H         1 UNK         0.0600 
    233 H233       -6.4117  -16.2096  -46.5403 H         1 UNK         0.0600 
    234 H234       -6.7527  -15.2843  -48.0028 H         1 UNK         0.0600 
    235 H235       -2.5812  -16.5738  -48.5995 H         1 UNK         0.3000 
    236 H236       -1.1064  -15.9228  -50.0966 H         1 UNK         0.0600 
    237 H237       -2.9565  -13.5113  -50.4600 H         1 UNK         0.0600 
    238 H238       -1.6404  -13.6787  -49.2905 H         1 UNK         0.0600 
    239 H239       -1.2873  -13.5959  -51.0016 H         1 UNK         0.0600 
    240 H240       -3.0299  -17.8076  -51.0043 H         1 UNK         0.3000 
    241 H241       -3.6001  -18.9600  -52.7764 H         1 UNK         0.0600 
    242 H242       -6.1788  -16.1417  -53.4479 H         1 UNK         0.3800 
    243 H243       -5.0782  -16.2077  -52.0959 H         1 UNK         0.3800 
    244 H244       -1.7762  -17.1928  -54.4994 H         1 UNK         0.0800 
    245 H245       -2.5323  -18.6660  -55.0215 H         1 UNK         0.0800 
    246 H246        1.2652  -17.9715  -53.9246 H         1 UNK         0.0800 
    247 H247        0.1065  -16.9574  -53.1052 H         1 UNK         0.0800 
@<TRIPOS>BOND
     1    1    2 1    
     2    1  127 1    
     3    1  128 1    
     4    1  129 1    
     5    2    3 2    
     6    2    4 am   BACKBONE|DICT|INTERRES
     7    4    5 1    
     8    4  130 1    
     9    5    6 1    
    10    5   65 1    
    11    5  131 1    
    12    6    7 1    
    13    6  132 1    
    14    6  133 1    
    15    7    8 1    
    16    8    9 1    
    17    8  134 1    
    18    8  135 1    
    19    9   10 ar   
    20    9   14 ar   
    21   10   11 ar   
    22   10  136 1    
    23   11   12 ar   
    24   11  126 1    
    25   12   13 ar   
    26   12  137 1    
    27   13   14 ar   
    28   13   15 1    
    29   14  138 1    
    30   15   16 1    
    31   15  139 1    
    32   15  140 1    
    33   16   17 1    
    34   17   18 1    
    35   17  141 1    
    36   17  142 1    
    37   18   19 1    
    38   18   67 1    
    39   18  143 1    
    40   19   20 am   BACKBONE|DICT|INTERRES
    41   19  144 1    
    42   20   21 2    
    43   20   22 1    
    44   22   23 1    
    45   22   24 1    
    46   22  145 1    
    47   23  146 1    
    48   23  147 1    
    49   23  148 1    
    50   24   25 am   BACKBONE|DICT|INTERRES
    51   24  149 1    
    52   25   26 2    
    53   25   27 1    
    54   27   28 1    
    55   27   29 1    
    56   27  150 1    
    57   28  151 1    
    58   28  152 1    
    59   28  153 1    
    60   29   30 am   BACKBONE|DICT|INTERRES
    61   29  154 1    
    62   30   31 2    
    63   30   32 1    
    64   32   33 1    
    65   32   34 1    
    66   32  155 1    
    67   33  156 1    
    68   33  157 1    
    69   33  158 1    
    70   34   35 am   BACKBONE|DICT|INTERRES
    71   34  159 1    
    72   35   36 2    
    73   35   37 1    
    74   37   38 1    
    75   37   39 1    
    76   37  160 1    
    77   38  161 1    
    78   38  162 1    
    79   38  163 1    
    80   39   40 am   BACKBONE|DICT|INTERRES
    81   39  164 1    
    82   40   41 2    
    83   40   42 1    
    84   42   43 1    
    85   42   44 1    
    86   42  165 1    
    87   43  166 1    
    88   43  167 1    
    89   43  168 1    
    90   44   45 am   BACKBONE|DICT|INTERRES
    91   44  169 1    
    92   45   46 2    
    93   45   47 1    
    94   47   48 1    
    95   47   49 1    
    96   47  170 1    
    97   48  171 1    
    98   48  172 1    
    99   48  173 1    
   100   49   50 am   BACKBONE|DICT|INTERRES
   101   49  174 1    
   102   50   51 2    
   103   50   52 1    
   104   52   53 1    
   105   52   54 1    
   106   52  175 1    
   107   53  176 1    
   108   53  177 1    
   109   53  178 1    
   110   54   55 am   BACKBONE|DICT|INTERRES
   111   54  179 1    
   112   55   56 2    
   113   55   57 1    
   114   57   58 1    
   115   57   59 1    
   116   57  180 1    
   117   58  181 1    
   118   58  182 1    
   119   58  183 1    
   120   59   60 am   BACKBONE|DICT|INTERRES
   121   59  184 1    
   122   60   61 2    
   123   60   62 1    
   124   62   63 1    
   125   62   64 1    
   126   62  185 1    
   127   63  186 1    
   128   63  187 1    
   129   63  188 1    
   130   64   65 am   BACKBONE|DICT|INTERRES
   131   64  189 1    
   132   65   66 2    
   133   67   68 2    
   134   67   69 am   BACKBONE|DICT|INTERRES
   135   69   70 1    
   136   69  190 1    
   137   70   71 1    
   138   70   72 1    
   139   70  191 1    
   140   71  192 1    
   141   71  193 1    
   142   71  194 1    
   143   72   73 2    
   144   72   74 am   BACKBONE|DICT|INTERRES
   145   74   75 1    
   146   74  195 1    
   147   75   76 1    
   148   75   77 1    
   149   75  196 1    
   150   76  197 1    
   151   76  198 1    
   152   76  199 1    
   153   77   78 2    
   154   77   79 am   BACKBONE|DICT|INTERRES
   155   79   80 1    
   156   79  200 1    
   157   80   81 1    
   158   80   82 1    
   159   80  201 1    
   160   81  202 1    
   161   81  203 1    
   162   81  204 1    
   163   82   83 2    
   164   82   84 am   BACKBONE|DICT|INTERRES
   165   84   85 1    
   166   84  205 1    
   167   85   86 1    
   168   85   87 1    
   169   85  206 1    
   170   86  207 1    
   171   86  208 1    
   172   86  209 1    
   173   87   88 2    
   174   87   89 am   BACKBONE|DICT|INTERRES
   175   89   90 1    
   176   89  210 1    
   177   90   91 1    
   178   90   92 1    
   179   90  211 1    
   180   91  212 1    
   181   91  213 1    
   182   91  214 1    
   183   92   93 2    
   184   92   94 am   BACKBONE|DICT|INTERRES
   185   94   95 1    
   186   94  215 1    
   187   95   96 1    
   188   95   97 1    
   189   95  216 1    
   190   96  217 1    
   191   96  218 1    
   192   96  219 1    
   193   97   98 2    
   194   97   99 am   BACKBONE|DICT|INTERRES
   195   99  100 1    
   196   99  220 1    
   197  100  101 1    
   198  100  102 1    
   199  100  221 1    
   200  101  222 1    
   201  101  223 1    
   202  101  224 1    
   203  102  103 2    
   204  102  104 am   BACKBONE|DICT|INTERRES
   205  104  105 1    
   206  104  225 1    
   207  105  106 1    
   208  105  107 1    
   209  105  226 1    
   210  106  227 1    
   211  106  228 1    
   212  106  229 1    
   213  107  108 2    
   214  107  109 am   BACKBONE|DICT|INTERRES
   215  109  110 1    
   216  109  230 1    
   217  110  111 1    
   218  110  112 1    
   219  110  231 1    
   220  111  232 1    
   221  111  233 1    
   222  111  234 1    
   223  112  113 2    
   224  112  114 am   BACKBONE|DICT|INTERRES
   225  114  115 1    
   226  114  235 1    
   227  115  116 1    
   228  115  117 1    
   229  115  236 1    
   230  116  237 1    
   231  116  238 1    
   232  116  239 1    
   233  117  118 2    
   234  117  119 am   BACKBONE|DICT|INTERRES
   235  119  120 1    
   236  119  240 1    
   237  120  121 1    
   238  120  124 1    
   239  120  241 1    
   240  121  122 am   BACKBONE|DICT|INTERRES
   241  121  123 2    
   242  122  242 1    
   243  122  243 1    
   244  124  125 1    
   245  124  244 1    
   246  124  245 1    
   247  125  126 1    
   248  126  246 1    
   249  126  247 1    
@<TRIPOS>SUBSTRUCTURE
     1 UNK         1 GROUP             0       ****    0 ROOT    
