@<TRIPOS>MOLECULE
3R540
247   249    1
SMALL
USER_CHARGES


@<TRIPOS>ATOM
      1 CA         -3.3608  -13.5670  -45.3060 C.3       0 UNK        -0.1800 
      2 C          -2.4963  -12.9200  -46.3790 C.2       0 UNK         0.5000 
      3 O          -2.3820  -11.6950  -46.4150 O.2       0 UNK        -0.5000 
      4 N          -1.9071  -13.7363  -47.2629 N.am      1 UNK        -0.5000 
      5 CA         -1.0496  -13.2927  -48.3678 C.3       1 UNK         0.1400 
      6 C6         -0.8627  -14.4207  -49.4161 C.3       23 UNK        -0.0398 
      7 S7         -0.3269  -13.8367  -51.0637 S.3       23 UNK        -0.2404 
      8 C8          1.4938  -13.9364  -50.9842 C.3       23 UNK        -0.0205 
      9 C9          2.0163  -15.3654  -50.9679 C.ar      23 UNK        -0.0193 
     10 C10         2.3228  -16.0173  -52.1664 C.ar      23 UNK        -0.1150 
     11 C11         2.8588  -17.3085  -52.1536 C.ar      23 UNK        -0.0193 
     12 C12         3.0690  -17.9527  -50.9314 C.ar      23 UNK        -0.1150 
     13 C13         2.7497  -17.3197  -49.7255 C.ar      23 UNK        -0.0193 
     14 C14         2.2416  -16.0191  -49.7527 C.ar      23 UNK        -0.1150 
     15 C15         2.9902  -18.0177  -48.3923 C.3       23 UNK        -0.0205 
     16 S16         2.2483  -19.6782  -48.3211 S.3       23 UNK        -0.2404 
     17 C17         0.4637  -19.3038  -48.2035 C.3       23 UNK        -0.0398 
     18 CA         -0.2977  -20.5285  -47.6470 C.3       11 UNK         0.1400 
     19 N           0.0624  -20.8334  -46.2611 N.am      11 UNK        -0.5000 
     20 C          -0.1224  -22.0297  -45.6907 C.2       10 UNK         0.5000 
     21 O          -0.6347  -22.9872  -46.2707 O.2       10 UNK        -0.5000 
     22 CA          0.2997  -22.1700  -44.2180 C.3       10 UNK         0.1400 
     23 CB          1.8254  -22.2990  -44.0956 C.3       10 UNK        -0.1800 
     24 N          -0.1720  -21.0607  -43.3886 N.am      10 UNK        -0.5000 
     25 C          -1.4646  -20.7790  -43.1701 C.2       9 UNK         0.5000 
     26 O          -2.3962  -21.4390  -43.6315 O.2       9 UNK        -0.5000 
     27 CA         -1.7710  -19.5291  -42.3265 C.3       9 UNK         0.1400 
     28 CB         -1.5856  -19.8233  -40.8304 C.3       9 UNK        -0.1800 
     29 N          -0.9566  -18.3746  -42.7059 N.am      9 UNK        -0.5000 
     30 C          -0.9895  -17.7835  -43.9087 C.2       8 UNK         0.5000 
     31 O          -1.7310  -18.1298  -44.8249 O.2       8 UNK        -0.5000 
     32 CA          0.0168  -16.6498  -44.1562 C.3       8 UNK         0.1400 
     33 CB         -0.4351  -15.3539  -43.4709 C.3       8 UNK        -0.1800 
     34 N           1.3655  -16.9987  -43.7190 N.am      8 UNK        -0.5000 
     35 C           2.0801  -18.0249  -44.2015 C.2       7 UNK         0.5000 
     36 O           1.6862  -18.7763  -45.0912 O.2       7 UNK        -0.5000 
     37 CA          3.4435  -18.2817  -43.5435 C.3       7 UNK         0.1400 
     38 CB          4.5088  -17.3314  -44.1092 C.3       7 UNK        -0.1800 
     39 N           3.3741  -18.1429  -42.0893 N.am      7 UNK        -0.5000 
     40 C           2.7060  -18.9811  -41.2837 C.2       6 UNK         0.5000 
     41 O           2.1100  -19.9844  -41.6771 O.2       6 UNK        -0.5000 
     42 CA          2.6615  -18.6040  -39.7926 C.3       6 UNK         0.1400 
     43 CB          3.9690  -18.9990  -39.0898 C.3       6 UNK        -0.1800 
     44 N           2.4070  -17.1771  -39.5855 N.am      6 UNK        -0.5000 
     45 C           1.2569  -16.5647  -39.8997 C.2       5 UNK         0.5000 
     46 O           0.2851  -17.1428  -40.3848 O.2       5 UNK        -0.5000 
     47 CA          1.1909  -15.0452  -39.6631 C.3       5 UNK         0.1400 
     48 CB          0.7761  -14.7437  -38.2153 C.3       5 UNK        -0.1800 
     49 N           2.4385  -14.3393  -39.9678 N.am      5 UNK        -0.5000 
     50 C           3.0191  -14.2972  -41.1737 C.2       4 UNK         0.5000 
     51 O           2.6218  -14.9320  -42.1531 O.2       4 UNK        -0.5000 
     52 CA          4.2662  -13.4114  -41.3081 C.3       4 UNK         0.1400 
     53 CB          5.5217  -14.2672  -41.5363 C.3       4 UNK        -0.1800 
     54 N           4.0976  -12.4907  -42.4291 N.am      4 UNK        -0.5000 
     55 C           3.4102  -11.3414  -42.3720 C.2       3 UNK         0.5000 
     56 O           2.9165  -10.8909  -41.3373 O.2       3 UNK        -0.5000 
     57 CA          3.2445  -10.5644  -43.6929 C.3       3 UNK         0.1400 
     58 CB          4.4097   -9.5825  -43.8906 C.3       3 UNK        -0.1800 
     59 N           3.1576  -11.4496  -44.8567 N.am      3 UNK        -0.5000 
     60 C           2.0727  -12.1684  -45.1718 C.2       2 UNK         0.5000 
     61 O           1.0078  -12.1100  -44.5530 O.2       2 UNK        -0.5000 
     62 CA          2.2321  -13.1443  -46.3503 C.3       2 UNK         0.1400 
     63 CB          2.9295  -14.4300  -45.8798 C.3       2 UNK        -0.1800 
     64 N           0.9403  -13.4940  -46.9412 N.am      2 UNK        -0.5000 
     65 C           0.3034  -12.7503  -47.8560 C.2       1 UNK         0.5000 
     66 O           0.7438  -11.6884  -48.2993 O.2       1 UNK        -0.5000 
     67 C          -1.8248  -20.4308  -47.8452 C.2       11 UNK         0.5000 
     68 O          -2.3068  -20.8148  -48.9096 O.2       11 UNK        -0.5000 
     69 N          -2.5751  -19.9961  -46.8211 N.am      12 UNK        -0.5000 
     70 CA         -4.0403  -20.0398  -46.8039 C.3       12 UNK         0.1400 
     71 CB         -4.5852  -19.2308  -45.6178 C.3       12 UNK        -0.1800 
     72 C          -4.5848  -21.4799  -46.7755 C.2       12 UNK         0.5000 
     73 O          -5.5462  -21.7757  -47.4849 O.2       12 UNK        -0.5000 
     74 N          -3.9432  -22.3613  -45.9942 N.am      13 UNK        -0.5000 
     75 CA         -4.2414  -23.7945  -45.9620 C.3       13 UNK         0.1400 
     76 CB         -3.4987  -24.4607  -44.7946 C.3       13 UNK        -0.1800 
     77 C          -3.9138  -24.4840  -47.2992 C.2       13 UNK         0.5000 
     78 O          -4.7152  -25.2854  -47.7810 O.2       13 UNK        -0.5000 
     79 N          -2.7767  -24.1163  -47.9083 N.am      14 UNK        -0.5000 
     80 CA         -2.3812  -24.5557  -49.2473 C.3       14 UNK         0.1400 
     81 CB         -0.9612  -24.0687  -49.5700 C.3       14 UNK        -0.1800 
     82 C          -3.3750  -24.1026  -50.3318 C.2       14 UNK         0.5000 
     83 O          -3.7310  -24.9095  -51.1860 O.2       14 UNK        -0.5000 
     84 N          -3.8429  -22.8489  -50.2478 N.am      15 UNK        -0.5000 
     85 CA         -4.8517  -22.2651  -51.1352 C.3       15 UNK         0.1400 
     86 CB         -4.9413  -20.7530  -50.8812 C.3       15 UNK        -0.1800 
     87 C          -6.2419  -22.9161  -51.0236 C.2       15 UNK         0.5000 
     88 O          -6.9969  -22.8884  -51.9969 O.2       15 UNK        -0.5000 
     89 N          -6.5613  -23.4854  -49.8549 N.am      16 UNK        -0.5000 
     90 CA         -7.7682  -24.2792  -49.6377 C.3       16 UNK         0.1400 
     91 CB         -8.0932  -24.3231  -48.1366 C.3       16 UNK        -0.1800 
     92 C          -7.6233  -25.6987  -50.2167 C.2       16 UNK         0.5000 
     93 O          -8.5755  -26.2110  -50.8062 O.2       16 UNK        -0.5000 
     94 N          -6.4406  -26.3056  -50.0413 N.am      17 UNK        -0.5000 
     95 CA         -6.1099  -27.6468  -50.5253 C.3       17 UNK         0.1400 
     96 CB         -4.8254  -28.1332  -49.8356 C.3       17 UNK        -0.1800 
     97 C          -5.9707  -27.7151  -52.0580 C.2       17 UNK         0.5000 
     98 O          -6.5478  -28.6059  -52.6830 O.2       17 UNK        -0.5000 
     99 N          -5.2174  -26.7708  -52.6296 N.am      18 UNK        -0.5000 
    100 CA        -4.9920  -26.5972  -54.0583 C.3       18 UNK         0.1400 
    101 CB        -3.4921  -26.7682  -54.3546 C.3       18 UNK        -0.1800 
    102 C         -5.4877  -25.1916  -54.4147 C.2       18 UNK         0.5000 
    103 O         -4.7999  -24.2171  -54.1110 O.2       18 UNK        -0.5000 
    104 N         -6.6930  -25.1312  -54.9982 N.am      19 UNK        -0.5000 
    105 CA        -7.5284  -23.9516  -55.2536 C.3       19 UNK         0.1400 
    106 CB        -8.5571  -24.3036  -56.3414 C.3       19 UNK        -0.1800 
    107 C         -6.7719  -22.6544  -55.6107 C.2       19 UNK         0.5000 
    108 O         -6.2812  -22.5146  -56.7323 O.2       19 UNK        -0.5000 
    109 N         -6.6966  -21.7506  -54.6250 N.am      20 UNK        -0.5000 
    110 CA        -6.1028  -20.4086  -54.6375 C.3       20 UNK         0.1400 
    111 CB        -6.6659  -19.5467  -55.7860 C.3       20 UNK        -0.1800 
    112 C         -4.5612  -20.3623  -54.5958 C.2       20 UNK         0.5000 
    113 O         -4.0213  -19.2690  -54.4207 O.2       20 UNK        -0.5000 
    114 N         -3.8824  -21.5139  -54.7186 N.am      21 UNK        -0.5000 
    115 CA        -2.4275  -21.7136  -54.7102 C.3       21 UNK         0.1400 
    116 CB        -1.8992  -21.7514  -53.2592 C.3       21 UNK        -0.1800 
    117 C         -1.6713  -20.7180  -55.6174 C.2       21 UNK         0.5000 
    118 O         -1.7042  -20.8666  -56.8401 O.2       21 UNK        -0.5000 
    119 N         -1.0181  -19.7253  -55.0021 N.am      22 UNK        -0.5000 
    120 CA        -0.2890  -18.6338  -55.6651 C.3       22 UNK         0.1400 
    121 C         -1.1945  -17.5626  -56.3431 C.2       22 UNK         0.5000 
    122 N         -2.4992  -17.5302  -56.1009 N.am      22 UNK        -0.7600 
    123 O         -0.6998  -16.7441  -57.1135 O.2       22 UNK        -0.5000 
    124 C124        0.7157  -17.9595  -54.6956 C.3       23 UNK        -0.0398 
    125 S125        1.9433  -19.1351  -54.0305 S.3       23 UNK        -0.2404 
    126 C126        3.2430  -18.0012  -53.4526 C.3       23 UNK        -0.0205 
    127 H127       -3.3345  -14.6556  -45.3633 H         1 UNK         0.0600 
    128 H128       -4.3967  -13.2466  -45.4173 H         1 UNK         0.0600 
    129 H129       -3.0169  -13.2672  -44.3161 H         1 UNK         0.0600 
    130 H130       -2.0624  -14.7314  -47.1914 H         1 UNK         0.3000 
    131 H131       -1.5663  -12.4652  -48.8596 H         1 UNK         0.0600 
    132 H132       -0.2118  -15.2104  -49.0467 H         1 UNK         0.0800 
    133 H133       -1.8240  -14.9088  -49.5835 H         1 UNK         0.0800 
    134 H134        1.8682  -13.3916  -50.1184 H         1 UNK         0.0800 
    135 H135        1.9001  -13.4146  -51.8519 H         1 UNK         0.0800 
    136 H136        2.1619  -15.5117  -53.1082 H         1 UNK         0.1150 
    137 H137        3.4832  -18.9512  -50.9189 H         1 UNK         0.1150 
    138 H138        2.0290  -15.5094  -48.8248 H         1 UNK         0.1150 
    139 H139        4.0658  -18.1090  -48.2376 H         1 UNK         0.0800 
    140 H140        2.6088  -17.4258  -47.5590 H         1 UNK         0.0800 
    141 H141        0.1094  -19.0404  -49.2019 H         1 UNK         0.0800 
    142 H142        0.3060  -18.4298  -47.5693 H         1 UNK         0.0800 
    143 H143        0.0159  -21.3840  -48.2484 H         1 UNK         0.0600 
    144 H144        0.5349  -20.0966  -45.7414 H         1 UNK         0.3000 
    145 H145       -0.1491  -23.0876  -43.8320 H         1 UNK         0.0600 
    146 H146        2.3353  -21.3960  -44.4322 H         1 UNK         0.0600 
    147 H147        2.1230  -22.4853  -43.0637 H         1 UNK         0.0600 
    148 H148        2.1966  -23.1297  -44.6969 H         1 UNK         0.0600 
    149 H149        0.5392  -20.4828  -42.9533 H         1 UNK         0.3000 
    150 H150       -2.8175  -19.2659  -42.4929 H         1 UNK         0.0600 
    151 H151       -2.1841  -20.6816  -40.5227 H         1 UNK         0.0600 
    152 H152       -1.8970  -18.9744  -40.2216 H         1 UNK         0.0600 
    153 H153       -0.5448  -20.0426  -40.5890 H         1 UNK         0.0600 
    154 H154       -0.3386  -18.0010  -41.9906 H         1 UNK         0.3000 
    155 H155        0.0564  -16.4697  -45.2324 H         1 UNK         0.0600 
    156 H156       -0.4796  -15.4645  -42.3885 H         1 UNK         0.0600 
    157 H157        0.2422  -14.5306  -43.6937 H         1 UNK         0.0600 
    158 H158       -1.4284  -15.0621  -43.8078 H         1 UNK         0.0600 
    159 H159        1.7846  -16.3979  -43.0137 H         1 UNK         0.3000 
    160 H160        3.7418  -19.3061  -43.7761 H         1 UNK         0.0600 
    161 H161        4.5969  -17.4462  -45.1904 H         1 UNK         0.0600 
    162 H162        5.4892  -17.5345  -43.6786 H         1 UNK         0.0600 
    163 H163        4.2636  -16.2884  -43.9112 H         1 UNK         0.0600 
    164 H164        3.7891  -17.3144  -41.6904 H         1 UNK         0.3000 
    165 H165        1.8447  -19.1646  -39.3326 H         1 UNK         0.0600 
    166 H166        3.9127  -18.8091  -38.0178 H         1 UNK         0.0600 
    167 H167        4.1753  -20.0623  -39.2198 H         1 UNK         0.0600 
    168 H168        4.8237  -18.4480  -39.4841 H         1 UNK         0.0600 
    169 H169        3.1561  -16.6266  -39.1925 H         1 UNK         0.3000 
    170 H170        0.4198  -14.6444  -40.3237 H         1 UNK         0.0600 
    171 H171       -0.1625  -15.2410  -37.9664 H         1 UNK         0.0600 
    172 H172        1.5272  -15.0836  -37.5011 H         1 UNK         0.0600 
    173 H173        0.6256  -13.6749  -38.0622 H         1 UNK         0.0600 
    174 H174        2.8345  -13.7910  -39.2179 H         1 UNK         0.3000 
    175 H175        4.4070  -12.8394  -40.3884 H         1 UNK         0.0600 
    176 H176        5.4644  -14.8338  -42.4655 H         1 UNK         0.0600 
    177 H177        6.4163  -13.6458  -41.5808 H         1 UNK         0.0600 
    178 H178        5.6624  -14.9807  -40.7234 H         1 UNK         0.0600 
    179 H179        4.4277  -12.8104  -43.3265 H         1 UNK         0.3000 
    180 H180        2.3214   -9.9846  -43.6246 H         1 UNK         0.0600 
    181 H181        5.3653  -10.1012  -43.9778 H         1 UNK         0.0600 
    182 H182        4.4861   -8.8937  -43.0482 H         1 UNK         0.0600 
    183 H183        4.2702   -8.9809  -44.7889 H         1 UNK         0.0600 
    184 H184        3.9922  -11.5412  -45.4180 H         1 UNK         0.3000 
    185 H185        2.8571  -12.6739  -47.1128 H         1 UNK         0.0600 
    186 H186        3.0402  -15.1476  -46.6914 H         1 UNK         0.0600 
    187 H187        3.9296  -14.2186  -45.5001 H         1 UNK         0.0600 
    188 H188        2.3742  -14.9102  -45.0762 H         1 UNK         0.0600 
    189 H189        0.4731  -14.3011  -46.5594 H         1 UNK         0.3000 
    190 H190       -2.1235  -19.6218  -45.9916 H         1 UNK         0.3000 
    191 H191       -4.4002  -19.5685  -47.7205 H         1 UNK         0.0600 
    192 H192       -4.2162  -19.6121  -44.6655 H         1 UNK         0.0600 
    193 H193       -5.6748  -19.2678  -45.5868 H         1 UNK         0.0600 
    194 H194       -4.2998  -18.1816  -45.6932 H         1 UNK         0.0600 
    195 H195       -3.1954  -22.0347  -45.3903 H         1 UNK         0.3000 
    196 H196       -5.3132  -23.9088  -45.7863 H         1 UNK         0.0600 
    197 H197       -3.7350  -25.5239  -44.7389 H         1 UNK         0.0600 
    198 H198       -3.7829  -24.0134  -43.8419 H         1 UNK         0.0600 
    199 H199       -2.4175  -24.3699  -44.8949 H         1 UNK         0.0600 
    200 H200       -2.1352  -23.5023  -47.4150 H         1 UNK         0.3000 
    201 H201       -2.3684  -25.6474  -49.2412 H         1 UNK         0.0600 
    202 H202       -0.2526  -24.3675  -48.7974 H         1 UNK         0.0600 
    203 H203       -0.9180  -22.9850  -49.6678 H         1 UNK         0.0600 
    204 H204       -0.6139  -24.4917  -50.5134 H         1 UNK         0.0600 
    205 H205       -3.4426  -22.2255  -49.5523 H         1 UNK         0.3000 
    206 H206       -4.5200  -22.4176  -52.1611 H         1 UNK         0.0600 
    207 H207       -3.9938  -20.2593  -51.0965 H         1 UNK         0.0600 
    208 H208       -5.6992  -20.2894  -51.5115 H         1 UNK         0.0600 
    209 H209       -5.2050  -20.5351  -49.8471 H         1 UNK         0.0600 
    210 H210       -5.9130  -23.4063  -49.0818 H         1 UNK         0.3000 
    211 H211       -8.6044  -23.7929  -50.1448 H         1 UNK         0.0600 
    212 H212       -7.3092  -24.8176  -47.5636 H         1 UNK         0.0600 
    213 H213       -9.0218  -24.8656  -47.9562 H         1 UNK         0.0600 
    214 H214       -8.2181  -23.3185  -47.7319 H         1 UNK         0.0600 
    215 H215       -5.7242  -25.8266  -49.5065 H         1 UNK         0.3000 
    216 H216       -6.9204  -28.3187  -50.2351 H         1 UNK         0.0600 
    217 H217       -4.5674  -29.1429  -50.1572 H         1 UNK         0.0600 
    218 H218       -4.9450  -28.1563  -48.7522 H         1 UNK         0.0600 
    219 H219       -3.9759  -27.4885  -50.0628 H         1 UNK         0.0600 
    220 H220       -4.7818  -26.0591  -52.0416 H         1 UNK         0.3000 
    221 H221       -5.5470  -27.3347  -54.6417 H         1 UNK         0.0600 
    222 H222       -2.8822  -26.0718  -53.7769 H         1 UNK         0.0600 
    223 H223       -3.1588  -27.7781  -54.1156 H         1 UNK         0.0600 
    224 H224       -3.2812  -26.5946  -55.4103 H         1 UNK         0.0600 
    225 H225       -7.1448  -26.0117  -55.1969 H         1 UNK         0.3000 
    226 H226       -8.0878  -23.7700  -54.3342 H         1 UNK         0.0600 
    227 H227       -9.2006  -25.1258  -56.0278 H         1 UNK         0.0600 
    228 H228       -9.2038  -23.4525  -56.5593 H         1 UNK         0.0600 
    229 H229       -8.0714  -24.5941  -57.2739 H         1 UNK         0.0600 
    230 H230       -7.0334  -22.0507  -53.7125 H         1 UNK         0.3000 
    231 H231       -6.4351  -19.9456  -53.7083 H         1 UNK         0.0600 
    232 H232       -6.3568  -18.5063  -55.6784 H         1 UNK         0.0600 
    233 H233       -7.7557  -19.5606  -55.7946 H         1 UNK         0.0600 
    234 H234       -6.3154  -19.8859  -56.7609 H         1 UNK         0.0600 
    235 H235       -4.4224  -22.3693  -54.8073 H         1 UNK         0.3000 
    236 H236       -2.2545  -22.7009  -55.1410 H         1 UNK         0.0600 
    237 H237       -0.8111  -21.8246  -53.2323 H         1 UNK         0.0600 
    238 H238       -2.2792  -22.6283  -52.7375 H         1 UNK         0.0600 
    239 H239       -2.1909  -20.8693  -52.6888 H         1 UNK         0.0600 
    240 H240       -1.0667  -19.6739  -53.9958 H         1 UNK         0.3000 
    241 H241        0.2904  -19.0814  -56.4749 H         1 UNK         0.0600 
    242 H242       -3.0675  -16.8313  -56.5514 H         1 UNK         0.3800 
    243 H243       -2.9340  -18.1944  -55.4634 H         1 UNK         0.3800 
    244 H244        1.2533  -17.1586  -55.2064 H         1 UNK         0.0800 
    245 H245        0.1899  -17.4935  -53.8603 H         1 UNK         0.0800 
    246 H246        4.1600  -18.5722  -53.2996 H         1 UNK         0.0800 
    247 H247        3.4722  -17.2691  -54.2285 H         1 UNK         0.0800 
@<TRIPOS>BOND
     1    1    2 1    
     2    1  127 1    
     3    1  128 1    
     4    1  129 1    
     5    2    3 2    
     6    2    4 am   BACKBONE|DICT|INTERRES
     7    4    5 1    
     8    4  130 1    
     9    5    6 1    
    10    5   65 1    
    11    5  131 1    
    12    6    7 1    
    13    6  132 1    
    14    6  133 1    
    15    7    8 1    
    16    8    9 1    
    17    8  134 1    
    18    8  135 1    
    19    9   10 ar   
    20    9   14 ar   
    21   10   11 ar   
    22   10  136 1    
    23   11   12 ar   
    24   11  126 1    
    25   12   13 ar   
    26   12  137 1    
    27   13   14 ar   
    28   13   15 1    
    29   14  138 1    
    30   15   16 1    
    31   15  139 1    
    32   15  140 1    
    33   16   17 1    
    34   17   18 1    
    35   17  141 1    
    36   17  142 1    
    37   18   19 1    
    38   18   67 1    
    39   18  143 1    
    40   19   20 am   BACKBONE|DICT|INTERRES
    41   19  144 1    
    42   20   21 2    
    43   20   22 1    
    44   22   23 1    
    45   22   24 1    
    46   22  145 1    
    47   23  146 1    
    48   23  147 1    
    49   23  148 1    
    50   24   25 am   BACKBONE|DICT|INTERRES
    51   24  149 1    
    52   25   26 2    
    53   25   27 1    
    54   27   28 1    
    55   27   29 1    
    56   27  150 1    
    57   28  151 1    
    58   28  152 1    
    59   28  153 1    
    60   29   30 am   BACKBONE|DICT|INTERRES
    61   29  154 1    
    62   30   31 2    
    63   30   32 1    
    64   32   33 1    
    65   32   34 1    
    66   32  155 1    
    67   33  156 1    
    68   33  157 1    
    69   33  158 1    
    70   34   35 am   BACKBONE|DICT|INTERRES
    71   34  159 1    
    72   35   36 2    
    73   35   37 1    
    74   37   38 1    
    75   37   39 1    
    76   37  160 1    
    77   38  161 1    
    78   38  162 1    
    79   38  163 1    
    80   39   40 am   BACKBONE|DICT|INTERRES
    81   39  164 1    
    82   40   41 2    
    83   40   42 1    
    84   42   43 1    
    85   42   44 1    
    86   42  165 1    
    87   43  166 1    
    88   43  167 1    
    89   43  168 1    
    90   44   45 am   BACKBONE|DICT|INTERRES
    91   44  169 1    
    92   45   46 2    
    93   45   47 1    
    94   47   48 1    
    95   47   49 1    
    96   47  170 1    
    97   48  171 1    
    98   48  172 1    
    99   48  173 1    
   100   49   50 am   BACKBONE|DICT|INTERRES
   101   49  174 1    
   102   50   51 2    
   103   50   52 1    
   104   52   53 1    
   105   52   54 1    
   106   52  175 1    
   107   53  176 1    
   108   53  177 1    
   109   53  178 1    
   110   54   55 am   BACKBONE|DICT|INTERRES
   111   54  179 1    
   112   55   56 2    
   113   55   57 1    
   114   57   58 1    
   115   57   59 1    
   116   57  180 1    
   117   58  181 1    
   118   58  182 1    
   119   58  183 1    
   120   59   60 am   BACKBONE|DICT|INTERRES
   121   59  184 1    
   122   60   61 2    
   123   60   62 1    
   124   62   63 1    
   125   62   64 1    
   126   62  185 1    
   127   63  186 1    
   128   63  187 1    
   129   63  188 1    
   130   64   65 am   BACKBONE|DICT|INTERRES
   131   64  189 1    
   132   65   66 2    
   133   67   68 2    
   134   67   69 am   BACKBONE|DICT|INTERRES
   135   69   70 1    
   136   69  190 1    
   137   70   71 1    
   138   70   72 1    
   139   70  191 1    
   140   71  192 1    
   141   71  193 1    
   142   71  194 1    
   143   72   73 2    
   144   72   74 am   BACKBONE|DICT|INTERRES
   145   74   75 1    
   146   74  195 1    
   147   75   76 1    
   148   75   77 1    
   149   75  196 1    
   150   76  197 1    
   151   76  198 1    
   152   76  199 1    
   153   77   78 2    
   154   77   79 am   BACKBONE|DICT|INTERRES
   155   79   80 1    
   156   79  200 1    
   157   80   81 1    
   158   80   82 1    
   159   80  201 1    
   160   81  202 1    
   161   81  203 1    
   162   81  204 1    
   163   82   83 2    
   164   82   84 am   BACKBONE|DICT|INTERRES
   165   84   85 1    
   166   84  205 1    
   167   85   86 1    
   168   85   87 1    
   169   85  206 1    
   170   86  207 1    
   171   86  208 1    
   172   86  209 1    
   173   87   88 2    
   174   87   89 am   BACKBONE|DICT|INTERRES
   175   89   90 1    
   176   89  210 1    
   177   90   91 1    
   178   90   92 1    
   179   90  211 1    
   180   91  212 1    
   181   91  213 1    
   182   91  214 1    
   183   92   93 2    
   184   92   94 am   BACKBONE|DICT|INTERRES
   185   94   95 1    
   186   94  215 1    
   187   95   96 1    
   188   95   97 1    
   189   95  216 1    
   190   96  217 1    
   191   96  218 1    
   192   96  219 1    
   193   97   98 2    
   194   97   99 am   BACKBONE|DICT|INTERRES
   195   99  100 1    
   196   99  220 1    
   197  100  101 1    
   198  100  102 1    
   199  100  221 1    
   200  101  222 1    
   201  101  223 1    
   202  101  224 1    
   203  102  103 2    
   204  102  104 am   BACKBONE|DICT|INTERRES
   205  104  105 1    
   206  104  225 1    
   207  105  106 1    
   208  105  107 1    
   209  105  226 1    
   210  106  227 1    
   211  106  228 1    
   212  106  229 1    
   213  107  108 2    
   214  107  109 am   BACKBONE|DICT|INTERRES
   215  109  110 1    
   216  109  230 1    
   217  110  111 1    
   218  110  112 1    
   219  110  231 1    
   220  111  232 1    
   221  111  233 1    
   222  111  234 1    
   223  112  113 2    
   224  112  114 am   BACKBONE|DICT|INTERRES
   225  114  115 1    
   226  114  235 1    
   227  115  116 1    
   228  115  117 1    
   229  115  236 1    
   230  116  237 1    
   231  116  238 1    
   232  116  239 1    
   233  117  118 2    
   234  117  119 am   BACKBONE|DICT|INTERRES
   235  119  120 1    
   236  119  240 1    
   237  120  121 1    
   238  120  124 1    
   239  120  241 1    
   240  121  122 am   BACKBONE|DICT|INTERRES
   241  121  123 2    
   242  122  242 1    
   243  122  243 1    
   244  124  125 1    
   245  124  244 1    
   246  124  245 1    
   247  125  126 1    
   248  126  246 1    
   249  126  247 1    
@<TRIPOS>SUBSTRUCTURE
     1 UNK         1 GROUP             0       ****    0 ROOT    
