@<TRIPOS>MOLECULE
3R540
247   249    1
SMALL
USER_CHARGES


@<TRIPOS>ATOM
      1 CA         -5.1373  -16.3820  -49.4426 C.3       0 UNK        -0.1800 
      2 C          -4.0877  -15.3241  -49.1376 C.2       0 UNK         0.5000 
      3 O          -4.3617  -14.1310  -49.2653 O.2       0 UNK        -0.5000 
      4 N          -2.8936  -15.7494  -48.7059 N.am      1 UNK        -0.5000 
      5 CA         -1.7531  -14.8995  -48.3376 C.3       1 UNK         0.1400 
      6 C6         -0.4152  -15.6648  -48.5223 C.3       23 UNK        -0.0398 
      7 S7          1.0327  -14.5585  -48.6495 S.3       23 UNK        -0.2404 
      8 C8          1.3419  -14.5337  -50.4455 C.3       23 UNK        -0.0205 
      9 C9          1.7838  -15.8836  -50.9986 C.ar      23 UNK        -0.0193 
     10 C10         1.1377  -16.4274  -52.1130 C.ar      23 UNK        -0.1150 
     11 C11         1.5483  -17.6530  -52.6446 C.ar      23 UNK        -0.0193 
     12 C12         2.6103  -18.3392  -52.0494 C.ar      23 UNK        -0.1150 
     13 C13         3.2653  -17.8085  -50.9339 C.ar      23 UNK        -0.0193 
     14 C14         2.8509  -16.5776  -50.4182 C.ar      23 UNK        -0.1150 
     15 C15         4.4446  -18.5422  -50.3100 C.3       23 UNK        -0.0205 
     16 S16         4.0115  -20.2104  -49.7235 S.3       23 UNK        -0.2404 
     17 C17         3.0404  -19.8565  -48.2193 C.3       23 UNK        -0.0398 
     18 CA          2.0697  -21.0196  -47.8849 C.3       11 UNK         0.1400 
     19 N           1.9300  -21.2391  -46.4413 N.am      11 UNK        -0.5000 
     20 C           1.4488  -22.3666  -45.8959 C.2       10 UNK         0.5000 
     21 O           1.1135  -23.3544  -46.5497 O.2       10 UNK        -0.5000 
     22 CA          1.2882  -22.3926  -44.3650 C.3       10 UNK         0.1400 
     23 CB          2.6113  -22.7765  -43.6860 C.3       10 UNK        -0.1800 
     24 N           0.8009  -21.1246  -43.8205 N.am      10 UNK        -0.5000 
     25 C          -0.4088  -20.6057  -44.0744 C.2       9 UNK         0.5000 
     26 O          -1.2574  -21.1657  -44.7672 O.2       9 UNK        -0.5000 
     27 CA         -0.7025  -19.2056  -43.5045 C.3       9 UNK         0.1400 
     28 CB         -1.0844  -19.2898  -42.0190 C.3       9 UNK        -0.1800 
     29 N           0.4233  -18.2862  -43.6691 N.am      9 UNK        -0.5000 
     30 C           0.9395  -17.9079  -44.8477 C.2       8 UNK         0.5000 
     31 O           0.4887  -18.2581  -45.9375 O.2       8 UNK        -0.5000 
     32 CA          2.2169  -17.0532  -44.7944 C.3       8 UNK         0.1400 
     33 CB          1.8929  -15.5780  -44.5177 C.3       8 UNK        -0.1800 
     34 N           3.1529  -17.5473  -43.7847 N.am      8 UNK        -0.5000 
     35 C           3.8229  -18.7043  -43.8792 C.2       7 UNK         0.5000 
     36 O           3.7384  -19.4658  -44.8421 O.2       7 UNK        -0.5000 
     37 CA          4.7017  -19.0922  -42.6766 C.3       7 UNK         0.1400 
     38 CB          6.0626  -18.3836  -42.7476 C.3       7 UNK        -0.1800 
     39 N           4.0615  -18.7897  -41.3956 N.am      7 UNK        -0.5000 
     40 C           2.9624  -19.4056  -40.9382 C.2       6 UNK         0.5000 
     41 O           2.3909  -20.3161  -41.5356 O.2       6 UNK        -0.5000 
     42 CA          2.3738  -18.8819  -39.6157 C.3       6 UNK         0.1400 
     43 CB          3.0593  -19.5524  -38.4160 C.3       6 UNK        -0.1800 
     44 N           2.4588  -17.4251  -39.4753 N.am      6 UNK        -0.5000 
     45 C           1.8749  -16.5473  -40.3003 C.2       5 UNK         0.5000 
     46 O           1.2372  -16.8687  -41.3079 O.2       5 UNK        -0.5000 
     47 CA          2.0647  -15.0631  -39.9685 C.3       5 UNK         0.1400 
     48 CB          3.3924  -14.5415  -40.5414 C.3       5 UNK        -0.1800 
     49 N           0.9600  -14.3316  -40.5712 N.am      5 UNK        -0.5000 
     50 C           0.2836  -13.3204  -40.0194 C.2       4 UNK         0.5000 
     51 O           0.5830  -12.8029  -38.9424 O.2       4 UNK        -0.5000 
     52 CA         -0.9385  -12.7971  -40.8005 C.3       4 UNK         0.1400 
     53 CB         -0.6080  -11.4630  -41.4880 C.3       4 UNK        -0.1800 
     54 N          -1.4272  -13.7338  -41.8159 N.am      4 UNK        -0.5000 
     55 C          -2.1239  -14.8539  -41.5725 C.2       3 UNK         0.5000 
     56 O          -2.4177  -15.2397  -40.4403 O.2       3 UNK        -0.5000 
     57 CA         -2.5505  -15.6702  -42.8130 C.3       3 UNK         0.1400 
     58 CB         -3.7594  -16.5929  -42.5554 C.3       3 UNK        -0.1800 
     59 N          -2.7656  -14.8285  -43.9954 N.am      3 UNK        -0.5000 
     60 C          -3.6723  -13.8572  -44.1691 C.2       2 UNK         0.5000 
     61 O          -4.5608  -13.5972  -43.3574 O.2       2 UNK        -0.5000 
     62 CA         -3.5591  -12.9997  -45.4494 C.3       2 UNK         0.1400 
     63 CB         -2.6960  -11.7522  -45.1792 C.3       2 UNK        -0.1800 
     64 N          -3.0988  -13.6920  -46.6642 N.am      2 UNK        -0.5000 
     65 C          -1.9294  -14.2961  -46.9206 C.2       1 UNK         0.5000 
     66 O          -1.0394  -14.4158  -46.0790 O.2       1 UNK        -0.5000 
     67 C           0.7045  -20.8560  -48.5889 C.2       11 UNK         0.5000 
     68 O           0.5730  -21.2564  -49.7444 O.2       11 UNK        -0.5000 
     69 N          -0.2893  -20.2958  -47.8832 N.am      12 UNK        -0.5000 
     70 CA         -1.6705  -20.1907  -48.3499 C.3       12 UNK         0.1400 
     71 CB         -2.4150  -19.1264  -47.5302 C.3       12 UNK        -0.1800 
     72 C          -2.4191  -21.5333  -48.3029 C.2       12 UNK         0.5000 
     73 O          -3.1512  -21.8483  -49.2431 O.2       12 UNK        -0.5000 
     74 N          -2.1981  -22.2928  -47.2216 N.am      13 UNK        -0.5000 
     75 CA         -2.7829  -23.5948  -46.8930 C.3       13 UNK         0.1400 
     76 CB         -2.4117  -24.6502  -47.9566 C.3       13 UNK        -0.1800 
     77 C          -4.3026  -23.5391  -46.6263 C.2       13 UNK         0.5000 
     78 O          -4.9118  -22.4648  -46.6300 O.2       13 UNK        -0.5000 
     79 N          -4.8864  -24.7159  -46.3601 N.am      14 UNK        -0.5000 
     80 CA         -6.3120  -24.9146  -46.0980 C.3       14 UNK         0.1400 
     81 CB         -6.5650  -26.3953  -45.7777 C.3       14 UNK        -0.1800 
     82 C          -7.1791  -24.4612  -47.2850 C.2       14 UNK         0.5000 
     83 O          -6.8659  -24.7941  -48.4304 O.2       14 UNK        -0.5000 
     84 N          -8.2252  -23.6782  -46.9859 N.am      15 UNK        -0.5000 
     85 CA         -9.1748  -23.0715  -47.9301 C.3       15 UNK         0.1400 
     86 CB        -10.0499  -24.1630  -48.5819 C.3       15 UNK        -0.1800 
     87 C          -8.5210  -22.1419  -48.9803 C.2       15 UNK         0.5000 
     88 O          -9.1240  -21.8921  -50.0251 O.2       15 UNK        -0.5000 
     89 N          -7.2994  -21.6614  -48.6920 N.am      16 UNK        -0.5000 
     90 CA         -6.4209  -20.8799  -49.5686 C.3       16 UNK         0.1400 
     91 CB         -7.0313  -19.4933  -49.8651 C.3       16 UNK        -0.1800 
     92 C          -6.0041  -21.6351  -50.8519 C.2       16 UNK         0.5000 
     93 O          -5.7077  -20.9974  -51.8628 O.2       16 UNK        -0.5000 
     94 N          -5.9874  -22.9764  -50.8052 N.am      17 UNK        -0.5000 
     95 CA         -5.7378  -23.8424  -51.9591 C.3       17 UNK         0.1400 
     96 CB         -5.9764  -25.3055  -51.5595 C.3       17 UNK        -0.1800 
     97 C          -4.3401  -23.6740  -52.5808 C.2       17 UNK         0.5000 
     98 O          -4.2204  -23.6619  -53.8069 O.2       17 UNK        -0.5000 
     99 N          -3.3114  -23.5214  -51.7368 N.am      18 UNK        -0.5000 
    100 CA        -1.9360  -23.3099  -52.1861 C.3       18 UNK         0.1400 
    101 CB        -0.9466  -23.7806  -51.1137 C.3       18 UNK        -0.1800 
    102 C         -1.6858  -21.8522  -52.6092 C.2       18 UNK         0.5000 
    103 O         -0.8878  -21.6323  -53.5192 O.2       18 UNK        -0.5000 
    104 N         -2.4128  -20.8959  -52.0087 N.am      19 UNK        -0.5000 
    105 CA        -2.4530  -19.4961  -52.4435 C.3       19 UNK         0.1400 
    106 CB        -3.1801  -18.6147  -51.4124 C.3       19 UNK        -0.1800 
    107 C         -3.0793  -19.3343  -53.8404 C.2       19 UNK         0.5000 
    108 O         -2.5611  -18.5703  -54.6541 O.2       19 UNK        -0.5000 
    109 N         -4.1713  -20.0674  -54.0944 N.am      20 UNK        -0.5000 
    110 CA        -4.8623  -20.1102  -55.3820 C.3       20 UNK         0.1400 
    111 CB        -6.1974  -20.8530  -55.2195 C.3       20 UNK        -0.1800 
    112 C         -4.0109  -20.7490  -56.4951 C.2       20 UNK         0.5000 
    113 O         -4.0326  -20.2614  -57.6259 O.2       20 UNK        -0.5000 
    114 N         -3.2773  -21.8185  -56.1564 N.am      21 UNK        -0.5000 
    115 CA        -2.3662  -22.5147  -57.0629 C.3       21 UNK         0.1400 
    116 CB        -2.0375  -23.9040  -56.4913 C.3       21 UNK        -0.1800 
    117 C         -1.0875  -21.7006  -57.3355 C.2       21 UNK         0.5000 
    118 O         -0.8229  -21.3451  -58.4845 O.2       21 UNK        -0.5000 
    119 N         -0.3239  -21.4265  -56.2698 N.am      22 UNK        -0.5000 
    120 CA         0.9525  -20.6929  -56.2604 C.3       22 UNK         0.1400 
    121 C          2.0987  -21.3130  -57.1210 C.2       22 UNK         0.5000 
    122 N          2.0726  -22.6097  -57.4053 N.am      22 UNK        -0.7600 
    123 O          3.0370  -20.6278  -57.5185 O.2       22 UNK        -0.5000 
    124 C124        0.7502  -19.1637  -56.4702 C.3       23 UNK        -0.0398 
    125 S125        1.8124  -18.1667  -55.3671 S.3       23 UNK        -0.2404 
    126 C126        0.8276  -18.2532  -53.8405 C.3       23 UNK        -0.0205 
    127 H127       -5.3693  -16.3850  -50.5075 H         1 UNK         0.0600 
    128 H128       -6.0551  -16.1707  -48.8940 H         1 UNK         0.0600 
    129 H129       -4.7996  -17.3789  -49.1617 H         1 UNK         0.0600 
    130 H130       -2.7495  -16.7393  -48.5800 H         1 UNK         0.3000 
    131 H131       -1.7399  -14.0554  -49.0307 H         1 UNK         0.0600 
    132 H132       -0.4590  -16.2790  -49.4225 H         1 UNK         0.0800 
    133 H133       -0.2455  -16.3647  -47.7030 H         1 UNK         0.0800 
    134 H134        2.1221  -13.8012  -50.6557 H         1 UNK         0.0800 
    135 H135        0.4425  -14.1791  -50.9515 H         1 UNK         0.0800 
    136 H136        0.3152  -15.8953  -52.5702 H         1 UNK         0.1150 
    137 H137        2.9286  -19.2889  -52.4565 H         1 UNK         0.1150 
    138 H138        3.3600  -16.1539  -49.5639 H         1 UNK         0.1150 
    139 H139        5.2325  -18.6302  -51.0591 H         1 UNK         0.0800 
    140 H140        4.8713  -17.9724  -49.4830 H         1 UNK         0.0800 
    141 H141        2.5152  -18.9034  -48.3112 H         1 UNK         0.0800 
    142 H142        3.7653  -19.7207  -47.4172 H         1 UNK         0.0800 
    143 H143        2.5057  -21.9411  -48.2780 H         1 UNK         0.0600 
    144 H144        2.2405  -20.4908  -45.8310 H         1 UNK         0.3000 
    145 H145        0.5511  -23.1617  -44.1247 H         1 UNK         0.0600 
    146 H146        2.4820  -22.8929  -42.6099 H         1 UNK         0.0600 
    147 H147        2.9887  -23.7242  -44.0720 H         1 UNK         0.0600 
    148 H148        3.3825  -22.0238  -43.8508 H         1 UNK         0.0600 
    149 H149        1.4242  -20.6347  -43.1851 H         1 UNK         0.3000 
    150 H150       -1.5505  -18.7908  -44.0534 H         1 UNK         0.0600 
    151 H151       -1.9860  -19.8882  -41.8831 H         1 UNK         0.0600 
    152 H152       -1.2801  -18.3033  -41.5997 H         1 UNK         0.0600 
    153 H153       -0.2942  -19.7486  -41.4251 H         1 UNK         0.0600 
    154 H154        0.8432  -17.9238  -42.8169 H         1 UNK         0.3000 
    155 H155        2.7045  -17.1156  -45.7699 H         1 UNK         0.0600 
    156 H156        1.3133  -15.4479  -43.6039 H         1 UNK         0.0600 
    157 H157        1.3143  -15.1554  -45.3382 H         1 UNK         0.0600 
    158 H158        2.8013  -14.9825  -44.4280 H         1 UNK         0.0600 
    159 H159        3.2336  -17.0083  -42.9360 H         1 UNK         0.3000 
    160 H160        4.8750  -20.1694  -42.7246 H         1 UNK         0.0600 
    161 H161        5.9591  -17.3002  -42.6763 H         1 UNK         0.0600 
    162 H162        6.5680  -18.6042  -43.6888 H         1 UNK         0.0600 
    163 H163        6.7201  -18.7120  -41.9424 H         1 UNK         0.0600 
    164 H164        4.4673  -18.0507  -40.8410 H         1 UNK         0.3000 
    165 H165        1.3165  -19.1538  -39.5977 H         1 UNK         0.0600 
    166 H166        2.5867  -19.2608  -37.4779 H         1 UNK         0.0600 
    167 H167        2.9942  -20.6391  -38.4866 H         1 UNK         0.0600 
    168 H168        4.1163  -19.2899  -38.3562 H         1 UNK         0.0600 
    169 H169        2.9744  -17.0808  -38.6780 H         1 UNK         0.3000 
    170 H170        2.0545  -14.9434  -38.8831 H         1 UNK         0.0600 
    171 H171        4.2426  -15.0734  -40.1127 H         1 UNK         0.0600 
    172 H172        3.4391  -14.6615  -41.6247 H         1 UNK         0.0600 
    173 H173        3.5263  -13.4829  -40.3179 H         1 UNK         0.0600 
    174 H174        0.5999  -14.7495  -41.4181 H         1 UNK         0.3000 
    175 H175       -1.7390  -12.6222  -40.0787 H         1 UNK         0.0600 
    176 H176        0.1822  -11.5780  -42.2311 H         1 UNK         0.0600 
    177 H177       -1.4836  -11.0499  -41.9896 H         1 UNK         0.0600 
    178 H178       -0.2711  -10.7216  -40.7624 H         1 UNK         0.0600 
    179 H179       -1.2340  -13.4948  -42.7773 H         1 UNK         0.3000 
    180 H180       -1.6983  -16.3063  -43.0538 H         1 UNK         0.0600 
    181 H181       -4.0100  -17.1695  -43.4457 H         1 UNK         0.0600 
    182 H182       -4.6445  -16.0302  -42.2585 H         1 UNK         0.0600 
    183 H183       -3.5470  -17.3058  -41.7582 H         1 UNK         0.0600 
    184 H184       -2.0546  -14.8982  -44.7225 H         1 UNK         0.3000 
    185 H185       -4.5694  -12.6559  -45.6764 H         1 UNK         0.0600 
    186 H186       -3.0836  -11.1848  -44.3319 H         1 UNK         0.0600 
    187 H187       -1.6623  -12.0127  -44.9499 H         1 UNK         0.0600 
    188 H188       -2.6895  -11.0841  -46.0403 H         1 UNK         0.0600 
    189 H189       -3.7628  -13.6863  -47.4330 H         1 UNK         0.3000 
    190 H190       -0.0824  -19.9118  -46.9673 H         1 UNK         0.3000 
    191 H191       -1.6389  -19.8719  -49.3898 H         1 UNK         0.0600 
    192 H192       -3.4292  -18.9855  -47.9048 H         1 UNK         0.0600 
    193 H193       -1.9034  -18.1668  -47.5742 H         1 UNK         0.0600 
    194 H194       -2.4925  -19.4089  -46.4800 H         1 UNK         0.0600 
    195 H195       -1.6499  -21.8814  -46.4708 H         1 UNK         0.3000 
    196 H196       -2.3158  -23.8905  -45.9526 H         1 UNK         0.0600 
    197 H197       -2.9498  -24.4924  -48.8912 H         1 UNK         0.0600 
    198 H198       -1.3432  -24.6282  -48.1717 H         1 UNK         0.0600 
    199 H199       -2.6432  -25.6593  -47.6159 H         1 UNK         0.0600 
    200 H200       -4.3235  -25.5526  -46.3930 H         1 UNK         0.3000 
    201 H201       -6.5721  -24.3216  -45.2187 H         1 UNK         0.0600 
    202 H202       -6.2930  -27.0399  -46.6148 H         1 UNK         0.0600 
    203 H203       -7.6185  -26.5722  -45.5568 H         1 UNK         0.0600 
    204 H204       -5.9930  -26.7154  -44.9066 H         1 UNK         0.0600 
    205 H205       -8.3808  -23.4436  -46.0150 H         1 UNK         0.3000 
    206 H206       -9.8306  -22.4346  -47.3350 H         1 UNK         0.0600 
    207 H207      -10.5076  -24.8040  -47.8285 H         1 UNK         0.0600 
    208 H208      -10.8598  -23.7225  -49.1643 H         1 UNK         0.0600 
    209 H209       -9.4712  -24.7966  -49.2549 H         1 UNK         0.0600 
    210 H210       -6.8772  -21.9465  -47.8168 H         1 UNK         0.3000 
    211 H211       -5.5037  -20.7149  -49.0036 H         1 UNK         0.0600 
    212 H212       -6.3406  -18.8709  -50.4328 H         1 UNK         0.0600 
    213 H213       -7.2646  -18.9600  -48.9437 H         1 UNK         0.0600 
    214 H214       -7.9465  -19.5676  -50.4521 H         1 UNK         0.0600 
    215 H215       -6.2431  -23.4400  -49.9402 H         1 UNK         0.3000 
    216 H216       -6.4681  -23.5797  -52.7272 H         1 UNK         0.0600 
    217 H217       -5.3080  -25.6164  -50.7555 H         1 UNK         0.0600 
    218 H218       -5.8112  -25.9754  -52.4044 H         1 UNK         0.0600 
    219 H219       -7.0010  -25.4582  -51.2193 H         1 UNK         0.0600 
    220 H220       -3.4907  -23.4321  -50.7442 H         1 UNK         0.3000 
    221 H221       -1.7610  -23.9318  -53.0664 H         1 UNK         0.0600 
    222 H222       -1.0698  -24.8427  -50.9026 H         1 UNK         0.0600 
    223 H223       -1.0731  -23.2377  -50.1806 H         1 UNK         0.0600 
    224 H224        0.0830  -23.6292  -51.4404 H         1 UNK         0.0600 
    225 H225       -3.0328  -21.1706  -51.2564 H         1 UNK         0.3000 
    226 H226       -1.4264  -19.1384  -52.5042 H         1 UNK         0.0600 
    227 H227       -4.0214  -19.1305  -50.9530 H         1 UNK         0.0600 
    228 H228       -2.5051  -18.2932  -50.6221 H         1 UNK         0.0600 
    229 H229       -3.5657  -17.7016  -51.8685 H         1 UNK         0.0600 
    230 H230       -4.5868  -20.6021  -53.3354 H         1 UNK         0.3000 
    231 H231       -5.0805  -19.0823  -55.6790 H         1 UNK         0.0600 
    232 H232       -6.0488  -21.8829  -54.8938 H         1 UNK         0.0600 
    233 H233       -6.7465  -20.8812  -56.1614 H         1 UNK         0.0600 
    234 H234       -6.8348  -20.3604  -54.4850 H         1 UNK         0.0600 
    235 H235       -3.3613  -22.1865  -55.2168 H         1 UNK         0.3000 
    236 H236       -2.8771  -22.6622  -58.0169 H         1 UNK         0.0600 
    237 H237       -2.9401  -24.5057  -56.3820 H         1 UNK         0.0600 
    238 H238       -1.3620  -24.4487  -57.1520 H         1 UNK         0.0600 
    239 H239       -1.5621  -23.8411  -55.5123 H         1 UNK         0.0600 
    240 H240       -0.6442  -21.7123  -55.3474 H         1 UNK         0.3000 
    241 H241        1.3060  -20.8423  -55.2404 H         1 UNK         0.0600 
    242 H242        2.8157  -23.0118  -57.9552 H         1 UNK         0.3800 
    243 H243        1.3178  -23.1918  -57.0801 H         1 UNK         0.3800 
    244 H244       -0.2852  -18.8810  -56.2734 H         1 UNK         0.0800 
    245 H245        0.9338  -18.8784  -57.5072 H         1 UNK         0.0800 
    246 H246       -0.1212  -17.7427  -54.0076 H         1 UNK         0.0800 
    247 H247        0.5909  -19.2944  -53.6204 H         1 UNK         0.0800 
@<TRIPOS>BOND
     1    1    2 1    
     2    1  127 1    
     3    1  128 1    
     4    1  129 1    
     5    2    3 2    
     6    2    4 am   BACKBONE|DICT|INTERRES
     7    4    5 1    
     8    4  130 1    
     9    5    6 1    
    10    5   65 1    
    11    5  131 1    
    12    6    7 1    
    13    6  132 1    
    14    6  133 1    
    15    7    8 1    
    16    8    9 1    
    17    8  134 1    
    18    8  135 1    
    19    9   10 ar   
    20    9   14 ar   
    21   10   11 ar   
    22   10  136 1    
    23   11   12 ar   
    24   11  126 1    
    25   12   13 ar   
    26   12  137 1    
    27   13   14 ar   
    28   13   15 1    
    29   14  138 1    
    30   15   16 1    
    31   15  139 1    
    32   15  140 1    
    33   16   17 1    
    34   17   18 1    
    35   17  141 1    
    36   17  142 1    
    37   18   19 1    
    38   18   67 1    
    39   18  143 1    
    40   19   20 am   BACKBONE|DICT|INTERRES
    41   19  144 1    
    42   20   21 2    
    43   20   22 1    
    44   22   23 1    
    45   22   24 1    
    46   22  145 1    
    47   23  146 1    
    48   23  147 1    
    49   23  148 1    
    50   24   25 am   BACKBONE|DICT|INTERRES
    51   24  149 1    
    52   25   26 2    
    53   25   27 1    
    54   27   28 1    
    55   27   29 1    
    56   27  150 1    
    57   28  151 1    
    58   28  152 1    
    59   28  153 1    
    60   29   30 am   BACKBONE|DICT|INTERRES
    61   29  154 1    
    62   30   31 2    
    63   30   32 1    
    64   32   33 1    
    65   32   34 1    
    66   32  155 1    
    67   33  156 1    
    68   33  157 1    
    69   33  158 1    
    70   34   35 am   BACKBONE|DICT|INTERRES
    71   34  159 1    
    72   35   36 2    
    73   35   37 1    
    74   37   38 1    
    75   37   39 1    
    76   37  160 1    
    77   38  161 1    
    78   38  162 1    
    79   38  163 1    
    80   39   40 am   BACKBONE|DICT|INTERRES
    81   39  164 1    
    82   40   41 2    
    83   40   42 1    
    84   42   43 1    
    85   42   44 1    
    86   42  165 1    
    87   43  166 1    
    88   43  167 1    
    89   43  168 1    
    90   44   45 am   BACKBONE|DICT|INTERRES
    91   44  169 1    
    92   45   46 2    
    93   45   47 1    
    94   47   48 1    
    95   47   49 1    
    96   47  170 1    
    97   48  171 1    
    98   48  172 1    
    99   48  173 1    
   100   49   50 am   BACKBONE|DICT|INTERRES
   101   49  174 1    
   102   50   51 2    
   103   50   52 1    
   104   52   53 1    
   105   52   54 1    
   106   52  175 1    
   107   53  176 1    
   108   53  177 1    
   109   53  178 1    
   110   54   55 am   BACKBONE|DICT|INTERRES
   111   54  179 1    
   112   55   56 2    
   113   55   57 1    
   114   57   58 1    
   115   57   59 1    
   116   57  180 1    
   117   58  181 1    
   118   58  182 1    
   119   58  183 1    
   120   59   60 am   BACKBONE|DICT|INTERRES
   121   59  184 1    
   122   60   61 2    
   123   60   62 1    
   124   62   63 1    
   125   62   64 1    
   126   62  185 1    
   127   63  186 1    
   128   63  187 1    
   129   63  188 1    
   130   64   65 am   BACKBONE|DICT|INTERRES
   131   64  189 1    
   132   65   66 2    
   133   67   68 2    
   134   67   69 am   BACKBONE|DICT|INTERRES
   135   69   70 1    
   136   69  190 1    
   137   70   71 1    
   138   70   72 1    
   139   70  191 1    
   140   71  192 1    
   141   71  193 1    
   142   71  194 1    
   143   72   73 2    
   144   72   74 am   BACKBONE|DICT|INTERRES
   145   74   75 1    
   146   74  195 1    
   147   75   76 1    
   148   75   77 1    
   149   75  196 1    
   150   76  197 1    
   151   76  198 1    
   152   76  199 1    
   153   77   78 2    
   154   77   79 am   BACKBONE|DICT|INTERRES
   155   79   80 1    
   156   79  200 1    
   157   80   81 1    
   158   80   82 1    
   159   80  201 1    
   160   81  202 1    
   161   81  203 1    
   162   81  204 1    
   163   82   83 2    
   164   82   84 am   BACKBONE|DICT|INTERRES
   165   84   85 1    
   166   84  205 1    
   167   85   86 1    
   168   85   87 1    
   169   85  206 1    
   170   86  207 1    
   171   86  208 1    
   172   86  209 1    
   173   87   88 2    
   174   87   89 am   BACKBONE|DICT|INTERRES
   175   89   90 1    
   176   89  210 1    
   177   90   91 1    
   178   90   92 1    
   179   90  211 1    
   180   91  212 1    
   181   91  213 1    
   182   91  214 1    
   183   92   93 2    
   184   92   94 am   BACKBONE|DICT|INTERRES
   185   94   95 1    
   186   94  215 1    
   187   95   96 1    
   188   95   97 1    
   189   95  216 1    
   190   96  217 1    
   191   96  218 1    
   192   96  219 1    
   193   97   98 2    
   194   97   99 am   BACKBONE|DICT|INTERRES
   195   99  100 1    
   196   99  220 1    
   197  100  101 1    
   198  100  102 1    
   199  100  221 1    
   200  101  222 1    
   201  101  223 1    
   202  101  224 1    
   203  102  103 2    
   204  102  104 am   BACKBONE|DICT|INTERRES
   205  104  105 1    
   206  104  225 1    
   207  105  106 1    
   208  105  107 1    
   209  105  226 1    
   210  106  227 1    
   211  106  228 1    
   212  106  229 1    
   213  107  108 2    
   214  107  109 am   BACKBONE|DICT|INTERRES
   215  109  110 1    
   216  109  230 1    
   217  110  111 1    
   218  110  112 1    
   219  110  231 1    
   220  111  232 1    
   221  111  233 1    
   222  111  234 1    
   223  112  113 2    
   224  112  114 am   BACKBONE|DICT|INTERRES
   225  114  115 1    
   226  114  235 1    
   227  115  116 1    
   228  115  117 1    
   229  115  236 1    
   230  116  237 1    
   231  116  238 1    
   232  116  239 1    
   233  117  118 2    
   234  117  119 am   BACKBONE|DICT|INTERRES
   235  119  120 1    
   236  119  240 1    
   237  120  121 1    
   238  120  124 1    
   239  120  241 1    
   240  121  122 am   BACKBONE|DICT|INTERRES
   241  121  123 2    
   242  122  242 1    
   243  122  243 1    
   244  124  125 1    
   245  124  244 1    
   246  124  245 1    
   247  125  126 1    
   248  126  246 1    
   249  126  247 1    
@<TRIPOS>SUBSTRUCTURE
     1 UNK         1 GROUP             0       ****    0 ROOT    
