@<TRIPOS>MOLECULE
3R540
247   249    1
SMALL
USER_CHARGES


@<TRIPOS>ATOM
      1 CA          6.2957  -16.2610  -46.2859 C.3       0 UNK        -0.1800 
      2 C           4.8515  -15.7983  -46.1580 C.2       0 UNK         0.5000 
      3 O           4.5082  -15.1396  -45.1773 O.2       0 UNK        -0.5000 
      4 N           4.0110  -16.1508  -47.1413 N.am      1 UNK        -0.5000 
      5 CA          2.5856  -15.8042  -47.2213 C.3       1 UNK         0.1400 
      6 C6          1.9083  -16.5630  -48.3941 C.3       23 UNK        -0.0398 
      7 S7          0.1822  -16.0876  -48.7590 S.3       23 UNK        -0.2404 
      8 C8         -0.0009  -16.6982  -50.4635 C.3       23 UNK        -0.0205 
      9 C9         -0.3140  -18.1845  -50.4823 C.ar      23 UNK        -0.0193 
     10 C10        -1.6426  -18.6124  -50.4898 C.ar      23 UNK        -0.1150 
     11 C11        -1.9549  -19.9722  -50.4698 C.ar      23 UNK        -0.0193 
     12 C12        -0.9198  -20.9095  -50.4293 C.ar      23 UNK        -0.1150 
     13 C13         0.4152  -20.4982  -50.4284 C.ar      23 UNK        -0.0193 
     14 C14         0.7128  -19.1322  -50.4758 C.ar      23 UNK        -0.1150 
     15 C15         1.5252  -21.5384  -50.3552 C.3       23 UNK        -0.0205 
     16 S16         2.7085  -21.2465  -48.9970 S.3       23 UNK        -0.2404 
     17 C17         1.6357  -21.0292  -47.5358 C.3       23 UNK        -0.0398 
     18 CA          1.3776  -22.3490  -46.7632 C.3       11 UNK         0.1400 
     19 N           1.4947  -22.1445  -45.3190 N.am      11 UNK        -0.5000 
     20 C           1.6789  -23.0968  -44.3969 C.2       10 UNK         0.5000 
     21 O           1.8157  -24.2882  -44.6740 O.2       10 UNK        -0.5000 
     22 CA          1.6545  -22.6360  -42.9224 C.3       10 UNK         0.1400 
     23 CB          2.5681  -23.4840  -42.0143 C.3       10 UNK        -0.1800 
     24 N           1.9165  -21.1993  -42.7625 N.am      10 UNK        -0.5000 
     25 C           3.0507  -20.5334  -43.0333 C.2       9 UNK         0.5000 
     26 O           4.0998  -21.0743  -43.3829 O.2       9 UNK        -0.5000 
     27 CA          2.9960  -18.9943  -42.9477 C.3       9 UNK         0.1400 
     28 CB          2.9975  -18.3894  -44.3592 C.3       9 UNK        -0.1800 
     29 N           1.8229  -18.4854  -42.2372 N.am      9 UNK        -0.5000 
     30 C           1.6324  -18.5504  -40.9131 C.2       8 UNK         0.5000 
     31 O           2.4556  -19.0103  -40.1214 O.2       8 UNK        -0.5000 
     32 CA          0.2724  -18.0481  -40.3985 C.3       8 UNK         0.1400 
     33 CB          0.3020  -16.5285  -40.1774 C.3       8 UNK        -0.1800 
     34 N          -0.8185  -18.3862  -41.3157 N.am      8 UNK        -0.5000 
     35 C          -1.3157  -19.6204  -41.4796 C.2       7 UNK         0.5000 
     36 O          -0.9178  -20.6067  -40.8603 O.2       7 UNK        -0.5000 
     37 CA         -2.4195  -19.7867  -42.5386 C.3       7 UNK         0.1400 
     38 CB         -3.7934  -19.4188  -41.9595 C.3       7 UNK        -0.1800 
     39 N          -2.1695  -18.9884  -43.7382 N.am      7 UNK        -0.5000 
     40 C          -1.2108  -19.2538  -44.6351 C.2       6 UNK         0.5000 
     41 O          -0.4561  -20.2239  -44.5647 O.2       6 UNK        -0.5000 
     42 CA         -1.0630  -18.2682  -45.8055 C.3       6 UNK         0.1400 
     43 CB         -1.9828  -18.6916  -46.9563 C.3       6 UNK        -0.1800 
     44 N          -1.3448  -16.8748  -45.4547 N.am      6 UNK        -0.5000 
     45 C          -0.6949  -16.1517  -44.5322 C.2       5 UNK         0.5000 
     46 O           0.1705  -16.6245  -43.7930 O.2       5 UNK        -0.5000 
     47 CA         -1.0815  -14.6618  -44.4263 C.3       5 UNK         0.1400 
     48 CB         -0.0677  -13.8431  -43.6069 C.3       5 UNK        -0.1800 
     49 N          -1.2269  -14.0551  -45.7520 N.am      5 UNK        -0.5000 
     50 C          -2.3697  -13.9931  -46.4481 C.2       4 UNK         0.5000 
     51 O          -3.4277  -14.4597  -46.0236 O.2       4 UNK        -0.5000 
     52 CA         -2.3253  -13.3388  -47.8484 C.3       4 UNK         0.1400 
     53 CB         -3.7064  -12.8083  -48.2926 C.3       4 UNK        -0.1800 
     54 N          -1.3058  -12.2922  -48.0043 N.am      4 UNK        -0.5000 
     55 C          -1.2256  -11.1303  -47.3399 C.2       3 UNK         0.5000 
     56 O          -1.9734  -10.8204  -46.4106 O.2       3 UNK        -0.5000 
     57 CA         -0.1289  -10.1475  -47.8092 C.3       3 UNK         0.1400 
     58 CB         -0.1347   -8.8269  -47.0174 C.3       3 UNK        -0.1800 
     59 N           1.2098  -10.7296  -47.7272 N.am      3 UNK        -0.5000 
     60 C           1.7562  -11.5753  -48.6093 C.2       2 UNK         0.5000 
     61 O           1.1794  -11.9554  -49.6302 O.2       2 UNK        -0.5000 
     62 CA          3.1663  -12.1226  -48.2880 C.3       2 UNK         0.1400 
     63 CB          3.8484  -11.4412  -47.0799 C.3       2 UNK        -0.1800 
     64 N           3.1653  -13.5770  -48.0980 N.am      2 UNK        -0.5000 
     65 C           2.3655  -14.2751  -47.2756 C.2       1 UNK         0.5000 
     66 O           1.4994  -13.7669  -46.5633 O.2       1 UNK        -0.5000 
     67 C           0.0038  -22.9559  -47.1180 C.2       11 UNK         0.5000 
     68 O          -0.1064  -23.7123  -48.0837 O.2       11 UNK        -0.5000 
     69 N          -1.0122  -22.6636  -46.2913 N.am      12 UNK        -0.5000 
     70 CA         -2.3746  -23.1912  -46.3930 C.3       12 UNK         0.1400 
     71 CB         -3.2825  -22.4269  -45.4182 C.3       12 UNK        -0.1800 
     72 C          -2.4915  -24.7129  -46.1775 C.2       12 UNK         0.5000 
     73 O          -3.5131  -25.2908  -46.5478 O.2       12 UNK        -0.5000 
     74 N          -1.4473  -25.3443  -45.6200 N.am      13 UNK        -0.5000 
     75 CA         -1.3157  -26.8001  -45.5411 C.3       13 UNK         0.1400 
     76 CB         -0.1582  -27.1559  -44.5963 C.3       13 UNK        -0.1800 
     77 C          -1.1042  -27.4430  -46.9272 C.2       13 UNK         0.5000 
     78 O          -1.5670  -28.5621  -47.1507 O.2       13 UNK        -0.5000 
     79 N          -0.4304  -26.7183  -47.8321 N.am      14 UNK        -0.5000 
     80 CA         -0.2672  -27.0896  -49.2361 C.3       14 UNK         0.1400 
     81 CB          1.1025  -26.6020  -49.7367 C.3       14 UNK        -0.1800 
     82 C          -1.3963  -26.4977  -50.0962 C.2       14 UNK         0.5000 
     83 O          -1.8972  -27.1825  -50.9880 O.2       14 UNK        -0.5000 
     84 N          -1.7599  -25.2340  -49.8169 N.am      15 UNK        -0.5000 
     85 CA         -2.7676  -24.4179  -50.5099 C.3       15 UNK         0.1400 
     86 CB         -4.1791  -25.0149  -50.3412 C.3       15 UNK        -0.1800 
     87 C          -2.4105  -24.1298  -51.9868 C.2       15 UNK         0.5000 
     88 O          -3.3009  -23.8813  -52.8004 O.2       15 UNK        -0.5000 
     89 N          -1.1058  -24.1694  -52.2967 N.am      16 UNK        -0.5000 
     90 CA         -0.5259  -24.2285  -53.6408 C.3       16 UNK         0.1400 
     91 CB          1.0019  -24.3280  -53.5098 C.3       16 UNK        -0.1800 
     92 C          -0.9068  -23.0825  -54.5959 C.2       16 UNK         0.5000 
     93 O          -0.9998  -23.3165  -55.8017 O.2       16 UNK        -0.5000 
     94 N          -1.1161  -21.8734  -54.0579 N.am      17 UNK        -0.5000 
     95 CA         -1.4982  -20.6958  -54.8417 C.3       17 UNK         0.1400 
     96 CB         -1.2161  -19.4279  -54.0239 C.3       17 UNK        -0.1800 
     97 C          -2.9709  -20.7189  -55.2971 C.2       17 UNK         0.5000 
     98 O          -3.2995  -20.0590  -56.2833 O.2       17 UNK        -0.5000 
     99 N          -3.8251  -21.4562  -54.5665 N.am      18 UNK        -0.5000 
    100 CA        -5.2725  -21.6216  -54.7700 C.3       18 UNK         0.1400 
    101 CB        -5.5422  -22.4157  -56.0646 C.3       18 UNK        -0.1800 
    102 C         -6.0933  -20.3099  -54.7030 C.2       18 UNK         0.5000 
    103 O         -7.2324  -20.2745  -55.1717 O.2       18 UNK        -0.5000 
    104 N         -5.5109  -19.2617  -54.1144 N.am      19 UNK        -0.5000 
    105 CA        -6.0374  -17.9098  -53.9699 C.3       19 UNK         0.1400 
    106 CB        -6.0469  -17.1933  -55.3350 C.3       19 UNK        -0.1800 
    107 C         -5.1421  -17.1704  -52.9634 C.2       19 UNK         0.5000 
    108 O         -4.0810  -17.6904  -52.6107 O.2       19 UNK        -0.5000 
    109 N         -5.5775  -15.9753  -52.5357 N.am      20 UNK        -0.5000 
    110 CA        -4.9650  -15.1435  -51.4897 C.3       20 UNK         0.1400 
    111 CB        -3.5458  -14.6807  -51.8864 C.3       20 UNK        -0.1800 
    112 C         -5.0220  -15.8570  -50.1245 C.2       20 UNK         0.5000 
    113 O         -3.9866  -16.1744  -49.5404 O.2       20 UNK        -0.5000 
    114 N         -6.2613  -16.1025  -49.6772 N.am      21 UNK        -0.5000 
    115 CA        -6.6703  -16.9690  -48.5679 C.3       21 UNK         0.1400 
    116 CB        -5.8811  -16.7030  -47.2641 C.3       21 UNK        -0.1800 
    117 C         -6.7069  -18.4468  -49.0106 C.2       21 UNK         0.5000 
    118 O         -6.9185  -18.7185  -50.1952 O.2       21 UNK        -0.5000 
    119 N         -6.5694  -19.3685  -48.0486 N.am      22 UNK        -0.5000 
    120 CA        -6.6905  -20.8320  -48.2117 C.3       22 UNK         0.1400 
    121 C         -8.1466  -21.3394  -48.4526 C.2       22 UNK         0.5000 
    122 N         -9.1774  -20.5361  -48.2182 N.am      22 UNK        -0.7600 
    123 O         -8.3542  -22.4902  -48.8276 O.2       22 UNK        -0.5000 
    124 C124       -5.6843  -21.4462  -49.2267 C.3       23 UNK        -0.0398 
    125 S125       -3.9556  -20.9943  -48.8727 S.3       23 UNK        -0.2404 
    126 C126       -3.4065  -20.4208  -50.5028 C.3       23 UNK        -0.0205 
    127 H127        6.4602  -16.8335  -47.1991 H         1 UNK         0.0600 
    128 H128        6.9653  -15.4010  -46.2984 H         1 UNK         0.0600 
    129 H129        6.5632  -16.8909  -45.4375 H         1 UNK         0.0600 
    130 H130        4.3719  -16.6975  -47.9099 H         1 UNK         0.3000 
    131 H131        2.1168  -16.1502  -46.2976 H         1 UNK         0.0600 
    132 H132        1.9247  -17.6346  -48.1900 H         1 UNK         0.0800 
    133 H133        2.4932  -16.4200  -49.3039 H         1 UNK         0.0800 
    134 H134        0.8956  -16.4860  -51.0473 H         1 UNK         0.0800 
    135 H135       -0.8102  -16.1462  -50.9420 H         1 UNK         0.0800 
    136 H136       -2.4382  -17.8830  -50.5083 H         1 UNK         0.1150 
    137 H137       -1.1511  -21.9606  -50.3829 H         1 UNK         0.1150 
    138 H138        1.7436  -18.8081  -50.4734 H         1 UNK         0.1150 
    139 H139        1.1112  -22.5412  -50.2417 H         1 UNK         0.0800 
    140 H140        2.0691  -21.5373  -51.3004 H         1 UNK         0.0800 
    141 H141        2.1719  -20.3239  -46.8992 H         1 UNK         0.0800 
    142 H142        0.7118  -20.5104  -47.7955 H         1 UNK         0.0800 
    143 H143        2.1359  -23.0832  -47.0440 H         1 UNK         0.0600 
    144 H144        1.2712  -21.2166  -44.9794 H         1 UNK         0.3000 
    145 H145        0.6286  -22.7863  -42.5829 H         1 UNK         0.0600 
    146 H146        2.5359  -23.1312  -40.9835 H         1 UNK         0.0600 
    147 H147        2.2518  -24.5278  -42.0091 H         1 UNK         0.0600 
    148 H148        3.6063  -23.4621  -42.3458 H         1 UNK         0.0600 
    149 H149        1.1130  -20.6452  -42.4989 H         1 UNK         0.3000 
    150 H150        3.8930  -18.6573  -42.4242 H         1 UNK         0.0600 
    151 H151        3.8844  -18.6890  -44.9189 H         1 UNK         0.0600 
    152 H152        2.9924  -17.3010  -44.3109 H         1 UNK         0.0600 
    153 H153        2.1232  -18.6997  -44.9316 H         1 UNK         0.0600 
    154 H154        1.1214  -18.0145  -42.8021 H         1 UNK         0.3000 
    155 H155        0.0775  -18.5285  -39.4371 H         1 UNK         0.0600 
    156 H156       -0.6492  -16.1663  -39.7874 H         1 UNK         0.0600 
    157 H157        0.5137  -15.9917  -41.1021 H         1 UNK         0.0600 
    158 H158        1.0743  -16.2555  -39.4572 H         1 UNK         0.0600 
    159 H159       -1.1610  -17.6421  -41.9054 H         1 UNK         0.3000 
    160 H160       -2.4443  -20.8396  -42.8251 H         1 UNK         0.0600 
    161 H161       -3.8438  -18.3675  -41.6736 H         1 UNK         0.0600 
    162 H162       -4.0137  -20.0120  -41.0710 H         1 UNK         0.0600 
    163 H163       -4.5879  -19.6093  -42.6813 H         1 UNK         0.0600 
    164 H164       -2.7496  -18.1748  -43.8798 H         1 UNK         0.3000 
    165 H165       -0.0303  -18.3141  -46.1561 H         1 UNK         0.0600 
    166 H166       -3.0264  -18.7488  -46.6447 H         1 UNK         0.0600 
    167 H167       -1.9280  -17.9913  -47.7885 H         1 UNK         0.0600 
    168 H168       -1.6993  -19.6729  -47.3386 H         1 UNK         0.0600 
    169 H169       -2.0516  -16.4066  -46.0052 H         1 UNK         0.3000 
    170 H170       -2.0353  -14.6168  -43.8972 H         1 UNK         0.0600 
    171 H171       -0.3277  -12.7845  -43.6008 H         1 UNK         0.0600 
    172 H172       -0.0459  -14.1760  -42.5694 H         1 UNK         0.0600 
    173 H173        0.9444  -13.9376  -44.0010 H         1 UNK         0.0600 
    174 H174       -0.3637  -13.7276  -46.1797 H         1 UNK         0.3000 
    175 H175       -2.0508  -14.1356  -48.5401 H         1 UNK         0.0600 
    176 H176       -3.6662  -12.3931  -49.2993 H         1 UNK         0.0600 
    177 H177       -4.4500  -13.6050  -48.3007 H         1 UNK         0.0600 
    178 H178       -4.0763  -12.0311  -47.6235 H         1 UNK         0.0600 
    179 H179       -0.6029  -12.4615  -48.7165 H         1 UNK         0.3000 
    180 H180       -0.3434   -9.9048  -48.8521 H         1 UNK         0.0600 
    181 H181        0.6100   -8.1315  -47.4051 H         1 UNK         0.0600 
    182 H182       -1.1043   -8.3322  -47.0873 H         1 UNK         0.0600 
    183 H183        0.0769   -8.9899  -45.9598 H         1 UNK         0.0600 
    184 H184        1.7315  -10.5221  -46.8882 H         1 UNK         0.3000 
    185 H185        3.7771  -11.9222  -49.1693 H         1 UNK         0.0600 
    186 H186        4.8656  -11.8115  -46.9515 H         1 UNK         0.0600 
    187 H187        3.9184  -10.3617  -47.2202 H         1 UNK         0.0600 
    188 H188        3.3151  -11.6271  -46.1468 H         1 UNK         0.0600 
    189 H189        3.8357  -14.0892  -48.6525 H         1 UNK         0.3000 
    190 H190       -0.8356  -22.0143  -45.5330 H         1 UNK         0.3000 
    191 H191       -2.7200  -23.0060  -47.4088 H         1 UNK         0.0600 
    192 H192       -4.3174  -22.7604  -45.5041 H         1 UNK         0.0600 
    193 H193       -3.2727  -21.3568  -45.6255 H         1 UNK         0.0600 
    194 H194       -2.9728  -22.5765  -44.3839 H         1 UNK         0.0600 
    195 H195       -0.6457  -24.8006  -45.3339 H         1 UNK         0.3000 
    196 H196       -2.2379  -27.2056  -45.1195 H         1 UNK         0.0600 
    197 H197       -0.0790  -28.2362  -44.4685 H         1 UNK         0.0600 
    198 H198       -0.3053  -26.7211  -43.6076 H         1 UNK         0.0600 
    199 H199        0.7989  -26.8014  -44.9803 H         1 UNK         0.0600 
    200 H200       -0.1123  -25.7930  -47.5745 H         1 UNK         0.3000 
    201 H201       -0.2953  -28.1765  -49.3397 H         1 UNK         0.0600 
    202 H202        1.9122  -27.0526  -49.1626 H         1 UNK         0.0600 
    203 H203        1.2046  -25.5188  -49.6619 H         1 UNK         0.0600 
    204 H204        1.2551  -26.8748  -50.7817 H         1 UNK         0.0600 
    205 H205       -1.2327  -24.7446  -49.0971 H         1 UNK         0.3000 
    206 H206       -2.7707  -23.4556  -50.0019 H         1 UNK         0.0600 
    207 H207       -4.4115  -25.1821  -49.2894 H         1 UNK         0.0600 
    208 H208       -4.9394  -24.3408  -50.7369 H         1 UNK         0.0600 
    209 H209       -4.2844  -25.9653  -50.8645 H         1 UNK         0.0600 
    210 H210       -0.4671  -24.3656  -51.5412 H         1 UNK         0.3000 
    211 H211       -0.8855  -25.1530  -54.0973 H         1 UNK         0.0600 
    212 H212        1.4200  -23.4520  -53.0128 H         1 UNK         0.0600 
    213 H213        1.4753  -24.4064  -54.4895 H         1 UNK         0.0600 
    214 H214        1.2941  -25.2100  -52.9396 H         1 UNK         0.0600 
    215 H215       -1.0108  -21.7532  -53.0617 H         1 UNK         0.3000 
    216 H216       -0.8742  -20.6616  -55.7374 H         1 UNK         0.0600 
    217 H217       -0.1920  -19.4078  -53.6507 H         1 UNK         0.0600 
    218 H218       -1.8888  -19.3484  -53.1719 H         1 UNK         0.0600 
    219 H219       -1.3610  -18.5333  -54.6305 H         1 UNK         0.0600 
    220 H220       -3.4380  -22.0192  -53.8178 H         1 UNK         0.3000 
    221 H221       -5.6199  -22.2311  -53.9346 H         1 UNK         0.0600 
    222 H222       -5.2749  -21.8429  -56.9530 H         1 UNK         0.0600 
    223 H223       -4.9734  -23.3455  -56.0806 H         1 UNK         0.0600 
    224 H224       -6.5964  -22.6813  -56.1514 H         1 UNK         0.0600 
    225 H225       -4.5867  -19.3676  -53.7136 H         1 UNK         0.3000 
    226 H226       -7.0492  -17.9625  -53.5634 H         1 UNK         0.0600 
    227 H227       -6.4156  -16.1712  -55.2445 H         1 UNK         0.0600 
    228 H228       -5.0460  -17.1457  -55.7661 H         1 UNK         0.0600 
    229 H229       -6.6929  -17.7029  -56.0498 H         1 UNK         0.0600 
    230 H230       -6.4552  -15.6330  -52.9005 H         1 UNK         0.3000 
    231 H231       -5.5806  -14.2470  -51.4004 H         1 UNK         0.0600 
    232 H232       -3.1334  -14.0053  -51.1366 H         1 UNK         0.0600 
    233 H233       -3.5578  -14.1459  -52.8358 H         1 UNK         0.0600 
    234 H234       -2.8520  -15.5149  -51.9823 H         1 UNK         0.0600 
    235 H235       -7.0243  -15.8161  -50.2735 H         1 UNK         0.3000 
    236 H236       -7.7080  -16.7003  -48.3666 H         1 UNK         0.0600 
    237 H237       -4.8701  -17.1095  -47.3055 H         1 UNK         0.0600 
    238 H238       -5.8008  -15.6344  -47.0650 H         1 UNK         0.0600 
    239 H239       -6.3781  -17.1492  -46.4025 H         1 UNK         0.0600 
    240 H240       -6.4013  -19.0524  -47.1050 H         1 UNK         0.3000 
    241 H241       -6.4288  -21.2401  -47.2348 H         1 UNK         0.0600 
    242 H242      -10.1142  -20.8778  -48.3665 H         1 UNK         0.3800 
    243 H243       -9.0339  -19.5940  -47.8935 H         1 UNK         0.3800 
    244 H244       -5.9452  -21.1593  -50.2462 H         1 UNK         0.0800 
    245 H245       -5.7391  -22.5353  -49.1993 H         1 UNK         0.0800 
    246 H246       -3.5301  -21.2171  -51.2373 H         1 UNK         0.0800 
    247 H247       -4.0525  -19.6009  -50.8194 H         1 UNK         0.0800 
@<TRIPOS>BOND
     1    1    2 1    
     2    1  127 1    
     3    1  128 1    
     4    1  129 1    
     5    2    3 2    
     6    2    4 am   BACKBONE|DICT|INTERRES
     7    4    5 1    
     8    4  130 1    
     9    5    6 1    
    10    5   65 1    
    11    5  131 1    
    12    6    7 1    
    13    6  132 1    
    14    6  133 1    
    15    7    8 1    
    16    8    9 1    
    17    8  134 1    
    18    8  135 1    
    19    9   10 ar   
    20    9   14 ar   
    21   10   11 ar   
    22   10  136 1    
    23   11   12 ar   
    24   11  126 1    
    25   12   13 ar   
    26   12  137 1    
    27   13   14 ar   
    28   13   15 1    
    29   14  138 1    
    30   15   16 1    
    31   15  139 1    
    32   15  140 1    
    33   16   17 1    
    34   17   18 1    
    35   17  141 1    
    36   17  142 1    
    37   18   19 1    
    38   18   67 1    
    39   18  143 1    
    40   19   20 am   BACKBONE|DICT|INTERRES
    41   19  144 1    
    42   20   21 2    
    43   20   22 1    
    44   22   23 1    
    45   22   24 1    
    46   22  145 1    
    47   23  146 1    
    48   23  147 1    
    49   23  148 1    
    50   24   25 am   BACKBONE|DICT|INTERRES
    51   24  149 1    
    52   25   26 2    
    53   25   27 1    
    54   27   28 1    
    55   27   29 1    
    56   27  150 1    
    57   28  151 1    
    58   28  152 1    
    59   28  153 1    
    60   29   30 am   BACKBONE|DICT|INTERRES
    61   29  154 1    
    62   30   31 2    
    63   30   32 1    
    64   32   33 1    
    65   32   34 1    
    66   32  155 1    
    67   33  156 1    
    68   33  157 1    
    69   33  158 1    
    70   34   35 am   BACKBONE|DICT|INTERRES
    71   34  159 1    
    72   35   36 2    
    73   35   37 1    
    74   37   38 1    
    75   37   39 1    
    76   37  160 1    
    77   38  161 1    
    78   38  162 1    
    79   38  163 1    
    80   39   40 am   BACKBONE|DICT|INTERRES
    81   39  164 1    
    82   40   41 2    
    83   40   42 1    
    84   42   43 1    
    85   42   44 1    
    86   42  165 1    
    87   43  166 1    
    88   43  167 1    
    89   43  168 1    
    90   44   45 am   BACKBONE|DICT|INTERRES
    91   44  169 1    
    92   45   46 2    
    93   45   47 1    
    94   47   48 1    
    95   47   49 1    
    96   47  170 1    
    97   48  171 1    
    98   48  172 1    
    99   48  173 1    
   100   49   50 am   BACKBONE|DICT|INTERRES
   101   49  174 1    
   102   50   51 2    
   103   50   52 1    
   104   52   53 1    
   105   52   54 1    
   106   52  175 1    
   107   53  176 1    
   108   53  177 1    
   109   53  178 1    
   110   54   55 am   BACKBONE|DICT|INTERRES
   111   54  179 1    
   112   55   56 2    
   113   55   57 1    
   114   57   58 1    
   115   57   59 1    
   116   57  180 1    
   117   58  181 1    
   118   58  182 1    
   119   58  183 1    
   120   59   60 am   BACKBONE|DICT|INTERRES
   121   59  184 1    
   122   60   61 2    
   123   60   62 1    
   124   62   63 1    
   125   62   64 1    
   126   62  185 1    
   127   63  186 1    
   128   63  187 1    
   129   63  188 1    
   130   64   65 am   BACKBONE|DICT|INTERRES
   131   64  189 1    
   132   65   66 2    
   133   67   68 2    
   134   67   69 am   BACKBONE|DICT|INTERRES
   135   69   70 1    
   136   69  190 1    
   137   70   71 1    
   138   70   72 1    
   139   70  191 1    
   140   71  192 1    
   141   71  193 1    
   142   71  194 1    
   143   72   73 2    
   144   72   74 am   BACKBONE|DICT|INTERRES
   145   74   75 1    
   146   74  195 1    
   147   75   76 1    
   148   75   77 1    
   149   75  196 1    
   150   76  197 1    
   151   76  198 1    
   152   76  199 1    
   153   77   78 2    
   154   77   79 am   BACKBONE|DICT|INTERRES
   155   79   80 1    
   156   79  200 1    
   157   80   81 1    
   158   80   82 1    
   159   80  201 1    
   160   81  202 1    
   161   81  203 1    
   162   81  204 1    
   163   82   83 2    
   164   82   84 am   BACKBONE|DICT|INTERRES
   165   84   85 1    
   166   84  205 1    
   167   85   86 1    
   168   85   87 1    
   169   85  206 1    
   170   86  207 1    
   171   86  208 1    
   172   86  209 1    
   173   87   88 2    
   174   87   89 am   BACKBONE|DICT|INTERRES
   175   89   90 1    
   176   89  210 1    
   177   90   91 1    
   178   90   92 1    
   179   90  211 1    
   180   91  212 1    
   181   91  213 1    
   182   91  214 1    
   183   92   93 2    
   184   92   94 am   BACKBONE|DICT|INTERRES
   185   94   95 1    
   186   94  215 1    
   187   95   96 1    
   188   95   97 1    
   189   95  216 1    
   190   96  217 1    
   191   96  218 1    
   192   96  219 1    
   193   97   98 2    
   194   97   99 am   BACKBONE|DICT|INTERRES
   195   99  100 1    
   196   99  220 1    
   197  100  101 1    
   198  100  102 1    
   199  100  221 1    
   200  101  222 1    
   201  101  223 1    
   202  101  224 1    
   203  102  103 2    
   204  102  104 am   BACKBONE|DICT|INTERRES
   205  104  105 1    
   206  104  225 1    
   207  105  106 1    
   208  105  107 1    
   209  105  226 1    
   210  106  227 1    
   211  106  228 1    
   212  106  229 1    
   213  107  108 2    
   214  107  109 am   BACKBONE|DICT|INTERRES
   215  109  110 1    
   216  109  230 1    
   217  110  111 1    
   218  110  112 1    
   219  110  231 1    
   220  111  232 1    
   221  111  233 1    
   222  111  234 1    
   223  112  113 2    
   224  112  114 am   BACKBONE|DICT|INTERRES
   225  114  115 1    
   226  114  235 1    
   227  115  116 1    
   228  115  117 1    
   229  115  236 1    
   230  116  237 1    
   231  116  238 1    
   232  116  239 1    
   233  117  118 2    
   234  117  119 am   BACKBONE|DICT|INTERRES
   235  119  120 1    
   236  119  240 1    
   237  120  121 1    
   238  120  124 1    
   239  120  241 1    
   240  121  122 am   BACKBONE|DICT|INTERRES
   241  121  123 2    
   242  122  242 1    
   243  122  243 1    
   244  124  125 1    
   245  124  244 1    
   246  124  245 1    
   247  125  126 1    
   248  126  246 1    
   249  126  247 1    
@<TRIPOS>SUBSTRUCTURE
     1 UNK         1 GROUP             0       ****    0 ROOT    
