@<TRIPOS>MOLECULE
3R540
247   249    1
SMALL
USER_CHARGES


@<TRIPOS>ATOM
      1 CA         -3.0956  -12.1758  -52.6677 C.3       0 UNK        -0.1800 
      2 C          -1.8742  -12.1870  -51.7588 C.2       0 UNK         0.5000 
      3 O          -1.3215  -11.1298  -51.4553 O.2       0 UNK        -0.5000 
      4 N          -1.4556  -13.3803  -51.3250 N.am      1 UNK        -0.5000 
      5 CA         -0.3467  -13.6065  -50.3919 C.3       1 UNK         0.1400 
      6 C6          0.2042  -15.0393  -50.5810 C.3       23 UNK        -0.0398 
      7 S7          1.8455  -15.3369  -49.8404 S.3       23 UNK        -0.2404 
      8 C8          1.4763  -16.6992  -48.6824 C.3       23 UNK        -0.0205 
      9 C9          1.5302  -18.0932  -49.3074 C.ar      23 UNK        -0.0193 
     10 C10         0.9257  -18.3800  -50.5384 C.ar      23 UNK        -0.1150 
     11 C11         0.9437  -19.6753  -51.0605 C.ar      23 UNK        -0.0193 
     12 C12         1.5564  -20.7003  -50.3378 C.ar      23 UNK        -0.1150 
     13 C13         2.1535  -20.4357  -49.1040 C.ar      23 UNK        -0.0193 
     14 C14         2.1547  -19.1293  -48.6056 C.ar      23 UNK        -0.1150 
     15 C15         2.7420  -21.5701  -48.2828 C.3       23 UNK        -0.0205 
     16 S16         1.6751  -21.8951  -46.8526 S.3       23 UNK        -0.2404 
     17 C17         1.9041  -23.6791  -46.5702 C.3       23 UNK        -0.0398 
     18 CA          1.1700  -24.1891  -45.3041 C.3       11 UNK         0.1400 
     19 N           1.6929  -23.5525  -44.0906 N.am      11 UNK        -0.5000 
     20 C           2.1130  -24.1957  -42.9949 C.2       10 UNK         0.5000 
     21 O           2.0766  -25.4210  -42.8699 O.2       10 UNK        -0.5000 
     22 CA          2.6490  -23.3175  -41.8434 C.3       10 UNK         0.1400 
     23 CB          3.5791  -24.0822  -40.8790 C.3       10 UNK        -0.1800 
     24 N           3.2784  -22.0754  -42.3028 N.am      10 UNK        -0.5000 
     25 C           4.3770  -21.9303  -43.0592 C.2       9 UNK         0.5000 
     26 O           5.0583  -22.8711  -43.4684 O.2       9 UNK        -0.5000 
     27 CA          4.7857  -20.4888  -43.4343 C.3       9 UNK         0.1400 
     28 CB          4.5212  -20.2248  -44.9246 C.3       9 UNK        -0.1800 
     29 N           4.0991  -19.4603  -42.6481 N.am      9 UNK        -0.5000 
     30 C           4.3605  -19.1678  -41.3667 C.2       8 UNK         0.5000 
     31 O           5.2732  -19.6827  -40.7200 O.2       8 UNK        -0.5000 
     32 CA          3.4136  -18.1633  -40.6809 C.3       8 UNK         0.1400 
     33 CB          3.8495  -16.7183  -40.9658 C.3       8 UNK        -0.1800 
     34 N           2.0134  -18.3426  -41.0761 N.am      8 UNK        -0.5000 
     35 C           1.2787  -19.4309  -40.8002 C.2       7 UNK         0.5000 
     36 O           1.6904  -20.3838  -40.1395 O.2       7 UNK        -0.5000 
     37 CA         -0.1321  -19.4960  -41.4099 C.3       7 UNK         0.1400 
     38 CB         -1.1356  -18.6953  -40.5678 C.3       7 UNK        -0.1800 
     39 N          -0.1555  -19.0235  -42.7929 N.am      7 UNK        -0.5000 
     40 C           0.4331  -19.6504  -43.8200 C.2       6 UNK         0.5000 
     41 O           0.9862  -20.7457  -43.7171 O.2       6 UNK        -0.5000 
     42 CA          0.4274  -18.9241  -45.1776 C.3       6 UNK         0.1400 
     43 CB         -0.8342  -19.2567  -45.9844 C.3       6 UNK        -0.1800 
     44 N           0.5745  -17.4736  -45.0473 N.am      6 UNK        -0.5000 
     45 C           1.6942  -16.8782  -44.6116 C.2       5 UNK         0.5000 
     46 O           2.7260  -17.4881  -44.3340 O.2       5 UNK        -0.5000 
     47 CA          1.6358  -15.3576  -44.3942 C.3       5 UNK         0.1400 
     48 CB          1.9140  -14.5984  -45.6979 C.3       5 UNK        -0.1800 
     49 N           0.3481  -14.9397  -43.8424 N.am      5 UNK        -0.5000 
     50 C          -0.0271  -15.1663  -42.5753 C.2       4 UNK         0.5000 
     51 O           0.6885  -15.7237  -41.7429 O.2       4 UNK        -0.5000 
     52 CA         -1.4545  -14.7396  -42.1837 C.3       4 UNK         0.1400 
     53 CB         -1.4831  -13.2595  -41.7748 C.3       4 UNK        -0.1800 
     54 N          -2.4302  -14.9653  -43.2509 N.am      4 UNK        -0.5000 
     55 C          -2.7530  -16.1691  -43.7439 C.2       3 UNK         0.5000 
     56 O          -2.2910  -17.2250  -43.3172 O.2       3 UNK        -0.5000 
     57 CA         -3.7164  -16.2026  -44.9432 C.3       3 UNK         0.1400 
     58 CB         -5.1606  -16.4184  -44.4689 C.3       3 UNK        -0.1800 
     59 N          -3.6581  -15.0074  -45.7892 N.am      3 UNK        -0.5000 
     60 C          -2.5802  -14.6038  -46.4746 C.2       2 UNK         0.5000 
     61 O          -1.4794  -15.1546  -46.3965 O.2       2 UNK        -0.5000 
     62 CA         -2.7946  -13.3809  -47.3830 C.3       2 UNK         0.1400 
     63 CB         -2.4791  -12.0665  -46.6426 C.3       2 UNK        -0.1800 
     64 N          -2.0841  -13.4968  -48.6608 N.am      2 UNK        -0.5000 
     65 C          -0.7783  -13.3341  -48.9312 C.2       1 UNK         0.5000 
     66 O           0.0614  -12.9532  -48.1159 O.2       1 UNK        -0.5000 
     67 C          -0.3626  -24.0254  -45.4226 C.2       11 UNK         0.5000 
     68 O          -0.9599  -24.6251  -46.3184 O.2       11 UNK        -0.5000 
     69 N          -0.9778  -23.2334  -44.5277 N.am      12 UNK        -0.5000 
     70 CA         -2.3963  -22.8441  -44.5204 C.3       12 UNK         0.1400 
     71 CB         -2.6417  -21.8737  -43.3537 C.3       12 UNK        -0.1800 
     72 C          -3.4172  -24.0013  -44.4743 C.2       12 UNK         0.5000 
     73 O          -4.5944  -23.7814  -44.7598 O.2       12 UNK        -0.5000 
     74 N          -2.9606  -25.2130  -44.1319 N.am      13 UNK        -0.5000 
     75 CA         -3.7334  -26.4517  -44.2252 C.3       13 UNK         0.1400 
     76 CB         -2.9629  -27.5710  -43.5083 C.3       13 UNK        -0.1800 
     77 C          -4.0521  -26.8625  -45.6795 C.2       13 UNK         0.5000 
     78 O          -5.0354  -27.5720  -45.8965 O.2       13 UNK        -0.5000 
     79 N          -3.2261  -26.4187  -46.6377 N.am      14 UNK        -0.5000 
     80 CA         -3.3771  -26.6816  -48.0681 C.3       14 UNK         0.1400 
     81 CB         -2.1637  -27.4868  -48.5608 C.3       14 UNK        -0.1800 
     82 C          -3.5218  -25.3782  -48.8714 C.2       14 UNK         0.5000 
     83 O          -4.3596  -25.3170  -49.7718 O.2       14 UNK        -0.5000 
     84 N          -2.7051  -24.3668  -48.5494 N.am      15 UNK        -0.5000 
     85 CA         -2.6837  -23.0691  -49.2202 C.3       15 UNK         0.1400 
     86 CB         -1.3678  -22.3550  -48.8691 C.3       15 UNK        -0.1800 
     87 C          -3.8840  -22.2023  -48.8069 C.2       15 UNK         0.5000 
     88 O          -4.0633  -21.9484  -47.6148 O.2       15 UNK        -0.5000 
     89 N          -4.6536  -21.7206  -49.7910 N.am      16 UNK        -0.5000 
     90 CA         -5.7072  -20.7220  -49.5838 C.3       16 UNK         0.1400 
     91 CB         -6.7699  -20.8636  -50.6843 C.3       16 UNK        -0.1800 
     92 C          -5.1452  -19.2862  -49.5559 C.2       16 UNK         0.5000 
     93 O          -5.8466  -18.3748  -49.1181 O.2       16 UNK        -0.5000 
     94 N          -3.9008  -19.1152  -50.0320 N.am      17 UNK        -0.5000 
     95 CA         -3.1012  -17.8841  -50.0863 C.3       17 UNK         0.1400 
     96 CB         -2.9402  -17.2698  -48.6851 C.3       17 UNK        -0.1800 
     97 C          -3.5828  -16.8404  -51.1154 C.2       17 UNK         0.5000 
     98 O          -2.9789  -15.7709  -51.2156 O.2       17 UNK        -0.5000 
     99 N          -4.6286  -17.1623  -51.8798 N.am      18 UNK        -0.5000 
    100 CA        -5.1755  -16.3723  -52.9736 C.3       18 UNK         0.1400 
    101 CB        -5.9940  -15.1898  -52.4231 C.3       18 UNK        -0.1800 
    102 C         -6.0598  -17.3071  -53.8220 C.2       18 UNK         0.5000 
    103 O         -6.6373  -18.2392  -53.2597 O.2       18 UNK        -0.5000 
    104 N         -6.2150  -17.0899  -55.1359 N.am      19 UNK        -0.5000 
    105 CA        -5.4901  -16.1460  -55.9922 C.3       19 UNK         0.1400 
    106 CB        -6.3779  -15.8140  -57.2075 C.3       19 UNK        -0.1800 
    107 C         -4.1076  -16.7196  -56.3828 C.2       19 UNK         0.5000 
    108 O         -3.4764  -17.3901  -55.5641 O.2       19 UNK        -0.5000 
    109 N         -3.6578  -16.4814  -57.6228 N.am      20 UNK        -0.5000 
    110 CA        -2.3709  -16.9463  -58.1595 C.3       20 UNK         0.1400 
    111 CB        -2.1815  -16.3705  -59.5712 C.3       20 UNK        -0.1800 
    112 C         -2.2040  -18.4814  -58.1766 C.2       20 UNK         0.5000 
    113 O         -1.0763  -18.9709  -58.1061 O.2       20 UNK        -0.5000 
    114 N         -3.3273  -19.2092  -58.2436 N.am      21 UNK        -0.5000 
    115 CA        -3.3905  -20.6682  -58.1438 C.3       21 UNK         0.1400 
    116 CB        -4.7354  -21.1394  -58.7194 C.3       21 UNK        -0.1800 
    117 C         -3.2085  -21.1966  -56.7043 C.2       21 UNK         0.5000 
    118 O         -2.9352  -22.3855  -56.5376 O.2       21 UNK        -0.5000 
    119 N         -3.3707  -20.3244  -55.6973 N.am      22 UNK        -0.5000 
    120 CA        -3.2730  -20.6257  -54.2585 C.3       22 UNK         0.1400 
    121 C         -4.4006  -21.5482  -53.6962 C.2       22 UNK         0.5000 
    122 N         -5.5177  -21.7238  -54.3905 N.am      22 UNK        -0.7600 
    123 O         -4.2803  -22.0927  -52.6017 O.2       22 UNK        -0.5000 
    124 C124       -1.8469  -21.0913  -53.8520 C.3       23 UNK        -0.0398 
    125 S125       -1.4063  -20.5894  -52.1550 S.3       23 UNK        -0.2404 
    126 C126        0.2856  -19.9763  -52.3957 C.3       23 UNK        -0.0205 
    127 H127       -3.9184  -11.6490  -52.1846 H         1 UNK         0.0600 
    128 H128       -3.4308  -13.1858  -52.9060 H         1 UNK         0.0600 
    129 H129       -2.8640  -11.6663  -53.6029 H         1 UNK         0.0600 
    130 H130       -1.9888  -14.2136  -51.5658 H         1 UNK         0.3000 
    131 H131        0.4512  -12.9019  -50.6366 H         1 UNK         0.0600 
    132 H132       -0.5145  -15.7671  -50.2061 H         1 UNK         0.0800 
    133 H133        0.3076  -15.2486  -51.6468 H         1 UNK         0.0800 
    134 H134        0.5007  -16.5468  -48.2180 H         1 UNK         0.0800 
    135 H135        2.2049  -16.6375  -47.8733 H         1 UNK         0.0800 
    136 H136        0.4312  -17.6065  -51.1019 H         1 UNK         0.1150 
    137 H137        1.5438  -21.7089  -50.7265 H         1 UNK         0.1150 
    138 H138        2.6117  -18.9315  -47.6462 H         1 UNK         0.1150 
    139 H139        2.8386  -22.4726  -48.8882 H         1 UNK         0.0800 
    140 H140        3.7442  -21.3081  -47.9415 H         1 UNK         0.0800 
    141 H141        2.9722  -23.8829  -46.4830 H         1 UNK         0.0800 
    142 H142        1.5628  -24.2208  -47.4542 H         1 UNK         0.0800 
    143 H143        1.3453  -25.2654  -45.2539 H         1 UNK         0.0600 
    144 H144        1.7227  -22.5359  -44.0991 H         1 UNK         0.3000 
    145 H145        1.7711  -23.0107  -41.2733 H         1 UNK         0.0600 
    146 H146        3.9303  -23.4342  -40.0758 H         1 UNK         0.0600 
    147 H147        3.0578  -24.9195  -40.4137 H         1 UNK         0.0600 
    148 H148        4.4525  -24.4859  -41.3917 H         1 UNK         0.0600 
    149 H149        2.7846  -21.2308  -42.0472 H         1 UNK         0.3000 
    150 H150        5.8595  -20.3996  -43.2583 H         1 UNK         0.0600 
    151 H151        5.0096  -20.9707  -45.5529 H         1 UNK         0.0600 
    152 H152        4.8983  -19.2473  -45.2255 H         1 UNK         0.0600 
    153 H153        3.4556  -20.2526  -45.1486 H         1 UNK         0.0600 
    154 H154        3.3821  -18.9279  -43.1318 H         1 UNK         0.3000 
    155 H155        3.4790  -18.3296  -39.6037 H         1 UNK         0.0600 
    156 H156        4.8797  -16.5519  -40.6486 H         1 UNK         0.0600 
    157 H157        3.2244  -16.0049  -40.4285 H         1 UNK         0.0600 
    158 H158        3.7908  -16.4806  -42.0278 H         1 UNK         0.0600 
    159 H159        1.5819  -17.5761  -41.5814 H         1 UNK         0.3000 
    160 H160       -0.4478  -20.5414  -41.4060 H         1 UNK         0.0600 
    161 H161       -0.8910  -17.6334  -40.5490 H         1 UNK         0.0600 
    162 H162       -1.1489  -19.0484  -39.5360 H         1 UNK         0.0600 
    163 H163       -2.1475  -18.7984  -40.9602 H         1 UNK         0.0600 
    164 H164       -0.6875  -18.1773  -42.9762 H         1 UNK         0.3000 
    165 H165        1.2876  -19.2886  -45.7374 H         1 UNK         0.0600 
    166 H166       -0.7568  -18.8625  -46.9973 H         1 UNK         0.0600 
    167 H167       -0.9696  -20.3356  -46.0701 H         1 UNK         0.0600 
    168 H168       -1.7329  -18.8486  -45.5227 H         1 UNK         0.0600 
    169 H169       -0.2325  -16.9011  -45.2570 H         1 UNK         0.3000 
    170 H170        2.4191  -15.0928  -43.6807 H         1 UNK         0.0600 
    171 H171        2.8835  -14.8755  -46.1134 H         1 UNK         0.0600 
    172 H172        1.1596  -14.8087  -46.4552 H         1 UNK         0.0600 
    173 H173        1.9261  -13.5210  -45.5333 H         1 UNK         0.0600 
    174 H174       -0.3167  -14.5434  -44.4937 H         1 UNK         0.3000 
    175 H175       -1.7550  -15.3387  -41.3216 H         1 UNK         0.0600 
    176 H176       -0.7761  -13.0644  -40.9673 H         1 UNK         0.0600 
    177 H177       -1.2198  -12.6056  -42.6072 H         1 UNK         0.0600 
    178 H178       -2.4709  -12.9680  -41.4176 H         1 UNK         0.0600 
    179 H179       -2.8563  -14.1487  -43.6629 H         1 UNK         0.3000 
    180 H180       -3.4329  -17.0563  -45.5616 H         1 UNK         0.0600 
    181 H181       -5.5185  -15.5786  -43.8720 H         1 UNK         0.0600 
    182 H182       -5.2396  -17.3161  -43.8539 H         1 UNK         0.0600 
    183 H183       -5.8382  -16.5454  -45.3135 H         1 UNK         0.0600 
    184 H184       -4.5228  -14.4960  -45.8925 H         1 UNK         0.3000 
    185 H185       -3.8510  -13.3540  -47.6549 H         1 UNK         0.0600 
    186 H186       -3.1649  -11.9188  -45.8077 H         1 UNK         0.0600 
    187 H187       -1.4693  -12.0590  -46.2316 H         1 UNK         0.0600 
    188 H188       -2.5812  -11.2055  -47.3032 H         1 UNK         0.0600 
    189 H189       -2.6557  -13.8163  -49.4306 H         1 UNK         0.3000 
    190 H190       -0.3923  -22.7746  -43.8442 H         1 UNK         0.3000 
    191 H191       -2.5818  -22.3053  -45.4504 H         1 UNK         0.0600 
    192 H192       -2.3391  -22.3051  -42.3991 H         1 UNK         0.0600 
    193 H193       -3.6966  -21.6073  -43.2745 H         1 UNK         0.0600 
    194 H194       -2.0964  -20.9434  -43.4951 H         1 UNK         0.0600 
    195 H195       -1.9827  -25.3031  -43.9002 H         1 UNK         0.3000 
    196 H196       -4.6832  -26.3020  -43.7075 H         1 UNK         0.0600 
    197 H197       -3.5219  -28.5074  -43.5323 H         1 UNK         0.0600 
    198 H198       -2.7908  -27.3237  -42.4605 H         1 UNK         0.0600 
    199 H199       -1.9941  -27.7549  -43.9746 H         1 UNK         0.0600 
    200 H200       -2.4490  -25.8215  -46.3715 H         1 UNK         0.3000 
    201 H201       -4.2734  -27.2760  -48.2567 H         1 UNK         0.0600 
    202 H202       -2.0977  -28.4478  -48.0505 H         1 UNK         0.0600 
    203 H203       -1.2283  -26.9524  -48.3892 H         1 UNK         0.0600 
    204 H204       -2.2367  -27.6901  -49.6299 H         1 UNK         0.0600 
    205 H205       -2.0531  -24.4785  -47.7779 H         1 UNK         0.3000 
    206 H206       -2.7091  -23.2283  -50.3008 H         1 UNK         0.0600 
    207 H207       -0.5035  -22.9163  -49.2238 H         1 UNK         0.0600 
    208 H208       -1.3205  -21.3635  -49.3192 H         1 UNK         0.0600 
    209 H209       -1.2597  -22.2203  -47.7928 H         1 UNK         0.0600 
    210 H210       -4.4659  -21.9822  -50.7583 H         1 UNK         0.3000 
    211 H211       -6.1941  -20.9062  -48.6237 H         1 UNK         0.0600 
    212 H212       -7.6177  -20.2048  -50.4922 H         1 UNK         0.0600 
    213 H213       -7.1538  -21.8824  -50.7368 H         1 UNK         0.0600 
    214 H214       -6.3747  -20.6012  -51.6652 H         1 UNK         0.0600 
    215 H215       -3.4362  -19.9374  -50.3918 H         1 UNK         0.3000 
    216 H216       -2.1099  -18.1946  -50.4174 H         1 UNK         0.0600 
    217 H217       -2.1304  -16.5420  -48.6744 H         1 UNK         0.0600 
    218 H218       -2.7035  -18.0298  -47.9425 H         1 UNK         0.0600 
    219 H219       -3.8467  -16.7588  -48.3600 H         1 UNK         0.0600 
    220 H220       -5.0916  -18.0514  -51.7418 H         1 UNK         0.3000 
    221 H221       -4.3386  -15.9924  -53.5581 H         1 UNK         0.0600 
    222 H222       -6.8158  -15.5327  -51.7932 H         1 UNK         0.0600 
    223 H223       -5.3766  -14.5174  -51.8278 H         1 UNK         0.0600 
    224 H224       -6.4244  -14.6006  -53.2334 H         1 UNK         0.0600 
    225 H225       -6.8231  -17.7233  -55.6323 H         1 UNK         0.3000 
    226 H226       -5.3196  -15.2134  -55.4528 H         1 UNK         0.0600 
    227 H227       -7.3582  -15.4591  -56.8882 H         1 UNK         0.0600 
    228 H228       -5.9427  -15.0216  -57.8177 H         1 UNK         0.0600 
    229 H229       -6.5349  -16.6840  -57.8468 H         1 UNK         0.0600 
    230 H230       -4.2305  -15.9325  -58.2478 H         1 UNK         0.3000 
    231 H231       -1.5832  -16.5445  -57.5187 H         1 UNK         0.0600 
    232 H232       -2.1994  -15.2805  -59.5592 H         1 UNK         0.0600 
    233 H233       -2.9610  -16.7129  -60.2530 H         1 UNK         0.0600 
    234 H234       -1.2215  -16.6730  -59.9918 H         1 UNK         0.0600 
    235 H235       -4.2074  -18.7211  -58.3163 H         1 UNK         0.3000 
    236 H236       -2.5904  -21.0943  -58.7528 H         1 UNK         0.0600 
    237 H237       -4.8139  -22.2271  -58.6917 H         1 UNK         0.0600 
    238 H238       -5.5785  -20.7350  -58.1580 H         1 UNK         0.0600 
    239 H239       -4.8473  -20.8346  -59.7601 H         1 UNK         0.0600 
    240 H240       -3.5453  -19.3495  -55.9156 H         1 UNK         0.3000 
    241 H241       -3.4516  -19.6611  -53.7817 H         1 UNK         0.0600 
    242 H242       -6.2418  -22.3153  -54.0162 H         1 UNK         0.3800 
    243 H243       -5.6450  -21.2773  -55.2833 H         1 UNK         0.3800 
    244 H244       -1.7411  -22.1732  -53.9480 H         1 UNK         0.0800 
    245 H245       -1.1115  -20.6606  -54.5330 H         1 UNK         0.0800 
    246 H246        0.8721  -20.7227  -52.9338 H         1 UNK         0.0800 
    247 H247        0.2648  -19.0836  -53.0229 H         1 UNK         0.0800 
@<TRIPOS>BOND
     1    1    2 1    
     2    1  127 1    
     3    1  128 1    
     4    1  129 1    
     5    2    3 2    
     6    2    4 am   BACKBONE|DICT|INTERRES
     7    4    5 1    
     8    4  130 1    
     9    5    6 1    
    10    5   65 1    
    11    5  131 1    
    12    6    7 1    
    13    6  132 1    
    14    6  133 1    
    15    7    8 1    
    16    8    9 1    
    17    8  134 1    
    18    8  135 1    
    19    9   10 ar   
    20    9   14 ar   
    21   10   11 ar   
    22   10  136 1    
    23   11   12 ar   
    24   11  126 1    
    25   12   13 ar   
    26   12  137 1    
    27   13   14 ar   
    28   13   15 1    
    29   14  138 1    
    30   15   16 1    
    31   15  139 1    
    32   15  140 1    
    33   16   17 1    
    34   17   18 1    
    35   17  141 1    
    36   17  142 1    
    37   18   19 1    
    38   18   67 1    
    39   18  143 1    
    40   19   20 am   BACKBONE|DICT|INTERRES
    41   19  144 1    
    42   20   21 2    
    43   20   22 1    
    44   22   23 1    
    45   22   24 1    
    46   22  145 1    
    47   23  146 1    
    48   23  147 1    
    49   23  148 1    
    50   24   25 am   BACKBONE|DICT|INTERRES
    51   24  149 1    
    52   25   26 2    
    53   25   27 1    
    54   27   28 1    
    55   27   29 1    
    56   27  150 1    
    57   28  151 1    
    58   28  152 1    
    59   28  153 1    
    60   29   30 am   BACKBONE|DICT|INTERRES
    61   29  154 1    
    62   30   31 2    
    63   30   32 1    
    64   32   33 1    
    65   32   34 1    
    66   32  155 1    
    67   33  156 1    
    68   33  157 1    
    69   33  158 1    
    70   34   35 am   BACKBONE|DICT|INTERRES
    71   34  159 1    
    72   35   36 2    
    73   35   37 1    
    74   37   38 1    
    75   37   39 1    
    76   37  160 1    
    77   38  161 1    
    78   38  162 1    
    79   38  163 1    
    80   39   40 am   BACKBONE|DICT|INTERRES
    81   39  164 1    
    82   40   41 2    
    83   40   42 1    
    84   42   43 1    
    85   42   44 1    
    86   42  165 1    
    87   43  166 1    
    88   43  167 1    
    89   43  168 1    
    90   44   45 am   BACKBONE|DICT|INTERRES
    91   44  169 1    
    92   45   46 2    
    93   45   47 1    
    94   47   48 1    
    95   47   49 1    
    96   47  170 1    
    97   48  171 1    
    98   48  172 1    
    99   48  173 1    
   100   49   50 am   BACKBONE|DICT|INTERRES
   101   49  174 1    
   102   50   51 2    
   103   50   52 1    
   104   52   53 1    
   105   52   54 1    
   106   52  175 1    
   107   53  176 1    
   108   53  177 1    
   109   53  178 1    
   110   54   55 am   BACKBONE|DICT|INTERRES
   111   54  179 1    
   112   55   56 2    
   113   55   57 1    
   114   57   58 1    
   115   57   59 1    
   116   57  180 1    
   117   58  181 1    
   118   58  182 1    
   119   58  183 1    
   120   59   60 am   BACKBONE|DICT|INTERRES
   121   59  184 1    
   122   60   61 2    
   123   60   62 1    
   124   62   63 1    
   125   62   64 1    
   126   62  185 1    
   127   63  186 1    
   128   63  187 1    
   129   63  188 1    
   130   64   65 am   BACKBONE|DICT|INTERRES
   131   64  189 1    
   132   65   66 2    
   133   67   68 2    
   134   67   69 am   BACKBONE|DICT|INTERRES
   135   69   70 1    
   136   69  190 1    
   137   70   71 1    
   138   70   72 1    
   139   70  191 1    
   140   71  192 1    
   141   71  193 1    
   142   71  194 1    
   143   72   73 2    
   144   72   74 am   BACKBONE|DICT|INTERRES
   145   74   75 1    
   146   74  195 1    
   147   75   76 1    
   148   75   77 1    
   149   75  196 1    
   150   76  197 1    
   151   76  198 1    
   152   76  199 1    
   153   77   78 2    
   154   77   79 am   BACKBONE|DICT|INTERRES
   155   79   80 1    
   156   79  200 1    
   157   80   81 1    
   158   80   82 1    
   159   80  201 1    
   160   81  202 1    
   161   81  203 1    
   162   81  204 1    
   163   82   83 2    
   164   82   84 am   BACKBONE|DICT|INTERRES
   165   84   85 1    
   166   84  205 1    
   167   85   86 1    
   168   85   87 1    
   169   85  206 1    
   170   86  207 1    
   171   86  208 1    
   172   86  209 1    
   173   87   88 2    
   174   87   89 am   BACKBONE|DICT|INTERRES
   175   89   90 1    
   176   89  210 1    
   177   90   91 1    
   178   90   92 1    
   179   90  211 1    
   180   91  212 1    
   181   91  213 1    
   182   91  214 1    
   183   92   93 2    
   184   92   94 am   BACKBONE|DICT|INTERRES
   185   94   95 1    
   186   94  215 1    
   187   95   96 1    
   188   95   97 1    
   189   95  216 1    
   190   96  217 1    
   191   96  218 1    
   192   96  219 1    
   193   97   98 2    
   194   97   99 am   BACKBONE|DICT|INTERRES
   195   99  100 1    
   196   99  220 1    
   197  100  101 1    
   198  100  102 1    
   199  100  221 1    
   200  101  222 1    
   201  101  223 1    
   202  101  224 1    
   203  102  103 2    
   204  102  104 am   BACKBONE|DICT|INTERRES
   205  104  105 1    
   206  104  225 1    
   207  105  106 1    
   208  105  107 1    
   209  105  226 1    
   210  106  227 1    
   211  106  228 1    
   212  106  229 1    
   213  107  108 2    
   214  107  109 am   BACKBONE|DICT|INTERRES
   215  109  110 1    
   216  109  230 1    
   217  110  111 1    
   218  110  112 1    
   219  110  231 1    
   220  111  232 1    
   221  111  233 1    
   222  111  234 1    
   223  112  113 2    
   224  112  114 am   BACKBONE|DICT|INTERRES
   225  114  115 1    
   226  114  235 1    
   227  115  116 1    
   228  115  117 1    
   229  115  236 1    
   230  116  237 1    
   231  116  238 1    
   232  116  239 1    
   233  117  118 2    
   234  117  119 am   BACKBONE|DICT|INTERRES
   235  119  120 1    
   236  119  240 1    
   237  120  121 1    
   238  120  124 1    
   239  120  241 1    
   240  121  122 am   BACKBONE|DICT|INTERRES
   241  121  123 2    
   242  122  242 1    
   243  122  243 1    
   244  124  125 1    
   245  124  244 1    
   246  124  245 1    
   247  125  126 1    
   248  126  246 1    
   249  126  247 1    
@<TRIPOS>SUBSTRUCTURE
     1 UNK         1 GROUP             0       ****    0 ROOT    
