@<TRIPOS>MOLECULE
3R540
247   249    1
SMALL
USER_CHARGES


@<TRIPOS>ATOM
      1 CA          5.8145  -11.9435  -45.3269 C.3       0 UNK        -0.1800 
      2 C           5.6292  -13.4520  -45.2508 C.2       0 UNK         0.5000 
      3 O           6.0505  -14.0704  -44.2720 O.2       0 UNK        -0.5000 
      4 N           5.0046  -14.0461  -46.2767 N.am      1 UNK        -0.5000 
      5 CA          4.7029  -15.4782  -46.3770 C.3       1 UNK         0.1400 
      6 C6          4.1106  -15.8828  -47.7525 C.3       23 UNK        -0.0398 
      7 S7          2.7958  -14.7802  -48.3854 S.3       23 UNK        -0.2404 
      8 C8          3.0701  -14.8554  -50.1849 C.3       23 UNK        -0.0205 
      9 C9          2.4429  -16.0968  -50.8034 C.ar      23 UNK        -0.0193 
     10 C10         1.2358  -16.0033  -51.5051 C.ar      23 UNK        -0.1150 
     11 C11         0.6577  -17.1397  -52.0793 C.ar      23 UNK        -0.0193 
     12 C12         1.2916  -18.3766  -51.9360 C.ar      23 UNK        -0.1150 
     13 C13         2.4861  -18.4876  -51.2215 C.ar      23 UNK        -0.0193 
     14 C14         3.0677  -17.3411  -50.6761 C.ar      23 UNK        -0.1150 
     15 C15         3.1439  -19.8457  -51.0289 C.3       23 UNK        -0.0205 
     16 S16         2.8428  -20.5083  -49.3580 S.3       23 UNK        -0.2404 
     17 C17         1.0464  -20.8301  -49.4040 C.3       23 UNK        -0.0398 
     18 CA          0.6300  -21.9793  -48.4569 C.3       11 UNK         0.1400 
     19 N           0.9383  -21.6885  -47.0572 N.am      11 UNK        -0.5000 
     20 C           1.0201  -22.6073  -46.0882 C.2       10 UNK         0.5000 
     21 O           0.8758  -23.8156  -46.2772 O.2       10 UNK        -0.5000 
     22 CA          1.2641  -22.0750  -44.6641 C.3       10 UNK         0.1400 
     23 CB          2.7634  -21.8414  -44.4242 C.3       10 UNK        -0.1800 
     24 N           0.5254  -20.8382  -44.3913 N.am      10 UNK        -0.5000 
     25 C          -0.8079  -20.7732  -44.2851 C.2       9 UNK         0.5000 
     26 O          -1.5445  -21.7523  -44.3967 O.2       9 UNK        -0.5000 
     27 CA         -1.4323  -19.3853  -44.0426 C.3       9 UNK         0.1400 
     28 CB         -1.3790  -19.0233  -42.5506 C.3       9 UNK        -0.1800 
     29 N          -0.8771  -18.2724  -44.8211 N.am      9 UNK        -0.5000 
     30 C          -0.6510  -18.2412  -46.1434 C.2       8 UNK         0.5000 
     31 O          -0.6757  -19.2331  -46.8706 O.2       8 UNK        -0.5000 
     32 CA         -0.4248  -16.8383  -46.7435 C.3       8 UNK         0.1400 
     33 CB         -0.2854  -16.8468  -48.2794 C.3       8 UNK        -0.1800 
     34 N          -1.4803  -15.9133  -46.3128 N.am      8 UNK        -0.5000 
     35 C          -2.8041  -16.0362  -46.5128 C.2       7 UNK         0.5000 
     36 O          -3.3231  -16.9041  -47.2144 O.2       7 UNK        -0.5000 
     37 CA         -3.7117  -15.0350  -45.7794 C.3       7 UNK         0.1400 
     38 CB         -3.9849  -15.5263  -44.3480 C.3       7 UNK        -0.1800 
     39 N          -3.1083  -13.7051  -45.7165 N.am      7 UNK        -0.5000 
     40 C          -3.5000  -12.6466  -46.4389 C.2       6 UNK         0.5000 
     41 O          -4.4559  -12.6610  -47.2154 O.2       6 UNK        -0.5000 
     42 CA         -2.6890  -11.3444  -46.2694 C.3       6 UNK         0.1400 
     43 CB         -3.3524  -10.4304  -45.2278 C.3       6 UNK        -0.1800 
     44 N          -1.2989  -11.5808  -45.8769 N.am      6 UNK        -0.5000 
     45 C          -0.3753  -12.1543  -46.6599 C.2       5 UNK         0.5000 
     46 O          -0.5684  -12.4385  -47.8419 O.2       5 UNK        -0.5000 
     47 CA          0.9832  -12.4914  -46.0144 C.3       5 UNK         0.1400 
     48 CB          2.0508  -11.4757  -46.4453 C.3       5 UNK        -0.1800 
     49 N           0.9853  -12.5924  -44.5503 N.am      5 UNK        -0.5000 
     50 C           0.2666  -13.4643  -43.8303 C.2       4 UNK         0.5000 
     51 O          -0.6044  -14.1919  -44.3095 O.2       4 UNK        -0.5000 
     52 CA          0.6226  -13.5599  -42.3422 C.3       4 UNK         0.1400 
     53 CB         -0.2478  -14.5816  -41.5819 C.3       4 UNK        -0.1800 
     54 N           2.0294  -13.9305  -42.2424 N.am      4 UNK        -0.5000 
     55 C           2.8244  -13.7083  -41.1878 C.2       3 UNK         0.5000 
     56 O           2.4685  -13.0695  -40.1958 O.2       3 UNK        -0.5000 
     57 CA          4.2533  -14.2985  -41.2537 C.3       3 UNK         0.1400 
     58 CB          4.8327  -14.6252  -39.8615 C.3       3 UNK        -0.1800 
     59 N           4.3600  -15.4548  -42.1523 N.am      3 UNK        -0.5000 
     60 C           3.6995  -16.6221  -42.0615 C.2       2 UNK         0.5000 
     61 O           3.0076  -16.9396  -41.0935 O.2       2 UNK        -0.5000 
     62 CA          3.7960  -17.5886  -43.2653 C.3       2 UNK         0.1400 
     63 CB          2.4365  -18.2470  -43.5723 C.3       2 UNK        -0.1800 
     64 N           4.3492  -16.9852  -44.4858 N.am      2 UNK        -0.5000 
     65 C           3.8391  -15.9668  -45.1951 C.2       1 UNK         0.5000 
     66 O           2.7866  -15.3895  -44.9139 O.2       1 UNK        -0.5000 
     67 C          -0.8610  -22.3344  -48.6196 C.2       11 UNK         0.5000 
     68 O          -1.1812  -23.2380  -49.3879 O.2       11 UNK        -0.5000 
     69 N          -1.7439  -21.6616  -47.8662 N.am      12 UNK        -0.5000 
     70 CA         -3.1768  -21.9577  -47.7869 C.3       12 UNK         0.1400 
     71 CB         -3.8946  -20.8673  -46.9800 C.3       12 UNK        -0.1800 
     72 C          -3.4559  -23.3557  -47.2100 C.2       12 UNK         0.5000 
     73 O          -4.2961  -24.0753  -47.7489 O.2       12 UNK        -0.5000 
     74 N          -2.7134  -23.7398  -46.1623 N.am      13 UNK        -0.5000 
     75 CA         -2.7408  -25.0800  -45.5762 C.3       13 UNK         0.1400 
     76 CB         -1.9085  -25.1022  -44.2856 C.3       13 UNK        -0.1800 
     77 C          -2.2628  -26.1606  -46.5633 C.2       13 UNK         0.5000 
     78 O          -2.9277  -27.1880  -46.7013 O.2       13 UNK        -0.5000 
     79 N          -1.1573  -25.8893  -47.2739 N.am      14 UNK        -0.5000 
     80 CA         -0.6166  -26.7514  -48.3306 C.3       14 UNK         0.1400 
     81 CB          0.7484  -26.2137  -48.7847 C.3       14 UNK        -0.1800 
     82 C          -1.5709  -26.9086  -49.5324 C.2       14 UNK         0.5000 
     83 O          -1.6544  -27.9946  -50.1062 O.2       14 UNK        -0.5000 
     84 N          -2.3062  -25.8374  -49.8576 N.am      15 UNK        -0.5000 
     85 CA         -3.3519  -25.7915  -50.8810 C.3       15 UNK         0.1400 
     86 CB         -3.5017  -24.3405  -51.3708 C.3       15 UNK        -0.1800 
     87 C          -4.7074  -26.3668  -50.4105 C.2       15 UNK         0.5000 
     88 O          -5.6830  -26.2697  -51.1546 O.2       15 UNK        -0.5000 
     89 N          -4.7587  -26.9483  -49.2019 N.am      16 UNK        -0.5000 
     90 CA         -5.9105  -27.6086  -48.5788 C.3       16 UNK         0.1400 
     91 CB         -6.3157  -28.8705  -49.3699 C.3       16 UNK        -0.1800 
     92 C          -7.0887  -26.6490  -48.3129 C.2       16 UNK         0.5000 
     93 O          -8.2406  -26.9834  -48.5949 O.2       16 UNK        -0.5000 
     94 N          -6.7628  -25.4709  -47.7637 N.am      17 UNK        -0.5000 
     95 CA         -7.6600  -24.3816  -47.3616 C.3       17 UNK         0.1400 
     96 CB         -8.7262  -24.8551  -46.3509 C.3       17 UNK        -0.1800 
     97 C          -8.2555  -23.5849  -48.5403 C.2       17 UNK         0.5000 
     98 O          -9.1940  -22.8114  -48.3390 O.2       17 UNK        -0.5000 
     99 N          -7.6738  -23.7383  -49.7369 N.am      18 UNK        -0.5000 
    100 CA        -7.8815  -22.8464  -50.8776 C.3       18 UNK         0.1400 
    101 CB        -7.4844  -23.5891  -52.1634 C.3       18 UNK        -0.1800 
    102 C         -7.0638  -21.5485  -50.7070 C.2       18 UNK         0.5000 
    103 O         -6.2939  -21.4197  -49.7505 O.2       18 UNK        -0.5000 
    104 N         -7.2071  -20.6152  -51.6581 N.am      19 UNK        -0.5000 
    105 CA        -6.5451  -19.3022  -51.7004 C.3       19 UNK         0.1400 
    106 CB        -7.3021  -18.4052  -52.6965 C.3       19 UNK        -0.1800 
    107 C         -5.0262  -19.3618  -51.9999 C.2       19 UNK         0.5000 
    108 O         -4.5195  -18.5962  -52.8233 O.2       19 UNK        -0.5000 
    109 N         -4.3267  -20.2926  -51.3372 N.am      20 UNK        -0.5000 
    110 CA        -2.8787  -20.5219  -51.3456 C.3       20 UNK         0.1400 
    111 CB        -2.1735  -19.3759  -50.5923 C.3       20 UNK        -0.1800 
    112 C         -2.2703  -20.8339  -52.7305 C.2       20 UNK         0.5000 
    113 O         -1.0567  -20.7371  -52.9002 O.2       20 UNK        -0.5000 
    114 N         -3.1263  -21.2191  -53.6878 N.am      21 UNK        -0.5000 
    115 CA        -2.8345  -21.4935  -55.0986 C.3       21 UNK         0.1400 
    116 CB        -1.8566  -22.6787  -55.2455 C.3       21 UNK        -0.1800 
    117 C         -2.3984  -20.2524  -55.9125 C.2       21 UNK         0.5000 
    118 O         -1.8964  -20.4128  -57.0268 O.2       21 UNK        -0.5000 
    119 N         -2.6259  -19.0435  -55.3798 N.am      22 UNK        -0.5000 
    120 CA        -2.4752  -17.7771  -56.1132 C.3       22 UNK         0.1400 
    121 C         -3.7332  -17.4706  -56.9737 C.2       22 UNK         0.5000 
    122 N         -3.5768  -16.7300  -58.0627 N.am      22 UNK        -0.7600 
    123 O         -4.8523  -17.8676  -56.6549 O.2       22 UNK        -0.5000 
    124 C124       -2.1514  -16.5931  -55.1657 C.3       23 UNK        -0.0398 
    125 S125       -0.4222  -16.6256  -54.5779 S.3       23 UNK        -0.2404 
    126 C126       -0.6628  -17.0395  -52.8284 C.3       23 UNK        -0.0205 
    127 H127        5.2167  -11.4536  -44.5584 H         1 UNK         0.0600 
    128 H128        5.5175  -11.5471  -46.2982 H         1 UNK         0.0600 
    129 H129        6.8607  -11.6855  -45.1627 H         1 UNK         0.0600 
    130 H130        4.6485  -13.4846  -47.0368 H         1 UNK         0.3000 
    131 H131        5.6667  -15.9862  -46.2983 H         1 UNK         0.0600 
    132 H132        3.7292  -16.9055  -47.7298 H         1 UNK         0.0800 
    133 H133        4.9237  -15.8918  -48.4789 H         1 UNK         0.0800 
    134 H134        4.1366  -14.8200  -50.4104 H         1 UNK         0.0800 
    135 H135        2.6399  -13.9588  -50.6336 H         1 UNK         0.0800 
    136 H136        0.7438  -15.0460  -51.6050 H         1 UNK         0.1150 
    137 H137        0.8494  -19.2584  -52.3729 H         1 UNK         0.1150 
    138 H138        3.9990  -17.4257  -50.1360 H         1 UNK         0.1150 
    139 H139        2.7910  -20.5585  -51.7759 H         1 UNK         0.0800 
    140 H140        4.2198  -19.7511  -51.1826 H         1 UNK         0.0800 
    141 H141        0.7602  -21.0681  -50.4304 H         1 UNK         0.0800 
    142 H142        0.5326  -19.9054  -49.1408 H         1 UNK         0.0800 
    143 H143        1.2003  -22.8643  -48.7472 H         1 UNK         0.0600 
    144 H144        0.9769  -20.7096  -46.8083 H         1 UNK         0.3000 
    145 H145        0.9222  -22.8374  -43.9608 H         1 UNK         0.0600 
    146 H146        2.9532  -21.4999  -43.4065 H         1 UNK         0.0600 
    147 H147        3.3269  -22.7645  -44.5665 H         1 UNK         0.0600 
    148 H148        3.1736  -21.1005  -45.1114 H         1 UNK         0.0600 
    149 H149        1.0597  -19.9879  -44.2991 H         1 UNK         0.3000 
    150 H150       -2.4836  -19.4598  -44.3253 H         1 UNK         0.0600 
    151 H151       -1.8040  -19.8198  -41.9381 H         1 UNK         0.0600 
    152 H152       -1.9499  -18.1178  -42.3433 H         1 UNK         0.0600 
    153 H153       -0.3558  -18.8585  -42.2114 H         1 UNK         0.0600 
    154 H154       -0.8286  -17.3903  -44.3329 H         1 UNK         0.3000 
    155 H155        0.5112  -16.4622  -46.3271 H         1 UNK         0.0600 
    156 H156       -1.1620  -17.2704  -48.7688 H         1 UNK         0.0600 
    157 H157       -0.1432  -15.8378  -48.6662 H         1 UNK         0.0600 
    158 H158        0.5786  -17.4360  -48.5891 H         1 UNK         0.0600 
    159 H159       -1.1691  -15.1887  -45.6693 H         1 UNK         0.3000 
    160 H160       -4.6648  -14.9994  -46.3112 H         1 UNK         0.0600 
    161 H161       -3.0700  -15.5799  -43.7563 H         1 UNK         0.0600 
    162 H162       -4.4306  -16.5219  -44.3546 H         1 UNK         0.0600 
    163 H163       -4.6783  -14.8628  -43.8311 H         1 UNK         0.0600 
    164 H164       -2.2858  -13.6170  -45.1296 H         1 UNK         0.3000 
    165 H165       -2.6895  -10.8260  -47.2306 H         1 UNK         0.0600 
    166 H166       -2.8287   -9.4776  -45.1478 H         1 UNK         0.0600 
    167 H167       -4.3848  -10.2104  -45.5028 H         1 UNK         0.0600 
    168 H168       -3.3672  -10.8910  -44.2391 H         1 UNK         0.0600 
    169 H169       -1.0505  -11.3686  -44.9220 H         1 UNK         0.3000 
    170 H170        1.2694  -13.4735  -46.3907 H         1 UNK         0.0600 
    171 H171        2.1225  -11.4203  -47.5324 H         1 UNK         0.0600 
    172 H172        1.8254  -10.4744  -46.0768 H         1 UNK         0.0600 
    173 H173        3.0328  -11.7593  -46.0718 H         1 UNK         0.0600 
    174 H174        1.6776  -12.0375  -44.0689 H         1 UNK         0.3000 
    175 H175        0.4700  -12.5706  -41.9062 H         1 UNK         0.0600 
    176 H176       -0.1063  -15.5926  -41.9665 H         1 UNK         0.0600 
    177 H177       -0.0075  -14.5939  -40.5188 H         1 UNK         0.0600 
    178 H178       -1.3073  -14.3385  -41.6713 H         1 UNK         0.0600 
    179 H179        2.3974  -14.4415  -43.0397 H         1 UNK         0.3000 
    180 H180        4.8773  -13.5193  -41.6933 H         1 UNK         0.0600 
    181 H181        4.2135  -15.3416  -39.3212 H         1 UNK         0.0600 
    182 H182        4.9029  -13.7272  -39.2467 H         1 UNK         0.0600 
    183 H183        5.8371  -15.0411  -39.9405 H         1 UNK         0.0600 
    184 H184        4.9112  -15.2857  -42.9872 H         1 UNK         0.3000 
    185 H185        4.4915  -18.3764  -42.9726 H         1 UNK         0.0600 
    186 H186        2.1383  -18.9151  -42.7636 H         1 UNK         0.0600 
    187 H187        1.6487  -17.5023  -43.6899 H         1 UNK         0.0600 
    188 H188        2.4852  -18.8307  -44.4902 H         1 UNK         0.0600 
    189 H189        5.2418  -17.3622  -44.7739 H         1 UNK         0.3000 
    190 H190       -1.4020  -20.8834  -47.3068 H         1 UNK         0.3000 
    191 H191       -3.5855  -21.9408  -48.7963 H         1 UNK         0.0600 
    192 H192       -3.5819  -20.8631  -45.9369 H         1 UNK         0.0600 
    193 H193       -4.9742  -21.0222  -46.9983 H         1 UNK         0.0600 
    194 H194       -3.7017  -19.8765  -47.3924 H         1 UNK         0.0600 
    195 H195       -2.0939  -23.0633  -45.7257 H         1 UNK         0.3000 
    196 H196       -3.7764  -25.3061  -45.3134 H         1 UNK         0.0600 
    197 H197       -1.9300  -26.0900  -43.8239 H         1 UNK         0.0600 
    198 H198       -2.2979  -24.3930  -43.5550 H         1 UNK         0.0600 
    199 H199       -0.8649  -24.8488  -44.4718 H         1 UNK         0.0600 
    200 H200       -0.6448  -25.0370  -47.0748 H         1 UNK         0.3000 
    201 H201       -0.4631  -27.7432  -47.9003 H         1 UNK         0.0600 
    202 H202        1.4440  -26.1437  -47.9482 H         1 UNK         0.0600 
    203 H203        0.6631  -25.2241  -49.2330 H         1 UNK         0.0600 
    204 H204        1.1985  -26.8721  -49.5286 H         1 UNK         0.0600 
    205 H205       -2.1121  -24.9612  -49.3823 H         1 UNK         0.3000 
    206 H206       -3.0277  -26.3966  -51.7298 H         1 UNK         0.0600 
    207 H207       -2.5407  -23.9255  -51.6751 H         1 UNK         0.0600 
    208 H208       -4.1569  -24.2860  -52.2397 H         1 UNK         0.0600 
    209 H209       -3.9191  -23.6963  -50.5963 H         1 UNK         0.0600 
    210 H210       -3.9163  -26.9408  -48.6400 H         1 UNK         0.3000 
    211 H211       -5.5693  -27.9399  -47.5970 H         1 UNK         0.0600 
    212 H212       -6.7196  -28.6236  -50.3521 H         1 UNK         0.0600 
    213 H213       -7.0800  -29.4364  -48.8362 H         1 UNK         0.0600 
    214 H214       -5.4636  -29.5347  -49.5147 H         1 UNK         0.0600 
    215 H215       -5.7743  -25.2483  -47.6645 H         1 UNK         0.3000 
    216 H216       -7.0204  -23.6713  -46.8357 H         1 UNK         0.0600 
    217 H217       -9.2517  -24.0059  -45.9127 H         1 UNK         0.0600 
    218 H218       -8.2736  -25.4120  -45.5305 H         1 UNK         0.0600 
    219 H219       -9.4772  -25.4922  -46.8182 H         1 UNK         0.0600 
    220 H220       -6.9032  -24.3875  -49.8081 H         1 UNK         0.3000 
    221 H221       -8.9388  -22.5810  -50.9395 H         1 UNK         0.0600 
    222 H222       -6.4154  -23.7946  -52.1938 H         1 UNK         0.0600 
    223 H223       -8.0078  -24.5420  -52.2458 H         1 UNK         0.0600 
    224 H224       -7.7323  -23.0085  -53.0523 H         1 UNK         0.0600 
    225 H225       -7.8334  -20.8091  -52.4261 H         1 UNK         0.3000 
    226 H226       -6.6433  -18.8489  -50.7120 H         1 UNK         0.0600 
    227 H227       -8.3575  -18.3263  -52.4351 H         1 UNK         0.0600 
    228 H228       -6.8969  -17.3924  -52.7011 H         1 UNK         0.0600 
    229 H229       -7.2347  -18.7905  -53.7147 H         1 UNK         0.0600 
    230 H230       -4.8619  -20.8568  -50.6796 H         1 UNK         0.3000 
    231 H231       -2.7100  -21.4354  -50.7807 H         1 UNK         0.0600 
    232 H232       -1.0915  -19.4344  -50.6799 H         1 UNK         0.0600 
    233 H233       -2.4107  -19.4060  -49.5291 H         1 UNK         0.0600 
    234 H234       -2.4778  -18.3964  -50.9580 H         1 UNK         0.0600 
    235 H235       -4.1035  -21.2516  -53.4355 H         1 UNK         0.3000 
    236 H236       -3.7840  -21.8061  -55.5351 H         1 UNK         0.0600 
    237 H237       -1.7891  -23.0033  -56.2844 H         1 UNK         0.0600 
    238 H238       -0.8489  -22.4172  -54.9222 H         1 UNK         0.0600 
    239 H239       -2.1856  -23.5372  -54.6598 H         1 UNK         0.0600 
    240 H240       -3.1059  -18.9874  -54.4897 H         1 UNK         0.3000 
    241 H241       -1.6392  -17.8806  -56.8081 H         1 UNK         0.0600 
    242 H242       -2.6712  -16.3884  -58.3470 H         1 UNK         0.3800 
    243 H243       -4.3844  -16.5128  -58.6265 H         1 UNK         0.3800 
    244 H244       -2.2804  -15.6393  -55.6808 H         1 UNK         0.0800 
    245 H245       -2.8452  -16.5719  -54.3232 H         1 UNK         0.0800 
    246 H246       -1.1923  -17.9891  -52.7839 H         1 UNK         0.0800 
    247 H247       -1.3059  -16.2964  -52.3545 H         1 UNK         0.0800 
@<TRIPOS>BOND
     1    1    2 1    
     2    1  127 1    
     3    1  128 1    
     4    1  129 1    
     5    2    3 2    
     6    2    4 am   BACKBONE|DICT|INTERRES
     7    4    5 1    
     8    4  130 1    
     9    5    6 1    
    10    5   65 1    
    11    5  131 1    
    12    6    7 1    
    13    6  132 1    
    14    6  133 1    
    15    7    8 1    
    16    8    9 1    
    17    8  134 1    
    18    8  135 1    
    19    9   10 ar   
    20    9   14 ar   
    21   10   11 ar   
    22   10  136 1    
    23   11   12 ar   
    24   11  126 1    
    25   12   13 ar   
    26   12  137 1    
    27   13   14 ar   
    28   13   15 1    
    29   14  138 1    
    30   15   16 1    
    31   15  139 1    
    32   15  140 1    
    33   16   17 1    
    34   17   18 1    
    35   17  141 1    
    36   17  142 1    
    37   18   19 1    
    38   18   67 1    
    39   18  143 1    
    40   19   20 am   BACKBONE|DICT|INTERRES
    41   19  144 1    
    42   20   21 2    
    43   20   22 1    
    44   22   23 1    
    45   22   24 1    
    46   22  145 1    
    47   23  146 1    
    48   23  147 1    
    49   23  148 1    
    50   24   25 am   BACKBONE|DICT|INTERRES
    51   24  149 1    
    52   25   26 2    
    53   25   27 1    
    54   27   28 1    
    55   27   29 1    
    56   27  150 1    
    57   28  151 1    
    58   28  152 1    
    59   28  153 1    
    60   29   30 am   BACKBONE|DICT|INTERRES
    61   29  154 1    
    62   30   31 2    
    63   30   32 1    
    64   32   33 1    
    65   32   34 1    
    66   32  155 1    
    67   33  156 1    
    68   33  157 1    
    69   33  158 1    
    70   34   35 am   BACKBONE|DICT|INTERRES
    71   34  159 1    
    72   35   36 2    
    73   35   37 1    
    74   37   38 1    
    75   37   39 1    
    76   37  160 1    
    77   38  161 1    
    78   38  162 1    
    79   38  163 1    
    80   39   40 am   BACKBONE|DICT|INTERRES
    81   39  164 1    
    82   40   41 2    
    83   40   42 1    
    84   42   43 1    
    85   42   44 1    
    86   42  165 1    
    87   43  166 1    
    88   43  167 1    
    89   43  168 1    
    90   44   45 am   BACKBONE|DICT|INTERRES
    91   44  169 1    
    92   45   46 2    
    93   45   47 1    
    94   47   48 1    
    95   47   49 1    
    96   47  170 1    
    97   48  171 1    
    98   48  172 1    
    99   48  173 1    
   100   49   50 am   BACKBONE|DICT|INTERRES
   101   49  174 1    
   102   50   51 2    
   103   50   52 1    
   104   52   53 1    
   105   52   54 1    
   106   52  175 1    
   107   53  176 1    
   108   53  177 1    
   109   53  178 1    
   110   54   55 am   BACKBONE|DICT|INTERRES
   111   54  179 1    
   112   55   56 2    
   113   55   57 1    
   114   57   58 1    
   115   57   59 1    
   116   57  180 1    
   117   58  181 1    
   118   58  182 1    
   119   58  183 1    
   120   59   60 am   BACKBONE|DICT|INTERRES
   121   59  184 1    
   122   60   61 2    
   123   60   62 1    
   124   62   63 1    
   125   62   64 1    
   126   62  185 1    
   127   63  186 1    
   128   63  187 1    
   129   63  188 1    
   130   64   65 am   BACKBONE|DICT|INTERRES
   131   64  189 1    
   132   65   66 2    
   133   67   68 2    
   134   67   69 am   BACKBONE|DICT|INTERRES
   135   69   70 1    
   136   69  190 1    
   137   70   71 1    
   138   70   72 1    
   139   70  191 1    
   140   71  192 1    
   141   71  193 1    
   142   71  194 1    
   143   72   73 2    
   144   72   74 am   BACKBONE|DICT|INTERRES
   145   74   75 1    
   146   74  195 1    
   147   75   76 1    
   148   75   77 1    
   149   75  196 1    
   150   76  197 1    
   151   76  198 1    
   152   76  199 1    
   153   77   78 2    
   154   77   79 am   BACKBONE|DICT|INTERRES
   155   79   80 1    
   156   79  200 1    
   157   80   81 1    
   158   80   82 1    
   159   80  201 1    
   160   81  202 1    
   161   81  203 1    
   162   81  204 1    
   163   82   83 2    
   164   82   84 am   BACKBONE|DICT|INTERRES
   165   84   85 1    
   166   84  205 1    
   167   85   86 1    
   168   85   87 1    
   169   85  206 1    
   170   86  207 1    
   171   86  208 1    
   172   86  209 1    
   173   87   88 2    
   174   87   89 am   BACKBONE|DICT|INTERRES
   175   89   90 1    
   176   89  210 1    
   177   90   91 1    
   178   90   92 1    
   179   90  211 1    
   180   91  212 1    
   181   91  213 1    
   182   91  214 1    
   183   92   93 2    
   184   92   94 am   BACKBONE|DICT|INTERRES
   185   94   95 1    
   186   94  215 1    
   187   95   96 1    
   188   95   97 1    
   189   95  216 1    
   190   96  217 1    
   191   96  218 1    
   192   96  219 1    
   193   97   98 2    
   194   97   99 am   BACKBONE|DICT|INTERRES
   195   99  100 1    
   196   99  220 1    
   197  100  101 1    
   198  100  102 1    
   199  100  221 1    
   200  101  222 1    
   201  101  223 1    
   202  101  224 1    
   203  102  103 2    
   204  102  104 am   BACKBONE|DICT|INTERRES
   205  104  105 1    
   206  104  225 1    
   207  105  106 1    
   208  105  107 1    
   209  105  226 1    
   210  106  227 1    
   211  106  228 1    
   212  106  229 1    
   213  107  108 2    
   214  107  109 am   BACKBONE|DICT|INTERRES
   215  109  110 1    
   216  109  230 1    
   217  110  111 1    
   218  110  112 1    
   219  110  231 1    
   220  111  232 1    
   221  111  233 1    
   222  111  234 1    
   223  112  113 2    
   224  112  114 am   BACKBONE|DICT|INTERRES
   225  114  115 1    
   226  114  235 1    
   227  115  116 1    
   228  115  117 1    
   229  115  236 1    
   230  116  237 1    
   231  116  238 1    
   232  116  239 1    
   233  117  118 2    
   234  117  119 am   BACKBONE|DICT|INTERRES
   235  119  120 1    
   236  119  240 1    
   237  120  121 1    
   238  120  124 1    
   239  120  241 1    
   240  121  122 am   BACKBONE|DICT|INTERRES
   241  121  123 2    
   242  122  242 1    
   243  122  243 1    
   244  124  125 1    
   245  124  244 1    
   246  124  245 1    
   247  125  126 1    
   248  126  246 1    
   249  126  247 1    
@<TRIPOS>SUBSTRUCTURE
     1 UNK         1 GROUP             0       ****    0 ROOT    
