@<TRIPOS>MOLECULE
3R540
247   249    1
SMALL
USER_CHARGES


@<TRIPOS>ATOM
      1 CA         -1.8505  -15.2125  -46.4117 C.3       0 UNK        -0.1800 
      2 C          -0.9641  -13.9893  -46.5960 C.2       0 UNK         0.5000 
      3 O          -0.8086  -13.2024  -45.6614 O.2       0 UNK        -0.5000 
      4 N          -0.3846  -13.8268  -47.7950 N.am      1 UNK        -0.5000 
      5 CA          0.3575  -12.6341  -48.2383 C.3       1 UNK         0.1400 
      6 C6          0.7741  -12.7043  -49.7294 C.3       23 UNK        -0.0398 
      7 S7         -0.5671  -13.1965  -50.8676 S.3       23 UNK        -0.2404 
      8 C8          0.3215  -14.2955  -52.0194 C.3       23 UNK        -0.0205 
      9 C9          0.3580  -15.7386  -51.5346 C.ar      23 UNK        -0.0193 
     10 C10        -0.5832  -16.6580  -52.0103 C.ar      23 UNK        -0.1150 
     11 C11        -0.5397  -17.9936  -51.6012 C.ar      23 UNK        -0.0193 
     12 C12         0.4426  -18.4055  -50.6997 C.ar      23 UNK        -0.1150 
     13 C13         1.3730  -17.4930  -50.1972 C.ar      23 UNK        -0.0193 
     14 C14         1.3389  -16.1661  -50.6327 C.ar      23 UNK        -0.1150 
     15 C15         2.3996  -17.9414  -49.1679 C.3       23 UNK        -0.0205 
     16 S16         1.9525  -17.4368  -47.4716 S.3       23 UNK        -0.2404 
     17 C17         0.2373  -18.0384  -47.3039 C.3       23 UNK        -0.0398 
     18 CA          0.0969  -19.5775  -47.2427 C.3       11 UNK         0.1400 
     19 N           0.7424  -20.1668  -46.0656 N.am      11 UNK        -0.5000 
     20 C           0.8711  -21.4842  -45.8508 C.2       10 UNK         0.5000 
     21 O           0.5283  -22.3433  -46.6628 O.2       10 UNK        -0.5000 
     22 CA          1.4093  -21.9187  -44.4756 C.3       10 UNK         0.1400 
     23 CB          2.9449  -21.8982  -44.4407 C.3       10 UNK        -0.1800 
     24 N           0.8667  -21.0961  -43.3926 N.am      10 UNK        -0.5000 
     25 C          -0.4151  -21.1310  -42.9994 C.2       9 UNK         0.5000 
     26 O          -1.2497  -21.9006  -43.4739 O.2       9 UNK        -0.5000 
     27 CA         -0.8525  -20.1111  -41.9314 C.3       9 UNK         0.1400 
     28 CB         -0.5340  -20.6358  -40.5238 C.3       9 UNK        -0.1800 
     29 N          -0.2422  -18.7939  -42.1178 N.am      9 UNK        -0.5000 
     30 C          -0.4432  -18.0086  -43.1861 C.2       8 UNK         0.5000 
     31 O          -1.2326  -18.2786  -44.0892 O.2       8 UNK        -0.5000 
     32 CA          0.4285  -16.7458  -43.3073 C.3       8 UNK         0.1400 
     33 CB         -0.2165  -15.5553  -42.5850 C.3       8 UNK        -0.1800 
     34 N           1.7878  -16.9468  -42.8103 N.am      8 UNK        -0.5000 
     35 C           2.6693  -17.8194  -43.3158 C.2       7 UNK         0.5000 
     36 O           2.4284  -18.5440  -44.2792 O.2       7 UNK        -0.5000 
     37 CA          4.0194  -17.9401  -42.5924 C.3       7 UNK         0.1400 
     38 CB          4.9824  -16.8244  -43.0180 C.3       7 UNK        -0.1800 
     39 N           3.8478  -17.9007  -41.1426 N.am      7 UNK        -0.5000 
     40 C           3.4929  -18.9547  -40.3978 C.2       6 UNK         0.5000 
     41 O           3.3025  -20.0825  -40.8544 O.2       6 UNK        -0.5000 
     42 CA          3.3028  -18.7000  -38.8902 C.3       6 UNK         0.1400 
     43 CB          4.6404  -18.8360  -38.1473 C.3       6 UNK        -0.1800 
     44 N           2.7169  -17.3904  -38.5927 N.am      6 UNK        -0.5000 
     45 C           1.4646  -17.0398  -38.9132 C.2       5 UNK         0.5000 
     46 O           0.6837  -17.7734  -39.5181 O.2       5 UNK        -0.5000 
     47 CA          1.0148  -15.6198  -38.5237 C.3       5 UNK         0.1400 
     48 CB          0.6241  -15.5689  -37.0388 C.3       5 UNK        -0.1800 
     49 N           1.9709  -14.5430  -38.8101 N.am      5 UNK        -0.5000 
     50 C           2.5893  -14.3296  -39.9790 C.2       4 UNK         0.5000 
     51 O           2.6222  -15.1396  -40.9052 O.2       4 UNK        -0.5000 
     52 CA          3.2704  -12.9655  -40.1702 C.3       4 UNK         0.1400 
     53 CB          4.7957  -13.1271  -40.2514 C.3       4 UNK        -0.1800 
     54 N           2.7887  -12.3337  -41.3987 N.am      4 UNK        -0.5000 
     55 C           1.5338  -11.9253  -41.6246 C.2       3 UNK         0.5000 
     56 O           0.6568  -11.9272  -40.7595 O.2       3 UNK        -0.5000 
     57 CA          1.1773  -11.4418  -43.0461 C.3       3 UNK         0.1400 
     58 CB          1.4945   -9.9443  -43.2162 C.3       3 UNK        -0.1800 
     59 N           1.7407  -12.2322  -44.1509 N.am      3 UNK        -0.5000 
     60 C           3.0226  -12.3777  -44.5236 C.2       2 UNK         0.5000 
     61 O           3.9752  -11.8995  -43.9066 O.2       2 UNK        -0.5000 
     62 CA          3.3019  -13.1974  -45.8006 C.3       2 UNK         0.1400 
     63 CB          3.7870  -14.6058  -45.4374 C.3       2 UNK        -0.1800 
     64 N           2.1527  -13.3156  -46.6974 N.am      2 UNK        -0.5000 
     65 C           1.6006  -12.3044  -47.3825 C.2       1 UNK         0.5000 
     66 O           2.0329  -11.1513  -47.3636 O.2       1 UNK        -0.5000 
     67 C          -1.3900  -19.9806  -47.3456 C.2       11 UNK         0.5000 
     68 O          -1.8402  -20.3634  -48.4251 O.2       11 UNK        -0.5000 
     69 N          -2.1159  -19.9258  -46.2199 N.am      12 UNK        -0.5000 
     70 CA         -3.5128  -20.3480  -46.1098 C.3       12 UNK         0.1400 
     71 CB         -4.0679  -19.9468  -44.7355 C.3       12 UNK        -0.1800 
     72 C          -3.7035  -21.8549  -46.3610 C.2       12 UNK         0.5000 
     73 O          -4.6649  -22.2371  -47.0267 O.2       12 UNK        -0.5000 
     74 N          -2.7700  -22.6791  -45.8639 N.am      13 UNK        -0.5000 
     75 CA         -2.7247  -24.1211  -46.1108 C.3       13 UNK         0.1400 
     76 CB         -1.6807  -24.7744  -45.1933 C.3       13 UNK        -0.1800 
     77 C          -2.4499  -24.4619  -47.5874 C.2       13 UNK         0.5000 
     78 O          -3.0563  -25.3940  -48.1130 O.2       13 UNK        -0.5000 
     79 N          -1.5765  -23.6853  -48.2439 N.am      14 UNK        -0.5000 
     80 CA         -1.2920  -23.7927  -49.6767 C.3       14 UNK         0.1400 
     81 CB         -0.0505  -22.9533  -50.0176 C.3       14 UNK        -0.1800 
     82 C          -2.4861  -23.3768  -50.5581 C.2       14 UNK         0.5000 
     83 O          -2.6680  -23.9436  -51.6366 O.2       14 UNK        -0.5000 
     84 N          -3.2652  -22.3927  -50.0900 N.am      15 UNK        -0.5000 
     85 CA         -4.4631  -21.8690  -50.7488 C.3       15 UNK         0.1400 
     86 CB         -4.7272  -20.4451  -50.2329 C.3       15 UNK        -0.1800 
     87 C          -5.7165  -22.7445  -50.5588 C.2       15 UNK         0.5000 
     88 O          -6.7204  -22.4939  -51.2272 O.2       15 UNK        -0.5000 
     89 N          -5.6672  -23.7311  -49.6515 N.am      16 UNK        -0.5000 
     90 CA         -6.7600  -24.6653  -49.3807 C.3       16 UNK         0.1400 
     91 CB         -6.4166  -25.5247  -48.1551 C.3       16 UNK        -0.1800 
     92 C          -7.0436  -25.5412  -50.6136 C.2       16 UNK         0.5000 
     93 O          -6.1262  -26.1913  -51.1200 O.2       16 UNK        -0.5000 
     94 N          -8.2908  -25.4924  -51.1014 N.am      17 UNK        -0.5000 
     95 CA         -8.8194  -26.0829  -52.3409 C.3       17 UNK         0.1400 
     96 CB         -8.6733  -27.6166  -52.3554 C.3       17 UNK        -0.1800 
     97 C          -8.2524  -25.4504  -53.6300 C.2       17 UNK         0.5000 
     98 O          -9.0215  -25.1420  -54.5418 O.2       17 UNK        -0.5000 
     99 N          -6.9336  -25.2332  -53.6797 N.am      18 UNK        -0.5000 
    100 CA        -6.1995  -24.5717  -54.7562 C.3       18 UNK         0.1400 
    101 CB        -4.7328  -25.0335  -54.7045 C.3       18 UNK        -0.1800 
    102 C         -6.3459  -23.0368  -54.6858 C.2       18 UNK         0.5000 
    103 O         -5.3595  -22.3210  -54.5011 O.2       18 UNK        -0.5000 
    104 N         -7.5883  -22.5579  -54.8221 N.am      19 UNK        -0.5000 
    105 CA        -7.9331  -21.1447  -54.9456 C.3       19 UNK         0.1400 
    106 CB        -9.4403  -20.9695  -54.6981 C.3       19 UNK        -0.1800 
    107 C         -7.5171  -20.6426  -56.3401 C.2       19 UNK         0.5000 
    108 O         -8.1401  -21.0337  -57.3297 O.2       19 UNK        -0.5000 
    109 N         -6.4500  -19.8312  -56.3724 N.am      20 UNK        -0.5000 
    110 CA        -5.6384  -19.4285  -57.5293 C.3       20 UNK         0.1400 
    111 CB        -6.4792  -18.8303  -58.6744 C.3       20 UNK        -0.1800 
    112 C         -4.7400  -20.5845  -58.0150 C.2       20 UNK         0.5000 
    113 O         -5.1838  -21.7326  -58.0825 O.2       20 UNK        -0.5000 
    114 N         -3.4751  -20.2546  -58.3213 N.am      21 UNK        -0.5000 
    115 CA        -2.3715  -21.1888  -58.5965 C.3       21 UNK         0.1400 
    116 CB        -2.5918  -21.9398  -59.9271 C.3       21 UNK        -0.1800 
    117 C         -2.1165  -22.1257  -57.3938 C.2       21 UNK         0.5000 
    118 O         -2.0616  -23.3479  -57.5452 O.2       21 UNK        -0.5000 
    119 N         -2.0297  -21.5088  -56.2091 N.am      22 UNK        -0.5000 
    120 CA        -1.9132  -22.1611  -54.8997 C.3       22 UNK         0.1400 
    121 C         -0.6152  -22.9918  -54.6830 C.2       22 UNK         0.5000 
    122 N         -0.6165  -23.8965  -53.7123 N.am      22 UNK        -0.7600 
    123 O          0.3942  -22.8160  -55.3627 O.2       22 UNK        -0.5000 
    124 C124       -2.1721  -21.1490  -53.7563 C.3       23 UNK        -0.0398 
    125 S125       -1.0041  -19.7518  -53.6766 S.3       23 UNK        -0.2404 
    126 C126       -1.5546  -18.9975  -52.1172 C.3       23 UNK        -0.0205 
    127 H127       -2.8756  -14.8999  -46.2140 H         1 UNK         0.0600 
    128 H128       -1.5112  -15.8042  -45.5631 H         1 UNK         0.0600 
    129 H129       -1.8577  -15.8472  -47.2974 H         1 UNK         0.0600 
    130 H130       -0.5538  -14.5092  -48.5207 H         1 UNK         0.3000 
    131 H131       -0.3274  -11.7908  -48.1277 H         1 UNK         0.0600 
    132 H132        1.6182  -13.3813  -49.8509 H         1 UNK         0.0800 
    133 H133        1.1352  -11.7283  -50.0590 H         1 UNK         0.0800 
    134 H134       -0.1744  -14.2470  -52.9901 H         1 UNK         0.0800 
    135 H135        1.3347  -13.9272  -52.1874 H         1 UNK         0.0800 
    136 H136       -1.3436  -16.3381  -52.7089 H         1 UNK         0.1150 
    137 H137        0.4707  -19.4376  -50.3810 H         1 UNK         0.1150 
    138 H138        2.0773  -15.4734  -50.2588 H         1 UNK         0.1150 
    139 H139        2.5281  -19.0242  -49.1991 H         1 UNK         0.0800 
    140 H140        3.3731  -17.5161  -49.4159 H         1 UNK         0.0800 
    141 H141       -0.3545  -17.6232  -48.1206 H         1 UNK         0.0800 
    142 H142       -0.1715  -17.5973  -46.3972 H         1 UNK         0.0800 
    143 H143        0.5938  -20.0006  -48.1163 H         1 UNK         0.0600 
    144 H144        1.1215  -19.5224  -45.3776 H         1 UNK         0.3000 
    145 H145        1.0893  -22.9487  -44.3049 H         1 UNK         0.0600 
    146 H146        3.3218  -22.2061  -43.4652 H         1 UNK         0.0600 
    147 H147        3.3561  -22.5856  -45.1808 H         1 UNK         0.0600 
    148 H148        3.3485  -20.9102  -44.6585 H         1 UNK         0.0600 
    149 H149        1.4878  -20.4126  -42.9827 H         1 UNK         0.3000 
    150 H150       -1.9347  -19.9917  -42.0118 H         1 UNK         0.0600 
    151 H151       -0.9636  -21.6261  -40.3678 H         1 UNK         0.0600 
    152 H152       -0.9466  -19.9799  -39.7573 H         1 UNK         0.0600 
    153 H153        0.5411  -20.7120  -40.3562 H         1 UNK         0.0600 
    154 H154        0.3684  -18.4670  -41.3756 H         1 UNK         0.3000 
    155 H155        0.5069  -16.4954  -44.3664 H         1 UNK         0.0600 
    156 H156       -1.2213  -15.3646  -42.9638 H         1 UNK         0.0600 
    157 H157        0.3643  -14.6449  -42.7332 H         1 UNK         0.0600 
    158 H158       -0.2950  -15.7320  -41.5123 H         1 UNK         0.0600 
    159 H159        2.0777  -16.3577  -42.0302 H         1 UNK         0.3000 
    160 H160        4.4672  -18.8954  -42.8753 H         1 UNK         0.0600 
    161 H161        4.5955  -15.8375  -42.7614 H         1 UNK         0.0600 
    162 H162        5.1514  -16.8504  -44.0949 H         1 UNK         0.0600 
    163 H163        5.9531  -16.9376  -42.5353 H         1 UNK         0.0600 
    164 H164        3.8954  -16.9901  -40.7052 H         1 UNK         0.3000 
    165 H165        2.6239  -19.4669  -38.5109 H         1 UNK         0.0600 
    166 H166        4.5045  -18.7426  -37.0697 H         1 UNK         0.0600 
    167 H167        5.0928  -19.8110  -38.3334 H         1 UNK         0.0600 
    168 H168        5.3563  -18.0761  -38.4634 H         1 UNK         0.0600 
    169 H169        3.3004  -16.7208  -38.1128 H         1 UNK         0.3000 
    170 H170        0.1191  -15.4016  -39.1081 H         1 UNK         0.0600 
    171 H171       -0.0992  -16.3490  -36.7967 H         1 UNK         0.0600 
    172 H172        1.4891  -15.7101  -36.3896 H         1 UNK         0.0600 
    173 H173        0.1648  -14.6138  -36.7835 H         1 UNK         0.0600 
    174 H174        2.0255  -13.8179  -38.1096 H         1 UNK         0.3000 
    175 H175        3.0289  -12.3139  -39.3281 H         1 UNK         0.0600 
    176 H176        5.0901  -13.7520  -41.0960 H         1 UNK         0.0600 
    177 H177        5.2885  -12.1612  -40.3632 H         1 UNK         0.0600 
    178 H178        5.1886  -13.5908  -39.3458 H         1 UNK         0.0600 
    179 H179        3.4358  -12.2903  -42.1812 H         1 UNK         0.3000 
    180 H180        0.0963  -11.5547  -43.1436 H         1 UNK         0.0600 
    181 H181        2.5608   -9.7390  -43.1188 H         1 UNK         0.0600 
    182 H182        0.9790   -9.3497  -42.4610 H         1 UNK         0.0600 
    183 H183        1.1708   -9.5821  -44.1922 H         1 UNK         0.0600 
    184 H184        1.0412  -12.6846  -44.7301 H         1 UNK         0.3000 
    185 H185        4.1014  -12.6906  -46.3448 H         1 UNK         0.0600 
    186 H186        3.0341  -15.1570  -44.8731 H         1 UNK         0.0600 
    187 H187        4.0314  -15.1855  -46.3278 H         1 UNK         0.0600 
    188 H188        4.6899  -14.5524  -44.8289 H         1 UNK         0.0600 
    189 H189        1.7320  -14.2299  -46.7785 H         1 UNK         0.3000 
    190 H190       -1.6940  -19.5349  -45.3807 H         1 UNK         0.3000 
    191 H191       -4.0808  -19.8113  -46.8722 H         1 UNK         0.0600 
    192 H192       -3.5297  -20.4370  -43.9245 H         1 UNK         0.0600 
    193 H193       -5.1197  -20.2205  -44.6445 H         1 UNK         0.0600 
    194 H194       -3.9970  -18.8699  -44.5810 H         1 UNK         0.0600 
    195 H195       -2.0476  -22.2957  -45.2627 H         1 UNK         0.3000 
    196 H196       -3.7030  -24.5331  -45.8540 H         1 UNK         0.0600 
    197 H197       -1.6591  -25.8555  -45.3357 H         1 UNK         0.0600 
    198 H198       -1.9076  -24.5891  -44.1433 H         1 UNK         0.0600 
    199 H199       -0.6773  -24.3981  -45.3904 H         1 UNK         0.0600 
    200 H200       -1.0630  -22.9793  -47.7257 H         1 UNK         0.3000 
    201 H201       -1.0658  -24.8376  -49.8985 H         1 UNK         0.0600 
    202 H202        0.8134  -23.2725  -49.4344 H         1 UNK         0.0600 
    203 H203       -0.2112  -21.8936  -49.8223 H         1 UNK         0.0600 
    204 H204        0.2133  -23.0528  -51.0708 H         1 UNK         0.0600 
    205 H205       -2.9910  -21.9356  -49.2274 H         1 UNK         0.3000 
    206 H206       -4.2797  -21.8132  -51.8225 H         1 UNK         0.0600 
    207 H207       -3.8650  -19.7975  -50.3839 H         1 UNK         0.0600 
    208 H208       -5.5696  -19.9894  -50.7545 H         1 UNK         0.0600 
    209 H209       -4.9608  -20.4433  -49.1680 H         1 UNK         0.0600 
    210 H210       -4.8073  -23.8753  -49.1408 H         1 UNK         0.3000 
    211 H211       -7.6480  -24.0763  -49.1423 H         1 UNK         0.0600 
    212 H212       -5.5711  -26.1848  -48.3501 H         1 UNK         0.0600 
    213 H213       -7.2619  -26.1534  -47.8736 H         1 UNK         0.0600 
    214 H214       -6.1678  -24.9049  -47.2931 H         1 UNK         0.0600 
    215 H215       -8.9466  -24.8918  -50.6210 H         1 UNK         0.3000 
    216 H216       -9.8881  -25.8622  -52.3338 H         1 UNK         0.0600 
    217 H217       -9.1816  -28.0446  -53.2203 H         1 UNK         0.0600 
    218 H218       -9.1154  -28.0632  -51.4649 H         1 UNK         0.0600 
    219 H219       -7.6306  -27.9306  -52.4066 H         1 UNK         0.0600 
    220 H220       -6.3928  -25.5084  -52.8644 H         1 UNK         0.3000 
    221 H221       -6.6135  -24.8942  -55.7137 H         1 UNK         0.0600 
    222 H222       -4.2448  -24.7221  -53.7800 H         1 UNK         0.0600 
    223 H223       -4.6580  -26.1188  -54.7722 H         1 UNK         0.0600 
    224 H224       -4.1662  -24.6192  -55.5392 H         1 UNK         0.0600 
    225 H225       -8.3389  -23.2257  -54.9562 H         1 UNK         0.3000 
    226 H226       -7.3965  -20.5823  -54.1782 H         1 UNK         0.0600 
    227 H227       -9.7129  -21.2934  -53.6934 H         1 UNK         0.0600 
    228 H228       -9.7308  -19.9226  -54.7935 H         1 UNK         0.0600 
    229 H229      -10.0379  -21.5433  -55.4077 H         1 UNK         0.0600 
    230 H230       -6.0223  -19.6204  -55.4815 H         1 UNK         0.3000 
    231 H231       -4.9884  -18.6352  -57.1565 H         1 UNK         0.0600 
    232 H232       -7.1560  -18.0583  -58.3084 H         1 UNK         0.0600 
    233 H233       -7.0738  -19.5868  -59.1868 H         1 UNK         0.0600 
    234 H234       -5.8347  -18.3702  -59.4240 H         1 UNK         0.0600 
    235 H235       -3.2080  -19.2818  -58.2592 H         1 UNK         0.3000 
    236 H236       -1.4711  -20.5832  -58.7098 H         1 UNK         0.0600 
    237 H237       -1.7182  -22.5408  -60.1818 H         1 UNK         0.0600 
    238 H238       -3.4471  -22.6141  -59.8809 H         1 UNK         0.0600 
    239 H239       -2.7579  -21.2437  -60.7491 H         1 UNK         0.0600 
    240 H240       -2.0569  -20.5009  -56.1874 H         1 UNK         0.3000 
    241 H241       -2.7267  -22.8856  -54.8632 H         1 UNK         0.0600 
    242 H242        0.2133  -24.4469  -53.5589 H         1 UNK         0.3800 
    243 H243       -1.4245  -24.0316  -53.1108 H         1 UNK         0.3800 
    244 H244       -3.1811  -20.7448  -53.8491 H         1 UNK         0.0800 
    245 H245       -2.1451  -21.6600  -52.7974 H         1 UNK         0.0800 
    246 H246       -1.7052  -19.7766  -51.3679 H         1 UNK         0.0800 
    247 H247       -2.5227  -18.5165  -52.2650 H         1 UNK         0.0800 
@<TRIPOS>BOND
     1    1    2 1    
     2    1  127 1    
     3    1  128 1    
     4    1  129 1    
     5    2    3 2    
     6    2    4 am   BACKBONE|DICT|INTERRES
     7    4    5 1    
     8    4  130 1    
     9    5    6 1    
    10    5   65 1    
    11    5  131 1    
    12    6    7 1    
    13    6  132 1    
    14    6  133 1    
    15    7    8 1    
    16    8    9 1    
    17    8  134 1    
    18    8  135 1    
    19    9   10 ar   
    20    9   14 ar   
    21   10   11 ar   
    22   10  136 1    
    23   11   12 ar   
    24   11  126 1    
    25   12   13 ar   
    26   12  137 1    
    27   13   14 ar   
    28   13   15 1    
    29   14  138 1    
    30   15   16 1    
    31   15  139 1    
    32   15  140 1    
    33   16   17 1    
    34   17   18 1    
    35   17  141 1    
    36   17  142 1    
    37   18   19 1    
    38   18   67 1    
    39   18  143 1    
    40   19   20 am   BACKBONE|DICT|INTERRES
    41   19  144 1    
    42   20   21 2    
    43   20   22 1    
    44   22   23 1    
    45   22   24 1    
    46   22  145 1    
    47   23  146 1    
    48   23  147 1    
    49   23  148 1    
    50   24   25 am   BACKBONE|DICT|INTERRES
    51   24  149 1    
    52   25   26 2    
    53   25   27 1    
    54   27   28 1    
    55   27   29 1    
    56   27  150 1    
    57   28  151 1    
    58   28  152 1    
    59   28  153 1    
    60   29   30 am   BACKBONE|DICT|INTERRES
    61   29  154 1    
    62   30   31 2    
    63   30   32 1    
    64   32   33 1    
    65   32   34 1    
    66   32  155 1    
    67   33  156 1    
    68   33  157 1    
    69   33  158 1    
    70   34   35 am   BACKBONE|DICT|INTERRES
    71   34  159 1    
    72   35   36 2    
    73   35   37 1    
    74   37   38 1    
    75   37   39 1    
    76   37  160 1    
    77   38  161 1    
    78   38  162 1    
    79   38  163 1    
    80   39   40 am   BACKBONE|DICT|INTERRES
    81   39  164 1    
    82   40   41 2    
    83   40   42 1    
    84   42   43 1    
    85   42   44 1    
    86   42  165 1    
    87   43  166 1    
    88   43  167 1    
    89   43  168 1    
    90   44   45 am   BACKBONE|DICT|INTERRES
    91   44  169 1    
    92   45   46 2    
    93   45   47 1    
    94   47   48 1    
    95   47   49 1    
    96   47  170 1    
    97   48  171 1    
    98   48  172 1    
    99   48  173 1    
   100   49   50 am   BACKBONE|DICT|INTERRES
   101   49  174 1    
   102   50   51 2    
   103   50   52 1    
   104   52   53 1    
   105   52   54 1    
   106   52  175 1    
   107   53  176 1    
   108   53  177 1    
   109   53  178 1    
   110   54   55 am   BACKBONE|DICT|INTERRES
   111   54  179 1    
   112   55   56 2    
   113   55   57 1    
   114   57   58 1    
   115   57   59 1    
   116   57  180 1    
   117   58  181 1    
   118   58  182 1    
   119   58  183 1    
   120   59   60 am   BACKBONE|DICT|INTERRES
   121   59  184 1    
   122   60   61 2    
   123   60   62 1    
   124   62   63 1    
   125   62   64 1    
   126   62  185 1    
   127   63  186 1    
   128   63  187 1    
   129   63  188 1    
   130   64   65 am   BACKBONE|DICT|INTERRES
   131   64  189 1    
   132   65   66 2    
   133   67   68 2    
   134   67   69 am   BACKBONE|DICT|INTERRES
   135   69   70 1    
   136   69  190 1    
   137   70   71 1    
   138   70   72 1    
   139   70  191 1    
   140   71  192 1    
   141   71  193 1    
   142   71  194 1    
   143   72   73 2    
   144   72   74 am   BACKBONE|DICT|INTERRES
   145   74   75 1    
   146   74  195 1    
   147   75   76 1    
   148   75   77 1    
   149   75  196 1    
   150   76  197 1    
   151   76  198 1    
   152   76  199 1    
   153   77   78 2    
   154   77   79 am   BACKBONE|DICT|INTERRES
   155   79   80 1    
   156   79  200 1    
   157   80   81 1    
   158   80   82 1    
   159   80  201 1    
   160   81  202 1    
   161   81  203 1    
   162   81  204 1    
   163   82   83 2    
   164   82   84 am   BACKBONE|DICT|INTERRES
   165   84   85 1    
   166   84  205 1    
   167   85   86 1    
   168   85   87 1    
   169   85  206 1    
   170   86  207 1    
   171   86  208 1    
   172   86  209 1    
   173   87   88 2    
   174   87   89 am   BACKBONE|DICT|INTERRES
   175   89   90 1    
   176   89  210 1    
   177   90   91 1    
   178   90   92 1    
   179   90  211 1    
   180   91  212 1    
   181   91  213 1    
   182   91  214 1    
   183   92   93 2    
   184   92   94 am   BACKBONE|DICT|INTERRES
   185   94   95 1    
   186   94  215 1    
   187   95   96 1    
   188   95   97 1    
   189   95  216 1    
   190   96  217 1    
   191   96  218 1    
   192   96  219 1    
   193   97   98 2    
   194   97   99 am   BACKBONE|DICT|INTERRES
   195   99  100 1    
   196   99  220 1    
   197  100  101 1    
   198  100  102 1    
   199  100  221 1    
   200  101  222 1    
   201  101  223 1    
   202  101  224 1    
   203  102  103 2    
   204  102  104 am   BACKBONE|DICT|INTERRES
   205  104  105 1    
   206  104  225 1    
   207  105  106 1    
   208  105  107 1    
   209  105  226 1    
   210  106  227 1    
   211  106  228 1    
   212  106  229 1    
   213  107  108 2    
   214  107  109 am   BACKBONE|DICT|INTERRES
   215  109  110 1    
   216  109  230 1    
   217  110  111 1    
   218  110  112 1    
   219  110  231 1    
   220  111  232 1    
   221  111  233 1    
   222  111  234 1    
   223  112  113 2    
   224  112  114 am   BACKBONE|DICT|INTERRES
   225  114  115 1    
   226  114  235 1    
   227  115  116 1    
   228  115  117 1    
   229  115  236 1    
   230  116  237 1    
   231  116  238 1    
   232  116  239 1    
   233  117  118 2    
   234  117  119 am   BACKBONE|DICT|INTERRES
   235  119  120 1    
   236  119  240 1    
   237  120  121 1    
   238  120  124 1    
   239  120  241 1    
   240  121  122 am   BACKBONE|DICT|INTERRES
   241  121  123 2    
   242  122  242 1    
   243  122  243 1    
   244  124  125 1    
   245  124  244 1    
   246  124  245 1    
   247  125  126 1    
   248  126  246 1    
   249  126  247 1    
@<TRIPOS>SUBSTRUCTURE
     1 UNK         1 GROUP             0       ****    0 ROOT    
