@<TRIPOS>MOLECULE
3R540
247   249    1
SMALL
USER_CHARGES


@<TRIPOS>ATOM
      1 CA          5.9571  -14.0007  -43.3405 C.3       0 UNK        -0.1800 
      2 C           4.8313  -13.8187  -44.3464 C.2       0 UNK         0.5000 
      3 O           4.1786  -12.7754  -44.3513 O.2       0 UNK        -0.5000 
      4 N           4.6151  -14.8168  -45.2131 N.am      1 UNK        -0.5000 
      5 CA          3.5471  -14.8867  -46.2242 C.3       1 UNK         0.1400 
      6 C6          3.5028  -16.2704  -46.9152 C.3       23 UNK        -0.0398 
      7 S7          5.0833  -16.7764  -47.6803 S.3       23 UNK        -0.2404 
      8 C8          4.7255  -16.5572  -49.4554 C.3       23 UNK        -0.0205 
      9 C9          3.6437  -17.5031  -49.9635 C.ar      23 UNK        -0.0193 
     10 C10         2.5124  -16.9997  -50.6124 C.ar      23 UNK        -0.1150 
     11 C11         1.5305  -17.8644  -51.1076 C.ar      23 UNK        -0.0193 
     12 C12         1.6714  -19.2431  -50.9172 C.ar      23 UNK        -0.1150 
     13 C13         2.7913  -19.7601  -50.2576 C.ar      23 UNK        -0.0193 
     14 C14         3.7833  -18.8843  -49.8064 C.ar      23 UNK        -0.1150 
     15 C15         2.9300  -21.2642  -50.0464 C.3       23 UNK        -0.0205 
     16 S16         3.3731  -21.7179  -48.3326 S.3       23 UNK        -0.2404 
     17 C17         1.9728  -21.0289  -47.3846 C.3       23 UNK        -0.0398 
     18 CA          0.9535  -22.1000  -46.9332 C.3       11 UNK         0.1400 
     19 N           0.0597  -21.5859  -45.8939 N.am      11 UNK        -0.5000 
     20 C          -0.8235  -22.3228  -45.2064 C.2       10 UNK         0.5000 
     21 O          -0.9400  -23.5426  -45.3295 O.2       10 UNK        -0.5000 
     22 CA         -1.7683  -21.5603  -44.2590 C.3       10 UNK         0.1400 
     23 CB         -1.0667  -21.2322  -42.9330 C.3       10 UNK        -0.1800 
     24 N          -2.2961  -20.3326  -44.8593 N.am      10 UNK        -0.5000 
     25 C          -3.0946  -20.3050  -45.9364 C.2       9 UNK         0.5000 
     26 O          -3.5107  -21.3145  -46.5000 O.2       9 UNK        -0.5000 
     27 CA         -3.4636  -18.9282  -46.5117 C.3       9 UNK         0.1400 
     28 CB         -4.6309  -18.3101  -45.7281 C.3       9 UNK        -0.1800 
     29 N          -2.3352  -17.9980  -46.5463 N.am      9 UNK        -0.5000 
     30 C          -1.2054  -18.1960  -47.2412 C.2       8 UNK         0.5000 
     31 O          -0.9969  -19.1879  -47.9373 O.2       8 UNK        -0.5000 
     32 CA         -0.0825  -17.1596  -47.0554 C.3       8 UNK         0.1400 
     33 CB         -0.3747  -15.8551  -47.8106 C.3       8 UNK        -0.1800 
     34 N           0.1560  -16.8594  -45.6438 N.am      8 UNK        -0.5000 
     35 C           0.5660  -17.7568  -44.7363 C.2       7 UNK         0.5000 
     36 O           0.8678  -18.9184  -45.0077 O.2       7 UNK        -0.5000 
     37 CA          0.5967  -17.2893  -43.2725 C.3       7 UNK         0.1400 
     38 CB          1.9117  -16.5616  -42.9559 C.3       7 UNK        -0.1800 
     39 N          -0.5429  -16.4261  -42.9580 N.am      7 UNK        -0.5000 
     40 C          -1.8075  -16.8628  -42.8600 C.2       6 UNK         0.5000 
     41 O          -2.1323  -18.0434  -42.9839 O.2       6 UNK        -0.5000 
     42 CA         -2.8950  -15.7980  -42.6250 C.3       6 UNK         0.1400 
     43 CB         -2.9909  -15.4414  -41.1342 C.3       6 UNK        -0.1800 
     44 N          -2.6664  -14.5791  -43.4021 N.am      6 UNK        -0.5000 
     45 C          -2.7153  -14.5126  -44.7406 C.2       5 UNK         0.5000 
     46 O          -3.0172  -15.4651  -45.4560 O.2       5 UNK        -0.5000 
     47 CA         -2.3152  -13.1740  -45.3914 C.3       5 UNK         0.1400 
     48 CB         -3.5528  -12.2937  -45.6168 C.3       5 UNK        -0.1800 
     49 N          -1.3215  -12.4252  -44.6163 N.am      5 UNK        -0.5000 
     50 C          -0.0863  -12.8620  -44.3405 C.2       4 UNK         0.5000 
     51 O           0.3583  -13.9444  -44.7294 O.2       4 UNK        -0.5000 
     52 CA          0.7740  -11.9560  -43.4478 C.3       4 UNK         0.1400 
     53 CB          1.4233  -12.7516  -42.3033 C.3       4 UNK        -0.1800 
     54 N           1.8161  -11.3037  -44.2323 N.am      4 UNK        -0.5000 
     55 C           1.6447  -10.1753  -44.9323 C.2       3 UNK         0.5000 
     56 O           0.5678   -9.5820  -45.0091 O.2       3 UNK        -0.5000 
     57 CA          2.8731   -9.5996  -45.6549 C.3       3 UNK         0.1400 
     58 CB          3.7904   -8.8662  -44.6629 C.3       3 UNK        -0.1800 
     59 N           3.6405  -10.6399  -46.3392 N.am      3 UNK        -0.5000 
     60 C           3.9802  -10.6127  -47.6364 C.2       2 UNK         0.5000 
     61 O           3.6858   -9.6928  -48.4010 O.2       2 UNK        -0.5000 
     62 CA          4.7942  -11.8041  -48.1869 C.3       2 UNK         0.1400 
     63 CB          6.2824  -11.4368  -48.2900 C.3       2 UNK        -0.1800 
     64 N           4.6660  -13.0182  -47.3825 N.am      2 UNK        -0.5000 
     65 C           3.5449  -13.7409  -47.2617 C.2       1 UNK         0.5000 
     66 O           2.5268  -13.5202  -47.9169 O.2       1 UNK        -0.5000 
     67 C           0.1597  -22.6768  -48.1228 C.2       11 UNK         0.5000 
     68 O           0.4269  -23.8009  -48.5447 O.2       11 UNK        -0.5000 
     69 N          -0.8308  -21.9213  -48.6134 N.am      12 UNK        -0.5000 
     70 CA         -1.7277  -22.3329  -49.6898 C.3       12 UNK         0.1400 
     71 CB         -2.5805  -21.1351  -50.1215 C.3       12 UNK        -0.1800 
     72 C          -2.6072  -23.5394  -49.3149 C.2       12 UNK         0.5000 
     73 O          -2.8769  -24.3793  -50.1709 O.2       12 UNK        -0.5000 
     74 N          -3.0479  -23.6215  -48.0527 N.am      13 UNK        -0.5000 
     75 CA         -3.7851  -24.7635  -47.5127 C.3       13 UNK         0.1400 
     76 CB         -4.3509  -24.4262  -46.1262 C.3       13 UNK        -0.1800 
     77 C          -2.9267  -26.0401  -47.4701 C.2       13 UNK         0.5000 
     78 O          -3.4035  -27.1028  -47.8704 O.2       13 UNK        -0.5000 
     79 N          -1.6650  -25.9053  -47.0364 N.am      14 UNK        -0.5000 
     80 CA         -0.6679  -26.9775  -47.0552 C.3       14 UNK         0.1400 
     81 CB          0.5846  -26.5322  -46.2853 C.3       14 UNK        -0.1800 
     82 C          -0.3095  -27.4269  -48.4854 C.2       14 UNK         0.5000 
     83 O          -0.1626  -28.6258  -48.7287 O.2       14 UNK        -0.5000 
     84 N          -0.2258  -26.4681  -49.4170 N.am      15 UNK        -0.5000 
     85 CA         -0.0025  -26.6695  -50.8492 C.3       15 UNK         0.1400 
     86 CB          0.5431  -25.3653  -51.4569 C.3       15 UNK        -0.1800 
     87 C          -1.2652  -27.1821  -51.5784 C.2       15 UNK         0.5000 
     88 O          -1.7538  -26.5376  -52.5081 O.2       15 UNK        -0.5000 
     89 N          -1.7528  -28.3531  -51.1478 N.am      16 UNK        -0.5000 
     90 CA         -2.8546  -29.1295  -51.7240 C.3       16 UNK         0.1400 
     91 CB         -2.4721  -29.6534  -53.1250 C.3       16 UNK        -0.1800 
     92 C          -4.2169  -28.4034  -51.7004 C.2       16 UNK         0.5000 
     93 O          -4.9764  -28.4906  -52.6674 O.2       16 UNK        -0.5000 
     94 N          -4.5157  -27.7346  -50.5764 N.am      17 UNK        -0.5000 
     95 CA         -5.7990  -27.1029  -50.2483 C.3       17 UNK         0.1400 
     96 CB         -6.8997  -28.1712  -50.0741 C.3       17 UNK        -0.1800 
     97 C          -6.2113  -25.9635  -51.2049 C.2       17 UNK         0.5000 
     98 O          -7.4006  -25.7988  -51.4839 O.2       17 UNK        -0.5000 
     99 N          -5.2328  -25.1779  -51.6770 N.am      18 UNK        -0.5000 
    100 CA        -5.4675  -23.9894  -52.5016 C.3       18 UNK         0.1400 
    101 CB        -4.1627  -23.5824  -53.2030 C.3       18 UNK        -0.1800 
    102 C         -6.0539  -22.8220  -51.6819 C.2       18 UNK         0.5000 
    103 O         -6.8669  -22.0674  -52.2135 O.2       18 UNK        -0.5000 
    104 N         -5.6473  -22.7351  -50.4041 N.am      19 UNK        -0.5000 
    105 CA        -6.1283  -21.8750  -49.3131 C.3       19 UNK         0.1400 
    106 CB        -7.3062  -22.5737  -48.6059 C.3       19 UNK        -0.1800 
    107 C         -6.4488  -20.4192  -49.7169 C.2       19 UNK         0.5000 
    108 O         -5.5629  -19.5617  -49.6947 O.2       19 UNK        -0.5000 
    109 N         -7.7079  -20.1750  -50.1071 N.am      20 UNK        -0.5000 
    110 CA        -8.2555  -18.8958  -50.5687 C.3       20 UNK         0.1400 
    111 CB        -9.7639  -19.0688  -50.8064 C.3       20 UNK        -0.1800 
    112 C         -7.5734  -18.3030  -51.8212 C.2       20 UNK         0.5000 
    113 O         -7.7977  -17.1300  -52.1224 O.2       20 UNK        -0.5000 
    114 N         -6.7400  -19.0983  -52.5096 N.am      21 UNK        -0.5000 
    115 CA        -5.8505  -18.6819  -53.5963 C.3       21 UNK         0.1400 
    116 CB        -5.0536  -19.8999  -54.0855 C.3       21 UNK        -0.1800 
    117 C         -4.8903  -17.5345  -53.2172 C.2       21 UNK         0.5000 
    118 O         -4.5720  -16.7158  -54.0813 O.2       21 UNK        -0.5000 
    119 N         -4.4802  -17.4663  -51.9430 N.am      22 UNK        -0.5000 
    120 CA        -3.7487  -16.3208  -51.3794 C.3       22 UNK         0.1400 
    121 C         -3.9884  -16.0676  -49.8638 C.2       22 UNK         0.5000 
    122 N         -4.6761  -16.9284  -49.1232 N.am      22 UNK        -0.7600 
    123 O         -3.5730  -15.0334  -49.3493 O.2       22 UNK        -0.5000 
    124 C124       -2.2491  -16.2821  -51.7794 C.3       23 UNK        -0.0398 
    125 S125       -1.2445  -17.6273  -51.0702 S.3       23 UNK        -0.2404 
    126 C126        0.3474  -17.3068  -51.8886 C.3       23 UNK        -0.0205 
    127 H127        5.5621  -13.9491  -42.3261 H         1 UNK         0.0600 
    128 H128        6.4592  -14.9607  -43.4626 H         1 UNK         0.0600 
    129 H129        6.6977  -13.2100  -43.4602 H         1 UNK         0.0600 
    130 H130        5.2176  -15.6274  -45.1812 H         1 UNK         0.3000 
    131 H131        2.6094  -14.7760  -45.6802 H         1 UNK         0.0600 
    132 H132        3.2389  -17.0320  -46.1806 H         1 UNK         0.0800 
    133 H133        2.7068  -16.2983  -47.6589 H         1 UNK         0.0800 
    134 H134        4.4525  -15.5167  -49.6380 H         1 UNK         0.0800 
    135 H135        5.6401  -16.7378  -50.0215 H         1 UNK         0.0800 
    136 H136        2.4067  -15.9327  -50.7514 H         1 UNK         0.1150 
    137 H137        0.9063  -19.9107  -51.2883 H         1 UNK         0.1150 
    138 H138        4.6603  -19.2772  -49.3113 H         1 UNK         0.1150 
    139 H139        2.0081  -21.7796  -50.3200 H         1 UNK         0.0800 
    140 H140        3.7023  -21.6400  -50.7186 H         1 UNK         0.0800 
    141 H141        1.4831  -20.2288  -47.9406 H         1 UNK         0.0800 
    142 H142        2.4062  -20.5483  -46.5068 H         1 UNK         0.0800 
    143 H143        1.5104  -22.9250  -46.4835 H         1 UNK         0.0600 
    144 H144        0.1152  -20.5893  -45.7048 H         1 UNK         0.3000 
    145 H145       -2.6152  -22.2136  -44.0397 H         1 UNK         0.0600 
    146 H146       -1.7538  -20.7606  -42.2303 H         1 UNK         0.0600 
    147 H147       -0.6864  -22.1375  -42.4584 H         1 UNK         0.0600 
    148 H148       -0.2227  -20.5581  -43.0785 H         1 UNK         0.0600 
    149 H149       -2.0433  -19.4576  -44.4115 H         1 UNK         0.3000 
    150 H150       -3.7895  -19.0841  -47.5414 H         1 UNK         0.0600 
    151 H151       -5.4935  -18.9776  -45.7234 H         1 UNK         0.0600 
    152 H152       -4.9524  -17.3676  -46.1700 H         1 UNK         0.0600 
    153 H153       -4.3593  -18.1147  -44.6904 H         1 UNK         0.0600 
    154 H154       -2.4481  -17.1302  -46.0276 H         1 UNK         0.3000 
    155 H155        0.8312  -17.5947  -47.4637 H         1 UNK         0.0600 
    156 H156       -1.3635  -15.4619  -47.5772 H         1 UNK         0.0600 
    157 H157       -0.3335  -16.0119  -48.8869 H         1 UNK         0.0600 
    158 H158        0.3556  -15.0830  -47.5709 H         1 UNK         0.0600 
    159 H159       -0.0411  -15.9139  -45.3352 H         1 UNK         0.3000 
    160 H160        0.5410  -18.1752  -42.6365 H         1 UNK         0.0600 
    161 H161        1.9528  -16.2551  -41.9107 H         1 UNK         0.0600 
    162 H162        2.0403  -15.6729  -43.5711 H         1 UNK         0.0600 
    163 H163        2.7692  -17.2103  -43.1394 H         1 UNK         0.0600 
    164 H164       -0.3617  -15.4347  -42.9053 H         1 UNK         0.3000 
    165 H165       -3.8509  -16.2242  -42.9365 H         1 UNK         0.0600 
    166 H166       -3.8101  -14.7469  -40.9471 H         1 UNK         0.0600 
    167 H167       -3.1774  -16.3317  -40.5319 H         1 UNK         0.0600 
    168 H168       -2.0714  -14.9835  -40.7674 H         1 UNK         0.0600 
    169 H169       -2.4211  -13.7464  -42.8878 H         1 UNK         0.3000 
    170 H170       -1.8756  -13.3999  -46.3648 H         1 UNK         0.0600 
    171 H171       -4.2981  -12.8173  -46.2175 H         1 UNK         0.0600 
    172 H172       -4.0264  -12.0140  -44.6750 H         1 UNK         0.0600 
    173 H173       -3.2942  -11.3781  -46.1492 H         1 UNK         0.0600 
    174 H174       -1.6017  -11.5129  -44.2850 H         1 UNK         0.3000 
    175 H175        0.1348  -11.1961  -42.9929 H         1 UNK         0.0600 
    176 H176        2.1272  -13.4960  -42.6739 H         1 UNK         0.0600 
    177 H177        1.9676  -12.0914  -41.6280 H         1 UNK         0.0600 
    178 H178        0.6712  -13.2746  -41.7115 H         1 UNK         0.0600 
    179 H179        2.7201  -11.7717  -44.2392 H         1 UNK         0.3000 
    180 H180        2.4999   -8.8656  -46.3721 H         1 UNK         0.0600 
    181 H181        4.2122   -9.5489  -43.9239 H         1 UNK         0.0600 
    182 H182        3.2444   -8.0915  -44.1232 H         1 UNK         0.0600 
    183 H183        4.6182   -8.3807  -45.1799 H         1 UNK         0.0600 
    184 H184        3.9091  -11.4437  -45.7808 H         1 UNK         0.3000 
    185 H185        4.4235  -12.0201  -49.1911 H         1 UNK         0.0600 
    186 H186        6.4245  -10.5515  -48.9112 H         1 UNK         0.0600 
    187 H187        6.7124  -11.2231  -47.3106 H         1 UNK         0.0600 
    188 H188        6.8582  -12.2448  -48.7418 H         1 UNK         0.0600 
    189 H189        5.4579  -13.2715  -46.8100 H         1 UNK         0.3000 
    190 H190       -0.9679  -20.9815  -48.2431 H         1 UNK         0.3000 
    191 H191       -1.1120  -22.6247  -50.5414 H         1 UNK         0.0600 
    192 H192       -3.1729  -20.7462  -49.2941 H         1 UNK         0.0600 
    193 H193       -3.2613  -21.3948  -50.9312 H         1 UNK         0.0600 
    194 H194       -1.9490  -20.3266  -50.4833 H         1 UNK         0.0600 
    195 H195       -2.8798  -22.8451  -47.4179 H         1 UNK         0.3000 
    196 H196       -4.6312  -24.9490  -48.1744 H         1 UNK         0.0600 
    197 H197       -3.5623  -24.1801  -45.4157 H         1 UNK         0.0600 
    198 H198       -4.9102  -25.2686  -45.7176 H         1 UNK         0.0600 
    199 H199       -5.0336  -23.5778  -46.1759 H         1 UNK         0.0600 
    200 H200       -1.3589  -25.0014  -46.6899 H         1 UNK         0.3000 
    201 H201       -1.0947  -27.8381  -46.5360 H         1 UNK         0.0600 
    202 H202        1.0554  -25.6630  -46.7444 H         1 UNK         0.0600 
    203 H203        1.3276  -27.3300  -46.2545 H         1 UNK         0.0600 
    204 H204        0.3413  -26.2730  -45.2547 H         1 UNK         0.0600 
    205 H205       -0.3065  -25.5020  -49.1130 H         1 UNK         0.3000 
    206 H206        0.7687  -27.4327  -50.9711 H         1 UNK         0.0600 
    207 H207        1.4461  -25.0354  -50.9430 H         1 UNK         0.0600 
    208 H208        0.7978  -25.5000  -52.5087 H         1 UNK         0.0600 
    209 H209       -0.1893  -24.5613  -51.3974 H         1 UNK         0.0600 
    210 H210       -1.2908  -28.7681  -50.3438 H         1 UNK         0.3000 
    211 H211       -2.9746  -29.9997  -51.0773 H         1 UNK         0.0600 
    212 H212       -2.3823  -28.8436  -53.8497 H         1 UNK         0.0600 
    213 H213       -3.2239  -30.3475  -53.5024 H         1 UNK         0.0600 
    214 H214       -1.5230  -30.1888  -53.1006 H         1 UNK         0.0600 
    215 H215       -3.8221  -27.6944  -49.8370 H         1 UNK         0.3000 
    216 H216       -5.6661  -26.6347  -49.2749 H         1 UNK         0.0600 
    217 H217       -6.5902  -28.9445  -49.3709 H         1 UNK         0.0600 
    218 H218       -7.8167  -27.7295  -49.6824 H         1 UNK         0.0600 
    219 H219       -7.1486  -28.6560  -51.0185 H         1 UNK         0.0600 
    220 H220       -4.2752  -25.3447  -51.3839 H         1 UNK         0.3000 
    221 H221       -6.1933  -24.2486  -53.2753 H         1 UNK         0.0600 
    222 H222       -3.4009  -23.2545  -52.4967 H         1 UNK         0.0600 
    223 H223       -3.7482  -24.4138  -53.7736 H         1 UNK         0.0600 
    224 H224       -4.3356  -22.7651  -53.9028 H         1 UNK         0.0600 
    225 H225       -4.9424  -23.4069  -50.1333 H         1 UNK         0.3000 
    226 H226       -5.3145  -21.8091  -48.5900 H         1 UNK         0.0600 
    227 H227       -6.9838  -23.5108  -48.1516 H         1 UNK         0.0600 
    228 H228       -7.7124  -21.9531  -47.8059 H         1 UNK         0.0600 
    229 H229       -8.1183  -22.8076  -49.2952 H         1 UNK         0.0600 
    230 H230       -8.3414  -20.9600  -50.1447 H         1 UNK         0.3000 
    231 H231       -8.1161  -18.1734  -49.7622 H         1 UNK         0.0600 
    232 H232      -10.2723  -19.3958  -49.8992 H         1 UNK         0.0600 
    233 H233       -9.9639  -19.8026  -51.5883 H         1 UNK         0.0600 
    234 H234      -10.2244  -18.1286  -51.1128 H         1 UNK         0.0600 
    235 H235       -6.6813  -20.0724  -52.2300 H         1 UNK         0.3000 
    236 H236       -6.4790  -18.3284  -54.4159 H         1 UNK         0.0600 
    237 H237       -4.4372  -20.3190  -53.2890 H         1 UNK         0.0600 
    238 H238       -5.7174  -20.6849  -54.4479 H         1 UNK         0.0600 
    239 H239       -4.3901  -19.6305  -54.9083 H         1 UNK         0.0600 
    240 H240       -4.7724  -18.1823  -51.2917 H         1 UNK         0.3000 
    241 H241       -4.1995  -15.4362  -51.8343 H         1 UNK         0.0600 
    242 H242       -4.8125  -16.6937  -48.1548 H         1 UNK         0.3800 
    243 H243       -5.0016  -17.8283  -49.4625 H         1 UNK         0.3800 
    244 H244       -2.1530  -16.3162  -52.8651 H         1 UNK         0.0800 
    245 H245       -1.8092  -15.3309  -51.4751 H         1 UNK         0.0800 
    246 H246        0.4681  -16.2321  -52.0329 H         1 UNK         0.0800 
    247 H247        0.3310  -17.7501  -52.8850 H         1 UNK         0.0800 
@<TRIPOS>BOND
     1    1    2 1    
     2    1  127 1    
     3    1  128 1    
     4    1  129 1    
     5    2    3 2    
     6    2    4 am   BACKBONE|DICT|INTERRES
     7    4    5 1    
     8    4  130 1    
     9    5    6 1    
    10    5   65 1    
    11    5  131 1    
    12    6    7 1    
    13    6  132 1    
    14    6  133 1    
    15    7    8 1    
    16    8    9 1    
    17    8  134 1    
    18    8  135 1    
    19    9   10 ar   
    20    9   14 ar   
    21   10   11 ar   
    22   10  136 1    
    23   11   12 ar   
    24   11  126 1    
    25   12   13 ar   
    26   12  137 1    
    27   13   14 ar   
    28   13   15 1    
    29   14  138 1    
    30   15   16 1    
    31   15  139 1    
    32   15  140 1    
    33   16   17 1    
    34   17   18 1    
    35   17  141 1    
    36   17  142 1    
    37   18   19 1    
    38   18   67 1    
    39   18  143 1    
    40   19   20 am   BACKBONE|DICT|INTERRES
    41   19  144 1    
    42   20   21 2    
    43   20   22 1    
    44   22   23 1    
    45   22   24 1    
    46   22  145 1    
    47   23  146 1    
    48   23  147 1    
    49   23  148 1    
    50   24   25 am   BACKBONE|DICT|INTERRES
    51   24  149 1    
    52   25   26 2    
    53   25   27 1    
    54   27   28 1    
    55   27   29 1    
    56   27  150 1    
    57   28  151 1    
    58   28  152 1    
    59   28  153 1    
    60   29   30 am   BACKBONE|DICT|INTERRES
    61   29  154 1    
    62   30   31 2    
    63   30   32 1    
    64   32   33 1    
    65   32   34 1    
    66   32  155 1    
    67   33  156 1    
    68   33  157 1    
    69   33  158 1    
    70   34   35 am   BACKBONE|DICT|INTERRES
    71   34  159 1    
    72   35   36 2    
    73   35   37 1    
    74   37   38 1    
    75   37   39 1    
    76   37  160 1    
    77   38  161 1    
    78   38  162 1    
    79   38  163 1    
    80   39   40 am   BACKBONE|DICT|INTERRES
    81   39  164 1    
    82   40   41 2    
    83   40   42 1    
    84   42   43 1    
    85   42   44 1    
    86   42  165 1    
    87   43  166 1    
    88   43  167 1    
    89   43  168 1    
    90   44   45 am   BACKBONE|DICT|INTERRES
    91   44  169 1    
    92   45   46 2    
    93   45   47 1    
    94   47   48 1    
    95   47   49 1    
    96   47  170 1    
    97   48  171 1    
    98   48  172 1    
    99   48  173 1    
   100   49   50 am   BACKBONE|DICT|INTERRES
   101   49  174 1    
   102   50   51 2    
   103   50   52 1    
   104   52   53 1    
   105   52   54 1    
   106   52  175 1    
   107   53  176 1    
   108   53  177 1    
   109   53  178 1    
   110   54   55 am   BACKBONE|DICT|INTERRES
   111   54  179 1    
   112   55   56 2    
   113   55   57 1    
   114   57   58 1    
   115   57   59 1    
   116   57  180 1    
   117   58  181 1    
   118   58  182 1    
   119   58  183 1    
   120   59   60 am   BACKBONE|DICT|INTERRES
   121   59  184 1    
   122   60   61 2    
   123   60   62 1    
   124   62   63 1    
   125   62   64 1    
   126   62  185 1    
   127   63  186 1    
   128   63  187 1    
   129   63  188 1    
   130   64   65 am   BACKBONE|DICT|INTERRES
   131   64  189 1    
   132   65   66 2    
   133   67   68 2    
   134   67   69 am   BACKBONE|DICT|INTERRES
   135   69   70 1    
   136   69  190 1    
   137   70   71 1    
   138   70   72 1    
   139   70  191 1    
   140   71  192 1    
   141   71  193 1    
   142   71  194 1    
   143   72   73 2    
   144   72   74 am   BACKBONE|DICT|INTERRES
   145   74   75 1    
   146   74  195 1    
   147   75   76 1    
   148   75   77 1    
   149   75  196 1    
   150   76  197 1    
   151   76  198 1    
   152   76  199 1    
   153   77   78 2    
   154   77   79 am   BACKBONE|DICT|INTERRES
   155   79   80 1    
   156   79  200 1    
   157   80   81 1    
   158   80   82 1    
   159   80  201 1    
   160   81  202 1    
   161   81  203 1    
   162   81  204 1    
   163   82   83 2    
   164   82   84 am   BACKBONE|DICT|INTERRES
   165   84   85 1    
   166   84  205 1    
   167   85   86 1    
   168   85   87 1    
   169   85  206 1    
   170   86  207 1    
   171   86  208 1    
   172   86  209 1    
   173   87   88 2    
   174   87   89 am   BACKBONE|DICT|INTERRES
   175   89   90 1    
   176   89  210 1    
   177   90   91 1    
   178   90   92 1    
   179   90  211 1    
   180   91  212 1    
   181   91  213 1    
   182   91  214 1    
   183   92   93 2    
   184   92   94 am   BACKBONE|DICT|INTERRES
   185   94   95 1    
   186   94  215 1    
   187   95   96 1    
   188   95   97 1    
   189   95  216 1    
   190   96  217 1    
   191   96  218 1    
   192   96  219 1    
   193   97   98 2    
   194   97   99 am   BACKBONE|DICT|INTERRES
   195   99  100 1    
   196   99  220 1    
   197  100  101 1    
   198  100  102 1    
   199  100  221 1    
   200  101  222 1    
   201  101  223 1    
   202  101  224 1    
   203  102  103 2    
   204  102  104 am   BACKBONE|DICT|INTERRES
   205  104  105 1    
   206  104  225 1    
   207  105  106 1    
   208  105  107 1    
   209  105  226 1    
   210  106  227 1    
   211  106  228 1    
   212  106  229 1    
   213  107  108 2    
   214  107  109 am   BACKBONE|DICT|INTERRES
   215  109  110 1    
   216  109  230 1    
   217  110  111 1    
   218  110  112 1    
   219  110  231 1    
   220  111  232 1    
   221  111  233 1    
   222  111  234 1    
   223  112  113 2    
   224  112  114 am   BACKBONE|DICT|INTERRES
   225  114  115 1    
   226  114  235 1    
   227  115  116 1    
   228  115  117 1    
   229  115  236 1    
   230  116  237 1    
   231  116  238 1    
   232  116  239 1    
   233  117  118 2    
   234  117  119 am   BACKBONE|DICT|INTERRES
   235  119  120 1    
   236  119  240 1    
   237  120  121 1    
   238  120  124 1    
   239  120  241 1    
   240  121  122 am   BACKBONE|DICT|INTERRES
   241  121  123 2    
   242  122  242 1    
   243  122  243 1    
   244  124  125 1    
   245  124  244 1    
   246  124  245 1    
   247  125  126 1    
   248  126  246 1    
   249  126  247 1    
@<TRIPOS>SUBSTRUCTURE
     1 UNK         1 GROUP             0       ****    0 ROOT    
