@<TRIPOS>MOLECULE
3R540
247   249    1
SMALL
USER_CHARGES


@<TRIPOS>ATOM
      1 CA          2.8777  -12.8869  -52.9335 C.3       0 UNK        -0.1800 
      2 C           1.9577  -12.7390  -51.7302 C.2       0 UNK         0.5000 
      3 O           1.2237  -11.7552  -51.6393 O.2       0 UNK        -0.5000 
      4 N           2.0010  -13.7113  -50.8081 N.am      1 UNK        -0.5000 
      5 CA          1.2229  -13.7573  -49.5615 C.3       1 UNK         0.1400 
      6 C6         -0.3171  -13.8112  -49.8015 C.3       23 UNK        -0.0398 
      7 S7         -1.1472  -15.0452  -48.7423 S.3       23 UNK        -0.2404 
      8 C8         -1.4677  -16.3883  -49.9310 C.3       23 UNK        -0.0205 
      9 C9         -0.1936  -17.0932  -50.3661 C.ar      23 UNK        -0.0193 
     10 C10         0.4761  -16.6981  -51.5271 C.ar      23 UNK        -0.1150 
     11 C11         1.6371  -17.3570  -51.9404 C.ar      23 UNK        -0.0193 
     12 C12         2.1189  -18.4305  -51.1864 C.ar      23 UNK        -0.1150 
     13 C13         1.4563  -18.8370  -50.0239 C.ar      23 UNK        -0.0193 
     14 C14         0.3049  -18.1595  -49.6158 C.ar      23 UNK        -0.1150 
     15 C15         1.9919  -20.0055  -49.2135 C.3       23 UNK        -0.0205 
     16 S16         1.2516  -21.5761  -49.7480 S.3       23 UNK        -0.2404 
     17 C17        -0.2683  -21.6705  -48.7385 C.3       23 UNK        -0.0398 
     18 CA         -0.0999  -22.6976  -47.5908 C.3       11 UNK         0.1400 
     19 N           0.3310  -22.0847  -46.3320 N.am      11 UNK        -0.5000 
     20 C           0.8964  -22.7718  -45.3293 C.2       10 UNK         0.5000 
     21 O           1.1173  -23.9826  -45.3707 O.2       10 UNK        -0.5000 
     22 CA          1.2268  -21.9857  -44.0497 C.3       10 UNK         0.1400 
     23 CB          2.4945  -21.1373  -44.2327 C.3       10 UNK        -0.1800 
     24 N           0.1091  -21.1428  -43.6243 N.am      10 UNK        -0.5000 
     25 C          -1.0587  -21.6250  -43.1752 C.2       9 UNK         0.5000 
     26 O          -1.2781  -22.8249  -43.0090 O.2       9 UNK        -0.5000 
     27 CA         -2.1777  -20.6104  -42.8762 C.3       9 UNK         0.1400 
     28 CB         -2.0611  -20.0979  -41.4334 C.3       9 UNK        -0.1800 
     29 N          -2.2021  -19.4753  -43.8004 N.am      9 UNK        -0.5000 
     30 C          -2.4692  -19.5623  -45.1121 C.2       8 UNK         0.5000 
     31 O          -2.7389  -20.6137  -45.6885 O.2       8 UNK        -0.5000 
     32 CA         -2.3573  -18.2656  -45.9334 C.3       8 UNK         0.1400 
     33 CB         -3.5734  -17.3602  -45.6955 C.3       8 UNK        -0.1800 
     34 N          -1.1296  -17.5267  -45.6484 N.am      8 UNK        -0.5000 
     35 C           0.1067  -18.0230  -45.7923 C.2       7 UNK         0.5000 
     36 O           0.3476  -19.1535  -46.2151 O.2       7 UNK        -0.5000 
     37 CA          1.2618  -17.1284  -45.3198 C.3       7 UNK         0.1400 
     38 CB          1.5830  -16.0428  -46.3602 C.3       7 UNK        -0.1800 
     39 N           0.9649  -16.5296  -44.0163 N.am      7 UNK        -0.5000 
     40 C           0.9232  -17.2273  -42.8704 C.2       6 UNK         0.5000 
     41 O           1.2078  -18.4215  -42.7906 O.2       6 UNK        -0.5000 
     42 CA          0.4381  -16.4890  -41.6102 C.3       6 UNK         0.1400 
     43 CB          1.6047  -15.8104  -40.8803 C.3       6 UNK        -0.1800 
     44 N          -0.6030  -15.5048  -41.9047 N.am      6 UNK        -0.5000 
     45 C          -1.8623  -15.8357  -42.2259 C.2       5 UNK         0.5000 
     46 O          -2.2650  -16.9963  -42.2870 O.2       5 UNK        -0.5000 
     47 CA         -2.8273  -14.6893  -42.5802 C.3       5 UNK         0.1400 
     48 CB         -3.5317  -14.1701  -41.3183 C.3       5 UNK        -0.1800 
     49 N          -2.1850  -13.5699  -43.2688 N.am      5 UNK        -0.5000 
     50 C          -1.5218  -13.6544  -44.4296 C.2       4 UNK         0.5000 
     51 O          -1.3707  -14.7072  -45.0504 O.2       4 UNK        -0.5000 
     52 CA         -0.8908  -12.3613  -44.9787 C.3       4 UNK         0.1400 
     53 CB         -1.3389  -11.0755  -44.2483 C.3       4 UNK        -0.1800 
     54 N           0.5714  -12.4363  -45.0124 N.am      4 UNK        -0.5000 
     55 C           1.4076  -12.6821  -43.9907 C.2       3 UNK         0.5000 
     56 O           1.0243  -12.9550  -42.8519 O.2       3 UNK        -0.5000 
     57 CA          2.9250  -12.6173  -44.2765 C.3       3 UNK         0.1400 
     58 CB          3.6623  -13.8631  -43.7577 C.3       3 UNK        -0.1800 
     59 N           3.2301  -12.4356  -45.6989 N.am      3 UNK        -0.5000 
     60 C           3.3715  -11.2456  -46.2981 C.2       2 UNK         0.5000 
     61 O           3.3074  -10.1685  -45.7047 O.2       2 UNK        -0.5000 
     62 CA          3.5990  -11.2535  -47.8226 C.3       2 UNK         0.1400 
     63 CB          5.1018  -11.2306  -48.1407 C.3       2 UNK        -0.1800 
     64 N           2.9783  -12.3747  -48.5375 N.am      2 UNK        -0.5000 
     65 C           1.6646  -12.6490  -48.5741 C.2       1 UNK         0.5000 
     66 O           0.8355  -12.0547  -47.8849 O.2       1 UNK        -0.5000 
     67 C          -1.3408  -23.5971  -47.4247 C.2       11 UNK         0.5000 
     68 O          -1.4560  -24.5628  -48.1756 O.2       11 UNK        -0.5000 
     69 N          -2.2053  -23.3333  -46.4315 N.am      12 UNK        -0.5000 
     70 CA         -3.3768  -24.1568  -46.0969 C.3       12 UNK         0.1400 
     71 CB         -4.1602  -23.5143  -44.9416 C.3       12 UNK        -0.1800 
     72 C          -3.0354  -25.6184  -45.7424 C.2       12 UNK         0.5000 
     73 O          -3.8554  -26.5083  -45.9702 O.2       12 UNK        -0.5000 
     74 N          -1.8295  -25.8417  -45.2023 N.am      13 UNK        -0.5000 
     75 CA         -1.2883  -27.1677  -44.9100 C.3       13 UNK         0.1400 
     76 CB         -0.1798  -27.0277  -43.8555 C.3       13 UNK        -0.1800 
     77 C          -0.7525  -27.8880  -46.1644 C.2       13 UNK         0.5000 
     78 O          -0.6430  -29.1147  -46.1473 O.2       13 UNK        -0.5000 
     79 N          -0.4153  -27.1293  -47.2164 N.am      14 UNK        -0.5000 
     80 CA          0.1280  -27.6409  -48.4732 C.3       14 UNK         0.1400 
     81 CB          1.1600  -26.6434  -49.0248 C.3       14 UNK        -0.1800 
     82 C          -0.9776  -27.9059  -49.5083 C.2       14 UNK         0.5000 
     83 O          -0.9157  -28.9190  -50.2067 O.2       14 UNK        -0.5000 
     84 N          -1.9656  -27.0068  -49.5933 N.am      15 UNK        -0.5000 
     85 CA         -3.0850  -27.0799  -50.5261 C.3       15 UNK         0.1400 
     86 CB         -2.6795  -26.4483  -51.8697 C.3       15 UNK        -0.1800 
     87 C          -4.3012  -26.3564  -49.9365 C.2       15 UNK         0.5000 
     88 O          -4.1440  -25.3881  -49.1930 O.2       15 UNK        -0.5000 
     89 N          -5.5020  -26.7999  -50.3274 N.am      16 UNK        -0.5000 
     90 CA         -6.7912  -26.2765  -49.8590 C.3       16 UNK         0.1400 
     91 CB         -7.9068  -27.2121  -50.3522 C.3       16 UNK        -0.1800 
     92 C          -7.0910  -24.8164  -50.2647 C.2       16 UNK         0.5000 
     93 O          -8.0358  -24.2298  -49.7355 O.2       16 UNK        -0.5000 
     94 N          -6.2983  -24.2585  -51.1915 N.am      17 UNK        -0.5000 
     95 CA         -6.3894  -22.8786  -51.6683 C.3       17 UNK         0.1400 
     96 CB         -5.4173  -22.6894  -52.8423 C.3       17 UNK        -0.1800 
     97 C          -6.1242  -21.8286  -50.5721 C.2       17 UNK         0.5000 
     98 O          -6.7685  -20.7799  -50.5878 O.2       17 UNK        -0.5000 
     99 N          -5.2050  -22.1332  -49.6405 N.am      18 UNK        -0.5000 
    100 CA        -4.8318  -21.3274  -48.4710 C.3       18 UNK         0.1400 
    101 CB        -5.9421  -21.4160  -47.4016 C.3       18 UNK        -0.1800 
    102 C         -4.4501  -19.8772  -48.8412 C.2       18 UNK         0.5000 
    103 O         -3.3603  -19.6539  -49.3651 O.2       18 UNK        -0.5000 
    104 N         -5.3593  -18.9232  -48.5974 N.am      19 UNK        -0.5000 
    105 CA        -5.2221  -17.5088  -48.9521 C.3       19 UNK         0.1400 
    106 CB        -6.3508  -16.7167  -48.2745 C.3       19 UNK        -0.1800 
    107 C         -5.2166  -17.2380  -50.4710 C.2       19 UNK         0.5000 
    108 O         -4.7140  -16.1963  -50.8908 O.2       19 UNK        -0.5000 
    109 N         -5.7690  -18.1642  -51.2652 N.am      20 UNK        -0.5000 
    110 CA        -5.8216  -18.0945  -52.7264 C.3       20 UNK         0.1400 
    111 CB        -7.1819  -18.6395  -53.1960 C.3       20 UNK        -0.1800 
    112 C         -4.6589  -18.8519  -53.4006 C.2       20 UNK         0.5000 
    113 O         -4.6639  -18.9832  -54.6265 O.2       20 UNK        -0.5000 
    114 N         -3.7001  -19.3641  -52.6136 N.am      21 UNK        -0.5000 
    115 CA        -2.5230  -20.0852  -53.1008 C.3       21 UNK         0.1400 
    116 CB        -1.7705  -20.6872  -51.9072 C.3       21 UNK        -0.1800 
    117 C         -1.5822  -19.2122  -53.9563 C.2       21 UNK         0.5000 
    118 O         -1.6084  -17.9850  -53.8566 O.2       21 UNK        -0.5000 
    119 N         -0.7880  -19.8927  -54.7911 N.am      22 UNK        -0.5000 
    120 CA         0.1902  -19.3610  -55.7575 C.3       22 UNK         0.1400 
    121 C         -0.3864  -18.5468  -56.9586 C.2       22 UNK         0.5000 
    122 N         -1.6966  -18.3757  -57.0868 N.am      22 UNK        -0.7600 
    123 O          0.3662  -18.1097  -57.8254 O.2       22 UNK        -0.5000 
    124 C124        1.4574  -18.7416  -55.0911 C.3       23 UNK        -0.0398 
    125 S125        1.3935  -16.9572  -54.6941 S.3       23 UNK        -0.2404 
    126 C126        2.3918  -16.8802  -53.1741 C.3       23 UNK        -0.0205 
    127 H127        2.3087  -13.2187  -53.8021 H         1 UNK         0.0600 
    128 H128        3.6736  -13.6079  -52.7466 H         1 UNK         0.0600 
    129 H129        3.3423  -11.9305  -53.1732 H         1 UNK         0.0600 
    130 H130        2.6228  -14.4940  -50.9526 H         1 UNK         0.3000 
    131 H131        1.5269  -14.6951  -49.0952 H         1 UNK         0.0600 
    132 H132       -0.7921  -12.8404  -49.6524 H         1 UNK         0.0800 
    133 H133       -0.5357  -14.0554  -50.8404 H         1 UNK         0.0800 
    134 H134       -2.1340  -17.1152  -49.4672 H         1 UNK         0.0800 
    135 H135       -2.0014  -15.9981  -50.7988 H         1 UNK         0.0800 
    136 H136        0.0931  -15.8793  -52.1189 H         1 UNK         0.1150 
    137 H137        3.0143  -18.9489  -51.4995 H         1 UNK         0.1150 
    138 H138       -0.2153  -18.4662  -48.7210 H         1 UNK         0.1150 
    139 H139        3.0735  -20.0725  -49.3384 H         1 UNK         0.0800 
    140 H140        1.8256  -19.8523  -48.1483 H         1 UNK         0.0800 
    141 H141       -1.0684  -21.9615  -49.4207 H         1 UNK         0.0800 
    142 H142       -0.5559  -20.6906  -48.3580 H         1 UNK         0.0800 
    143 H143        0.6905  -23.3946  -47.8800 H         1 UNK         0.0600 
    144 H144        0.1987  -21.0811  -46.2329 H         1 UNK         0.3000 
    145 H145        1.4230  -22.7104  -43.2566 H         1 UNK         0.0600 
    146 H146        2.7767  -20.6466  -43.3012 H         1 UNK         0.0600 
    147 H147        2.3634  -20.3654  -44.9905 H         1 UNK         0.0600 
    148 H148        3.3370  -21.7579  -44.5402 H         1 UNK         0.0600 
    149 H149        0.2398  -20.1405  -43.6923 H         1 UNK         0.3000 
    150 H150       -3.1304  -21.1351  -42.9728 H         1 UNK         0.0600 
    151 H151       -2.0489  -20.9254  -40.7229 H         1 UNK         0.0600 
    152 H152       -2.9053  -19.4595  -41.1726 H         1 UNK         0.0600 
    153 H153       -1.1466  -19.5226  -41.2852 H         1 UNK         0.0600 
    154 H154       -2.0342  -18.5599  -43.3921 H         1 UNK         0.3000 
    155 H155       -2.3345  -18.5388  -46.9900 H         1 UNK         0.0600 
    156 H156       -4.4983  -17.8825  -45.9403 H         1 UNK         0.0600 
    157 H157       -3.5250  -16.4628  -46.3126 H         1 UNK         0.0600 
    158 H158       -3.6441  -17.0455  -44.6552 H         1 UNK         0.0600 
    159 H159       -1.2346  -16.5652  -45.3330 H         1 UNK         0.3000 
    160 H160        2.1455  -17.7618  -45.2168 H         1 UNK         0.0600 
    161 H161        0.8082  -15.2784  -46.4075 H         1 UNK         0.0600 
    162 H162        1.6738  -16.4775  -47.3567 H         1 UNK         0.0600 
    163 H163        2.5289  -15.5507  -46.1431 H         1 UNK         0.0600 
    164 H164        0.6329  -15.5757  -44.0138 H         1 UNK         0.3000 
    165 H165        0.0188  -17.2379  -40.9347 H         1 UNK         0.0600 
    166 H166        1.2765  -15.3697  -39.9389 H         1 UNK         0.0600 
    167 H167        2.3916  -16.5288  -40.6471 H         1 UNK         0.0600 
    168 H168        2.0490  -15.0197  -41.4812 H         1 UNK         0.0600 
    169 H169       -0.3238  -14.5313  -41.9298 H         1 UNK         0.3000 
    170 H170       -3.5870  -15.0936  -43.2513 H         1 UNK         0.0600 
    171 H171       -2.8257  -13.7188  -40.6200 H         1 UNK         0.0600 
    172 H172       -4.2852  -13.4222  -41.5658 H         1 UNK         0.0600 
    173 H173       -4.0401  -14.9803  -40.7938 H         1 UNK         0.0600 
    174 H174       -2.2342  -12.6710  -42.8120 H         1 UNK         0.3000 
    175 H175       -1.2207  -12.2843  -46.0157 H         1 UNK         0.0600 
    176 H176       -1.0122  -11.0543  -43.2080 H         1 UNK         0.0600 
    177 H177       -0.9275  -10.1922  -44.7372 H         1 UNK         0.0600 
    178 H178       -2.4244  -10.9699  -44.2631 H         1 UNK         0.0600 
    179 H179        0.9698  -12.2599  -45.9290 H         1 UNK         0.3000 
    180 H180        3.3105  -11.7622  -43.7174 H         1 UNK         0.0600 
    181 H181        4.7090  -13.8603  -44.0622 H         1 UNK         0.0600 
    182 H182        3.2118  -14.7884  -44.1117 H         1 UNK         0.0600 
    183 H183        3.6515  -13.8890  -42.6684 H         1 UNK         0.0600 
    184 H184        3.2959  -13.2688  -46.2643 H         1 UNK         0.3000 
    185 H185        3.1561  -10.3364  -48.2165 H         1 UNK         0.0600 
    186 H186        5.2777  -11.1234  -49.2113 H         1 UNK         0.0600 
    187 H187        5.5939  -10.3913  -47.6473 H         1 UNK         0.0600 
    188 H188        5.5971  -12.1435  -47.8075 H         1 UNK         0.0600 
    189 H189        3.5882  -12.9076  -49.1402 H         1 UNK         0.3000 
    190 H190       -2.0948  -22.4728  -45.9045 H         1 UNK         0.3000 
    191 H191       -4.0269  -24.1684  -46.9714 H         1 UNK         0.0600 
    192 H192       -4.4463  -22.4891  -45.1671 H         1 UNK         0.0600 
    193 H193       -3.5831  -23.5062  -44.0181 H         1 UNK         0.0600 
    194 H194       -5.0795  -24.0668  -44.7439 H         1 UNK         0.0600 
    195 H195       -1.2190  -25.0526  -45.0357 H         1 UNK         0.3000 
    196 H196       -2.0822  -27.7864  -44.4862 H         1 UNK         0.0600 
    197 H197       -0.5542  -26.5509  -42.9494 H         1 UNK         0.0600 
    198 H198        0.6559  -26.4333  -44.2265 H         1 UNK         0.0600 
    199 H199        0.2138  -28.0043  -43.5706 H         1 UNK         0.0600 
    200 H200       -0.6098  -26.1360  -47.1860 H         1 UNK         0.3000 
    201 H201        0.6478  -28.5837  -48.2896 H         1 UNK         0.0600 
    202 H202        1.9579  -26.4630  -48.3043 H         1 UNK         0.0600 
    203 H203        0.7086  -25.6820  -49.2712 H         1 UNK         0.0600 
    204 H204        1.6233  -27.0278  -49.9342 H         1 UNK         0.0600 
    205 H205       -1.9576  -26.1818  -48.9947 H         1 UNK         0.3000 
    206 H206       -3.3568  -28.1258  -50.6840 H         1 UNK         0.0600 
    207 H207       -2.3894  -25.4036  -51.7484 H         1 UNK         0.0600 
    208 H208       -1.8390  -26.9780  -52.3182 H         1 UNK         0.0600 
    209 H209       -3.5016  -26.4819  -52.5856 H         1 UNK         0.0600 
    210 H210       -5.5481  -27.5810  -50.9661 H         1 UNK         0.3000 
    211 H211       -6.7814  -26.3046  -48.7673 H         1 UNK         0.0600 
    212 H212       -7.9537  -27.2413  -51.4415 H         1 UNK         0.0600 
    213 H213       -8.8828  -26.8854  -49.9906 H         1 UNK         0.0600 
    214 H214       -7.7560  -28.2306  -49.9939 H         1 UNK         0.0600 
    215 H215       -5.5528  -24.8219  -51.5709 H         1 UNK         0.3000 
    216 H216       -7.4053  -22.7216  -52.0368 H         1 UNK         0.0600 
    217 H217       -5.5123  -21.6908  -53.2681 H         1 UNK         0.0600 
    218 H218       -5.6212  -23.3998  -53.6435 H         1 UNK         0.0600 
    219 H219       -4.3795  -22.8197  -52.5329 H         1 UNK         0.0600 
    220 H220       -4.7399  -23.0287  -49.7168 H         1 UNK         0.3000 
    221 H221       -3.9317  -21.7790  -48.0538 H         1 UNK         0.0600 
    222 H222       -6.9020  -21.0508  -47.7680 H         1 UNK         0.0600 
    223 H223       -6.0899  -22.4481  -47.0839 H         1 UNK         0.0600 
    224 H224       -5.6799  -20.8386  -46.5139 H         1 UNK         0.0600 
    225 H225       -6.2470  -19.2036  -48.2068 H         1 UNK         0.3000 
    226 H226       -4.2712  -17.1526  -48.5545 H         1 UNK         0.0600 
    227 H227       -6.3299  -16.8385  -47.1917 H         1 UNK         0.0600 
    228 H228       -6.2567  -15.6497  -48.4806 H         1 UNK         0.0600 
    229 H229       -7.3323  -17.0341  -48.6292 H         1 UNK         0.0600 
    230 H230       -6.1528  -19.0096  -50.8485 H         1 UNK         0.3000 
    231 H231       -5.7530  -17.0537  -53.0490 H         1 UNK         0.0600 
    232 H232       -7.3074  -18.5078  -54.2713 H         1 UNK         0.0600 
    233 H233       -8.0058  -18.1174  -52.7093 H         1 UNK         0.0600 
    234 H234       -7.2870  -19.7036  -52.9836 H         1 UNK         0.0600 
    235 H235       -3.7433  -19.1966  -51.6172 H         1 UNK         0.3000 
    236 H236       -2.8818  -20.9058  -53.7256 H         1 UNK         0.0600 
    237 H237       -1.4015  -19.9110  -51.2361 H         1 UNK         0.0600 
    238 H238       -2.4153  -21.3528  -51.3335 H         1 UNK         0.0600 
    239 H239       -0.9091  -21.2715  -52.2325 H         1 UNK         0.0600 
    240 H240       -0.8712  -20.8992  -54.7995 H         1 UNK         0.3000 
    241 H241        0.5461  -20.2705  -56.2430 H         1 UNK         0.0600 
    242 H242       -2.3287  -18.7022  -56.3721 H         1 UNK         0.3800 
    243 H243       -2.0549  -17.8649  -57.8782 H         1 UNK         0.3800 
    244 H244        2.3094  -18.8789  -55.7584 H         1 UNK         0.0800 
    245 H245        1.7061  -19.3029  -54.1895 H         1 UNK         0.0800 
    246 H246        3.3123  -17.4481  -53.3180 H         1 UNK         0.0800 
    247 H247        2.6957  -15.8465  -53.0155 H         1 UNK         0.0800 
@<TRIPOS>BOND
     1    1    2 1    
     2    1  127 1    
     3    1  128 1    
     4    1  129 1    
     5    2    3 2    
     6    2    4 am   BACKBONE|DICT|INTERRES
     7    4    5 1    
     8    4  130 1    
     9    5    6 1    
    10    5   65 1    
    11    5  131 1    
    12    6    7 1    
    13    6  132 1    
    14    6  133 1    
    15    7    8 1    
    16    8    9 1    
    17    8  134 1    
    18    8  135 1    
    19    9   10 ar   
    20    9   14 ar   
    21   10   11 ar   
    22   10  136 1    
    23   11   12 ar   
    24   11  126 1    
    25   12   13 ar   
    26   12  137 1    
    27   13   14 ar   
    28   13   15 1    
    29   14  138 1    
    30   15   16 1    
    31   15  139 1    
    32   15  140 1    
    33   16   17 1    
    34   17   18 1    
    35   17  141 1    
    36   17  142 1    
    37   18   19 1    
    38   18   67 1    
    39   18  143 1    
    40   19   20 am   BACKBONE|DICT|INTERRES
    41   19  144 1    
    42   20   21 2    
    43   20   22 1    
    44   22   23 1    
    45   22   24 1    
    46   22  145 1    
    47   23  146 1    
    48   23  147 1    
    49   23  148 1    
    50   24   25 am   BACKBONE|DICT|INTERRES
    51   24  149 1    
    52   25   26 2    
    53   25   27 1    
    54   27   28 1    
    55   27   29 1    
    56   27  150 1    
    57   28  151 1    
    58   28  152 1    
    59   28  153 1    
    60   29   30 am   BACKBONE|DICT|INTERRES
    61   29  154 1    
    62   30   31 2    
    63   30   32 1    
    64   32   33 1    
    65   32   34 1    
    66   32  155 1    
    67   33  156 1    
    68   33  157 1    
    69   33  158 1    
    70   34   35 am   BACKBONE|DICT|INTERRES
    71   34  159 1    
    72   35   36 2    
    73   35   37 1    
    74   37   38 1    
    75   37   39 1    
    76   37  160 1    
    77   38  161 1    
    78   38  162 1    
    79   38  163 1    
    80   39   40 am   BACKBONE|DICT|INTERRES
    81   39  164 1    
    82   40   41 2    
    83   40   42 1    
    84   42   43 1    
    85   42   44 1    
    86   42  165 1    
    87   43  166 1    
    88   43  167 1    
    89   43  168 1    
    90   44   45 am   BACKBONE|DICT|INTERRES
    91   44  169 1    
    92   45   46 2    
    93   45   47 1    
    94   47   48 1    
    95   47   49 1    
    96   47  170 1    
    97   48  171 1    
    98   48  172 1    
    99   48  173 1    
   100   49   50 am   BACKBONE|DICT|INTERRES
   101   49  174 1    
   102   50   51 2    
   103   50   52 1    
   104   52   53 1    
   105   52   54 1    
   106   52  175 1    
   107   53  176 1    
   108   53  177 1    
   109   53  178 1    
   110   54   55 am   BACKBONE|DICT|INTERRES
   111   54  179 1    
   112   55   56 2    
   113   55   57 1    
   114   57   58 1    
   115   57   59 1    
   116   57  180 1    
   117   58  181 1    
   118   58  182 1    
   119   58  183 1    
   120   59   60 am   BACKBONE|DICT|INTERRES
   121   59  184 1    
   122   60   61 2    
   123   60   62 1    
   124   62   63 1    
   125   62   64 1    
   126   62  185 1    
   127   63  186 1    
   128   63  187 1    
   129   63  188 1    
   130   64   65 am   BACKBONE|DICT|INTERRES
   131   64  189 1    
   132   65   66 2    
   133   67   68 2    
   134   67   69 am   BACKBONE|DICT|INTERRES
   135   69   70 1    
   136   69  190 1    
   137   70   71 1    
   138   70   72 1    
   139   70  191 1    
   140   71  192 1    
   141   71  193 1    
   142   71  194 1    
   143   72   73 2    
   144   72   74 am   BACKBONE|DICT|INTERRES
   145   74   75 1    
   146   74  195 1    
   147   75   76 1    
   148   75   77 1    
   149   75  196 1    
   150   76  197 1    
   151   76  198 1    
   152   76  199 1    
   153   77   78 2    
   154   77   79 am   BACKBONE|DICT|INTERRES
   155   79   80 1    
   156   79  200 1    
   157   80   81 1    
   158   80   82 1    
   159   80  201 1    
   160   81  202 1    
   161   81  203 1    
   162   81  204 1    
   163   82   83 2    
   164   82   84 am   BACKBONE|DICT|INTERRES
   165   84   85 1    
   166   84  205 1    
   167   85   86 1    
   168   85   87 1    
   169   85  206 1    
   170   86  207 1    
   171   86  208 1    
   172   86  209 1    
   173   87   88 2    
   174   87   89 am   BACKBONE|DICT|INTERRES
   175   89   90 1    
   176   89  210 1    
   177   90   91 1    
   178   90   92 1    
   179   90  211 1    
   180   91  212 1    
   181   91  213 1    
   182   91  214 1    
   183   92   93 2    
   184   92   94 am   BACKBONE|DICT|INTERRES
   185   94   95 1    
   186   94  215 1    
   187   95   96 1    
   188   95   97 1    
   189   95  216 1    
   190   96  217 1    
   191   96  218 1    
   192   96  219 1    
   193   97   98 2    
   194   97   99 am   BACKBONE|DICT|INTERRES
   195   99  100 1    
   196   99  220 1    
   197  100  101 1    
   198  100  102 1    
   199  100  221 1    
   200  101  222 1    
   201  101  223 1    
   202  101  224 1    
   203  102  103 2    
   204  102  104 am   BACKBONE|DICT|INTERRES
   205  104  105 1    
   206  104  225 1    
   207  105  106 1    
   208  105  107 1    
   209  105  226 1    
   210  106  227 1    
   211  106  228 1    
   212  106  229 1    
   213  107  108 2    
   214  107  109 am   BACKBONE|DICT|INTERRES
   215  109  110 1    
   216  109  230 1    
   217  110  111 1    
   218  110  112 1    
   219  110  231 1    
   220  111  232 1    
   221  111  233 1    
   222  111  234 1    
   223  112  113 2    
   224  112  114 am   BACKBONE|DICT|INTERRES
   225  114  115 1    
   226  114  235 1    
   227  115  116 1    
   228  115  117 1    
   229  115  236 1    
   230  116  237 1    
   231  116  238 1    
   232  116  239 1    
   233  117  118 2    
   234  117  119 am   BACKBONE|DICT|INTERRES
   235  119  120 1    
   236  119  240 1    
   237  120  121 1    
   238  120  124 1    
   239  120  241 1    
   240  121  122 am   BACKBONE|DICT|INTERRES
   241  121  123 2    
   242  122  242 1    
   243  122  243 1    
   244  124  125 1    
   245  124  244 1    
   246  124  245 1    
   247  125  126 1    
   248  126  246 1    
   249  126  247 1    
@<TRIPOS>SUBSTRUCTURE
     1 UNK         1 GROUP             0       ****    0 ROOT    
