@<TRIPOS>MOLECULE
3R540
247   249    1
SMALL
USER_CHARGES


@<TRIPOS>ATOM
      1 CA          3.0403  -12.8821  -46.7641 C.3       0 UNK        -0.1800 
      2 C           1.7128  -13.5708  -46.4862 C.2       0 UNK         0.5000 
      3 O           1.2285  -13.5400  -45.3573 O.2       0 UNK        -0.5000 
      4 N           1.1077  -14.1685  -47.5192 N.am      1 UNK        -0.5000 
      5 CA         -0.1625  -14.9065  -47.4642 C.3       1 UNK         0.1400 
      6 C6         -0.4000  -15.7376  -48.7514 C.3       23 UNK        -0.0398 
      7 S7         -0.3334  -14.7743  -50.3058 S.3       23 UNK        -0.2404 
      8 C8          1.3709  -15.0673  -50.8860 C.3       23 UNK        -0.0205 
      9 C9          1.5933  -16.4972  -51.3557 C.ar      23 UNK        -0.0193 
     10 C10         1.1746  -16.8898  -52.6292 C.ar      23 UNK        -0.1150 
     11 C11         1.3958  -18.1943  -53.0802 C.ar      23 UNK        -0.0193 
     12 C12         2.0382  -19.1126  -52.2448 C.ar      23 UNK        -0.1150 
     13 C13         2.4657  -18.7298  -50.9695 C.ar      23 UNK        -0.0193 
     14 C14         2.2458  -17.4204  -50.5334 C.ar      23 UNK        -0.1150 
     15 C15         3.1830  -19.7195  -50.0645 C.3       23 UNK        -0.0205 
     16 S16         2.0659  -20.4220  -48.8135 S.3       23 UNK        -0.2404 
     17 C17         1.0702  -21.5596  -49.8422 C.3       23 UNK        -0.0398 
     18 CA         -0.0453  -22.2964  -49.0637 C.3       11 UNK         0.1400 
     19 N           0.4769  -22.9944  -47.8848 N.am      11 UNK        -0.5000 
     20 C          -0.2263  -23.7810  -47.0608 C.2       10 UNK         0.5000 
     21 O          -1.4125  -24.0662  -47.2299 O.2       10 UNK        -0.5000 
     22 CA          0.4942  -24.2779  -45.7928 C.3       10 UNK         0.1400 
     23 CB          1.1410  -25.6457  -46.0515 C.3       10 UNK        -0.1800 
     24 N           1.5013  -23.3638  -45.2324 N.am      10 UNK        -0.5000 
     25 C           1.3204  -22.0667  -44.9452 C.2       9 UNK         0.5000 
     26 O           0.3048  -21.4352  -45.2359 O.2       9 UNK        -0.5000 
     27 CA          2.4241  -21.3708  -44.1412 C.3       9 UNK         0.1400 
     28 CB          2.6921  -19.9472  -44.6577 C.3       9 UNK        -0.1800 
     29 N           1.9724  -21.3089  -42.7546 N.am      9 UNK        -0.5000 
     30 C           2.1981  -22.2655  -41.8435 C.2       8 UNK         0.5000 
     31 O           2.9092  -23.2469  -42.0673 O.2       8 UNK        -0.5000 
     32 CA          1.4880  -22.1517  -40.4750 C.3       8 UNK         0.1400 
     33 CB          2.4175  -22.5216  -39.3000 C.3       8 UNK        -0.1800 
     34 N           0.8122  -20.8707  -40.2337 N.am      8 UNK        -0.5000 
     35 C           1.3713  -19.6634  -40.0731 C.2       7 UNK         0.5000 
     36 O           2.5843  -19.4466  -40.0851 O.2       7 UNK        -0.5000 
     37 CA          0.3861  -18.4915  -39.9024 C.3       7 UNK         0.1400 
     38 CB          0.6579  -17.7238  -38.5995 C.3       7 UNK        -0.1800 
     39 N           0.4370  -17.5635  -41.0318 N.am      7 UNK        -0.5000 
     40 C           0.2073  -17.8870  -42.3147 C.2       6 UNK         0.5000 
     41 O          -0.0992  -19.0203  -42.6856 O.2       6 UNK        -0.5000 
     42 CA          0.3183  -16.7622  -43.3639 C.3       6 UNK         0.1400 
     43 CB         -1.0824  -16.2197  -43.6790 C.3       6 UNK        -0.1800 
     44 N           1.1672  -15.6473  -42.9451 N.am      6 UNK        -0.5000 
     45 C           2.4830  -15.7203  -42.6931 C.2       5 UNK         0.5000 
     46 O           3.1589  -16.7262  -42.9087 O.2       5 UNK        -0.5000 
     47 CA          3.1610  -14.4839  -42.0604 C.3       5 UNK         0.1400 
     48 CB          4.0948  -13.7919  -43.0650 C.3       5 UNK        -0.1800 
     49 N           2.2282  -13.4881  -41.5273 N.am      5 UNK        -0.5000 
     50 C           1.3592  -13.6763  -40.5233 C.2       4 UNK         0.5000 
     51 O           1.2890  -14.7178  -39.8711 O.2       4 UNK        -0.5000 
     52 CA          0.3662  -12.5294  -40.2375 C.3       4 UNK         0.1400 
     53 CB          0.8277  -11.7109  -39.0223 C.3       4 UNK        -0.1800 
     54 N           0.1601  -11.6228  -41.3747 N.am      4 UNK        -0.5000 
     55 C          -0.3542  -11.9785  -42.5610 C.2       3 UNK         0.5000 
     56 O          -0.7505  -13.1193  -42.8078 O.2       3 UNK        -0.5000 
     57 CA         -0.3960  -10.8838  -43.6424 C.3       3 UNK         0.1400 
     58 CB          1.0028  -10.2855  -43.8864 C.3       3 UNK        -0.1800 
     59 N          -0.8749  -11.4359  -44.9078 N.am      3 UNK        -0.5000 
     60 C          -1.9774  -11.0512  -45.5633 C.2       2 UNK         0.5000 
     61 O          -2.7478  -10.1865  -45.1424 O.2       2 UNK        -0.5000 
     62 CA         -2.2675  -11.7069  -46.9312 C.3       2 UNK         0.1400 
     63 CB         -2.3120  -10.6448  -48.0430 C.3       2 UNK        -0.1800 
     64 N          -1.2671  -12.7093  -47.2998 N.am      2 UNK        -0.5000 
     65 C          -1.3868  -14.0293  -47.1094 C.2       1 UNK         0.5000 
     66 O          -2.4005  -14.5635  -46.6591 O.2       1 UNK        -0.5000 
     67 C          -1.2315  -21.3527  -48.7529 C.2       11 UNK         0.5000 
     68 O          -2.1182  -21.2039  -49.5940 O.2       11 UNK        -0.5000 
     69 N          -1.2391  -20.7617  -47.5522 N.am      12 UNK        -0.5000 
     70 CA         -2.2777  -19.8637  -47.0592 C.3       12 UNK         0.1400 
     71 CB         -1.6050  -18.5905  -46.5253 C.3       12 UNK        -0.1800 
     72 C          -3.1083  -20.5325  -45.9516 C.2       12 UNK         0.5000 
     73 O          -4.3267  -20.3659  -45.9260 O.2       12 UNK        -0.5000 
     74 N          -2.4427  -21.2727  -45.0557 N.am      13 UNK        -0.5000 
     75 CA         -3.0375  -21.8765  -43.8645 C.3       13 UNK         0.1400 
     76 CB         -1.9179  -22.2808  -42.8914 C.3       13 UNK        -0.1800 
     77 C          -3.9496  -23.0800  -44.1597 C.2       13 UNK         0.5000 
     78 O          -4.9013  -23.2987  -43.4087 O.2       13 UNK        -0.5000 
     79 N          -3.6443  -23.8417  -45.2191 N.am      14 UNK        -0.5000 
     80 CA         -4.3759  -25.0513  -45.5977 C.3       14 UNK         0.1400 
     81 CB         -3.4526  -26.2745  -45.4642 C.3       14 UNK        -0.1800 
     82 C          -4.9408  -24.9364  -47.0195 C.2       14 UNK         0.5000 
     83 O          -6.1317  -25.1781  -47.2188 O.2       14 UNK        -0.5000 
     84 N          -4.0853  -24.5715  -47.9836 N.am      15 UNK        -0.5000 
     85 CA         -4.4358  -24.4957  -49.4037 C.3       15 UNK         0.1400 
     86 CB         -3.1523  -24.6127  -50.2351 C.3       15 UNK        -0.1800 
     87 C          -5.2194  -23.2246  -49.7846 C.2       15 UNK         0.5000 
     88 O          -5.8640  -23.2125  -50.8360 O.2       15 UNK        -0.5000 
     89 N          -5.1434  -22.1901  -48.9315 N.am      16 UNK        -0.5000 
     90 CA         -5.8563  -20.9086  -49.0104 C.3       16 UNK         0.1400 
     91 CB         -7.3436  -21.1206  -48.6615 C.3       16 UNK        -0.1800 
     92 C          -5.6594  -20.1627  -50.3470 C.2       16 UNK         0.5000 
     93 O          -6.6087  -19.5723  -50.8652 O.2       16 UNK        -0.5000 
     94 N          -4.4447  -20.2513  -50.9097 N.am      17 UNK        -0.5000 
     95 CA         -3.9928  -19.7785  -52.2263 C.3       17 UNK         0.1400 
     96 CB         -4.1079  -18.2483  -52.3455 C.3       17 UNK        -0.1800 
     97 C          -4.6569  -20.4847  -53.4296 C.2       17 UNK         0.5000 
     98 O          -3.9913  -20.7099  -54.4403 O.2       17 UNK        -0.5000 
     99 N          -5.9411  -20.8406  -53.3106 N.am      18 UNK        -0.5000 
    100 CA        -6.7613  -21.5050  -54.3203 C.3       18 UNK         0.1400 
    101 CB        -8.1976  -21.6436  -53.7931 C.3       18 UNK        -0.1800 
    102 C         -6.1989  -22.8686  -54.7524 C.2       18 UNK         0.5000 
    103 O         -5.9806  -23.0820  -55.9453 O.2       18 UNK        -0.5000 
    104 N         -5.9222  -23.7492  -53.7798 N.am      19 UNK        -0.5000 
    105 CA        -5.3452  -25.0740  -54.0345 C.3       19 UNK         0.1400 
    106 CB        -5.6989  -26.0258  -52.8830 C.3       19 UNK        -0.1800 
    107 C         -3.8253  -25.0267  -54.2933 C.2       19 UNK         0.5000 
    108 O         -3.2717  -25.9954  -54.8134 O.2       19 UNK        -0.5000 
    109 N         -3.1858  -23.8928  -53.9698 N.am      20 UNK        -0.5000 
    110 CA        -1.8022  -23.5764  -54.3360 C.3       20 UNK         0.1400 
    111 CB        -1.2225  -22.5857  -53.3120 C.3       20 UNK        -0.1800 
    112 C         -1.6889  -23.0221  -55.7748 C.2       20 UNK         0.5000 
    113 O         -0.5719  -22.8144  -56.2498 O.2       20 UNK        -0.5000 
    114 N         -2.8369  -22.8072  -56.4383 N.am      21 UNK        -0.5000 
    115 CA        -3.0154  -22.3073  -57.8024 C.3       21 UNK         0.1400 
    116 CB        -2.4096  -23.2825  -58.8342 C.3       21 UNK        -0.1800 
    117 C         -2.5433  -20.8507  -57.9837 C.2       21 UNK         0.5000 
    118 O         -1.9962  -20.5088  -59.0346 O.2       21 UNK        -0.5000 
    119 N         -2.7800  -20.0119  -56.9682 N.am      22 UNK        -0.5000 
    120 CA        -2.4370  -18.5814  -56.9695 C.3       22 UNK         0.1400 
    121 C         -3.5425  -17.6523  -56.3895 C.2       22 UNK         0.5000 
    122 N         -4.7347  -18.1486  -56.0827 N.am      22 UNK        -0.7600 
    123 O         -3.3333  -16.4500  -56.2523 O.2       22 UNK        -0.5000 
    124 C124       -1.0254  -18.3200  -56.3866 C.3       23 UNK        -0.0398 
    125 S125       -0.8266  -18.7762  -54.6299 S.3       23 UNK        -0.2404 
    126 C126        0.9765  -18.5878  -54.4865 C.3       23 UNK        -0.0205 
    127 H127        3.0421  -11.8808  -46.3334 H         1 UNK         0.0600 
    128 H128        3.8569  -13.4492  -46.3179 H         1 UNK         0.0600 
    129 H129        3.2324  -12.7914  -47.8334 H         1 UNK         0.0600 
    130 H130        1.5381  -14.1269  -48.4305 H         1 UNK         0.3000 
    131 H131       -0.0663  -15.6206  -46.6437 H         1 UNK         0.0600 
    132 H132       -1.3705  -16.2353  -48.7104 H         1 UNK         0.0800 
    133 H133        0.3273  -16.5467  -48.7943 H         1 UNK         0.0800 
    134 H134        2.0840  -14.8088  -50.1032 H         1 UNK         0.0800 
    135 H135        1.5764  -14.3852  -51.7124 H         1 UNK         0.0800 
    136 H136        0.6788  -16.1773  -53.2739 H         1 UNK         0.1150 
    137 H137        2.2150  -20.1213  -52.5909 H         1 UNK         0.1150 
    138 H138        2.5836  -17.1233  -49.5504 H         1 UNK         0.1150 
    139 H139        3.6349  -20.5229  -50.6483 H         1 UNK         0.0800 
    140 H140        4.0057  -19.2145  -49.5562 H         1 UNK         0.0800 
    141 H141        0.6444  -21.0113  -50.6843 H         1 UNK         0.0800 
    142 H142        1.7475  -22.2938  -50.2804 H         1 UNK         0.0800 
    143 H143       -0.4263  -23.0703  -49.7295 H         1 UNK         0.0600 
    144 H144        1.4338  -22.7850  -47.6402 H         1 UNK         0.3000 
    145 H145       -0.2734  -24.4117  -45.0288 H         1 UNK         0.0600 
    146 H146        1.5428  -26.0730  -45.1326 H         1 UNK         0.0600 
    147 H147        0.4122  -26.3558  -46.4453 H         1 UNK         0.0600 
    148 H148        1.9550  -25.5749  -46.7741 H         1 UNK         0.0600 
    149 H149        2.3615  -23.7973  -44.9277 H         1 UNK         0.3000 
    150 H150        3.3524  -21.9403  -44.2205 H         1 UNK         0.0600 
    151 H151        3.0582  -19.9695  -45.6847 H         1 UNK         0.0600 
    152 H152        3.4455  -19.4434  -44.0519 H         1 UNK         0.0600 
    153 H153        1.7930  -19.3317  -44.6471 H         1 UNK         0.0600 
    154 H154        1.3217  -20.5623  -42.5348 H         1 UNK         0.3000 
    155 H155        0.6923  -22.8975  -40.5014 H         1 UNK         0.0600 
    156 H156        1.8952  -22.4520  -38.3458 H         1 UNK         0.0600 
    157 H157        3.2923  -21.8727  -39.2530 H         1 UNK         0.0600 
    158 H158        2.7796  -23.5460  -39.3946 H         1 UNK         0.0600 
    159 H159       -0.1972  -20.9189  -40.2411 H         1 UNK         0.3000 
    160 H160       -0.6303  -18.8871  -39.8508 H         1 UNK         0.0600 
    161 H161        1.6454  -17.2604  -38.6042 H         1 UNK         0.0600 
    162 H162        0.6104  -18.3890  -37.7365 H         1 UNK         0.0600 
    163 H163       -0.0792  -16.9355  -38.4445 H         1 UNK         0.0600 
    164 H164        0.7095  -16.6123  -40.8149 H         1 UNK         0.3000 
    165 H165        0.7421  -17.1868  -44.2755 H         1 UNK         0.0600 
    166 H166       -1.5517  -15.7881  -42.7940 H         1 UNK         0.0600 
    167 H167       -1.0430  -15.4435  -44.4412 H         1 UNK         0.0600 
    168 H168       -1.7407  -17.0084  -44.0425 H         1 UNK         0.0600 
    169 H169        0.6963  -14.7609  -42.8039 H         1 UNK         0.3000 
    170 H170        3.7666  -14.8485  -41.2284 H         1 UNK         0.0600 
    171 H171        4.7933  -14.5015  -43.5103 H         1 UNK         0.0600 
    172 H172        3.5337  -13.3281  -43.8754 H         1 UNK         0.0600 
    173 H173        4.6868  -13.0149  -42.5813 H         1 UNK         0.0600 
    174 H174        2.1969  -12.6046  -42.0131 H         1 UNK         0.3000 
    175 H175       -0.5957  -12.9871  -39.9976 H         1 UNK         0.0600 
    176 H176        1.7769  -11.2085  -39.2126 H         1 UNK         0.0600 
    177 H177        0.0923  -10.9519  -38.7546 H         1 UNK         0.0600 
    178 H178        0.9641  -12.3506  -38.1492 H         1 UNK         0.0600 
    179 H179        0.4568  -10.6670  -41.2397 H         1 UNK         0.3000 
    180 H180       -1.0601  -10.0945  -43.2853 H         1 UNK         0.0600 
    181 H181        1.7295  -11.0547  -44.1509 H         1 UNK         0.0600 
    182 H182        1.3779   -9.7657  -43.0046 H         1 UNK         0.0600 
    183 H183        0.9811   -9.5579  -44.6979 H         1 UNK         0.0600 
    184 H184       -0.3421  -12.2276  -45.2528 H         1 UNK         0.3000 
    185 H185       -3.2545  -12.1691  -46.8658 H         1 UNK         0.0600 
    186 H186       -1.3605  -10.1200  -48.1367 H         1 UNK         0.0600 
    187 H187       -2.5433  -11.0953  -49.0085 H         1 UNK         0.0600 
    188 H188       -3.0813   -9.8976  -47.8435 H         1 UNK         0.0600 
    189 H189       -0.3978  -12.3606  -47.6767 H         1 UNK         0.3000 
    190 H190       -0.4893  -20.9752  -46.9005 H         1 UNK         0.3000 
    191 H191       -2.9533  -19.5781  -47.8681 H         1 UNK         0.0600 
    192 H192       -2.3485  -17.8433  -46.2458 H         1 UNK         0.0600 
    193 H193       -0.9591  -18.1461  -47.2805 H         1 UNK         0.0600 
    194 H194       -0.9892  -18.7962  -45.6483 H         1 UNK         0.0600 
    195 H195       -1.4279  -21.3309  -45.1275 H         1 UNK         0.3000 
    196 H196       -3.6480  -21.1151  -43.3742 H         1 UNK         0.0600 
    197 H197       -2.3303  -22.6834  -41.9654 H         1 UNK         0.0600 
    198 H198       -1.2989  -21.4245  -42.6257 H         1 UNK         0.0600 
    199 H199       -1.2666  -23.0428  -43.3189 H         1 UNK         0.0600 
    200 H200       -2.8535  -23.5896  -45.7993 H         1 UNK         0.3000 
    201 H201       -5.2277  -25.2120  -44.9336 H         1 UNK         0.0600 
    202 H202       -3.1081  -26.3939  -44.4369 H         1 UNK         0.0600 
    203 H203       -2.5725  -26.1972  -46.1027 H         1 UNK         0.0600 
    204 H204       -3.9772  -27.1903  -45.7393 H         1 UNK         0.0600 
    205 H205       -3.1080  -24.4109  -47.7465 H         1 UNK         0.3000 
    206 H206       -5.0711  -25.3507  -49.6427 H         1 UNK         0.0600 
    207 H207       -2.6191  -25.5382  -50.0171 H         1 UNK         0.0600 
    208 H208       -3.3648  -24.6012  -51.3019 H         1 UNK         0.0600 
    209 H209       -2.4820  -23.7830  -50.0352 H         1 UNK         0.0600 
    210 H210       -4.5641  -22.3152  -48.1147 H         1 UNK         0.3000 
    211 H211       -5.4284  -20.2601  -48.2477 H         1 UNK         0.0600 
    212 H212       -7.8504  -21.7274  -49.4128 H         1 UNK         0.0600 
    213 H213       -7.8726  -20.1693  -48.5943 H         1 UNK         0.0600 
    214 H214       -7.4535  -21.6192  -47.6983 H         1 UNK         0.0600 
    215 H215       -3.7280  -20.7537  -50.3882 H         1 UNK         0.3000 
    216 H216       -2.9310  -20.0217  -52.2686 H         1 UNK         0.0600 
    217 H217       -5.1455  -17.9144  -52.3544 H         1 UNK         0.0600 
    218 H218       -3.6460  -17.8977  -53.2690 H         1 UNK         0.0600 
    219 H219       -3.5988  -17.7496  -51.5207 H         1 UNK         0.0600 
    220 H220       -6.4064  -20.5782  -52.4467 H         1 UNK         0.3000 
    221 H221       -6.7831  -20.8613  -55.2018 H         1 UNK         0.0600 
    222 H222       -8.2346  -22.2258  -52.8712 H         1 UNK         0.0600 
    223 H223       -8.6361  -20.6669  -53.5873 H         1 UNK         0.0600 
    224 H224       -8.8376  -22.1401  -54.5236 H         1 UNK         0.0600 
    225 H225       -6.0812  -23.4930  -52.8086 H         1 UNK         0.3000 
    226 H226       -5.8033  -25.4819  -54.9383 H         1 UNK         0.0600 
    227 H227       -6.7790  -26.1209  -52.7708 H         1 UNK         0.0600 
    228 H228       -5.3020  -27.0253  -53.0646 H         1 UNK         0.0600 
    229 H229       -5.2966  -25.6821  -51.9345 H         1 UNK         0.0600 
    230 H230       -3.7270  -23.1397  -53.5708 H         1 UNK         0.3000 
    231 H231       -1.2068  -24.4905  -54.2903 H         1 UNK         0.0600 
    232 H232       -1.6929  -21.6073  -53.3893 H         1 UNK         0.0600 
    233 H233       -1.3497  -22.9434  -52.2903 H         1 UNK         0.0600 
    234 H234       -0.1541  -22.4396  -53.4751 H         1 UNK         0.0600 
    235 H235       -3.7002  -22.9768  -55.9393 H         1 UNK         0.3000 
    236 H236       -4.0929  -22.2897  -57.9711 H         1 UNK         0.0600 
    237 H237       -2.7767  -24.2971  -58.6800 H         1 UNK         0.0600 
    238 H238       -2.6793  -22.9926  -59.8504 H         1 UNK         0.0600 
    239 H239       -1.3210  -23.3070  -58.7809 H         1 UNK         0.0600 
    240 H240       -3.1873  -20.3656  -56.1050 H         1 UNK         0.3000 
    241 H241       -2.3944  -18.2575  -58.0109 H         1 UNK         0.0600 
    242 H242       -4.9235  -19.1319  -56.1870 H         1 UNK         0.3800 
    243 H243       -5.4491  -17.5318  -55.7310 H         1 UNK         0.3800 
    244 H244       -0.7574  -17.2688  -56.5039 H         1 UNK         0.0800 
    245 H245       -0.2912  -18.8783  -56.9693 H         1 UNK         0.0800 
    246 H246        1.3282  -17.8209  -55.1783 H         1 UNK         0.0800 
    247 H247        1.4561  -19.5190  -54.7921 H         1 UNK         0.0800 
@<TRIPOS>BOND
     1    1    2 1    
     2    1  127 1    
     3    1  128 1    
     4    1  129 1    
     5    2    3 2    
     6    2    4 am   BACKBONE|DICT|INTERRES
     7    4    5 1    
     8    4  130 1    
     9    5    6 1    
    10    5   65 1    
    11    5  131 1    
    12    6    7 1    
    13    6  132 1    
    14    6  133 1    
    15    7    8 1    
    16    8    9 1    
    17    8  134 1    
    18    8  135 1    
    19    9   10 ar   
    20    9   14 ar   
    21   10   11 ar   
    22   10  136 1    
    23   11   12 ar   
    24   11  126 1    
    25   12   13 ar   
    26   12  137 1    
    27   13   14 ar   
    28   13   15 1    
    29   14  138 1    
    30   15   16 1    
    31   15  139 1    
    32   15  140 1    
    33   16   17 1    
    34   17   18 1    
    35   17  141 1    
    36   17  142 1    
    37   18   19 1    
    38   18   67 1    
    39   18  143 1    
    40   19   20 am   BACKBONE|DICT|INTERRES
    41   19  144 1    
    42   20   21 2    
    43   20   22 1    
    44   22   23 1    
    45   22   24 1    
    46   22  145 1    
    47   23  146 1    
    48   23  147 1    
    49   23  148 1    
    50   24   25 am   BACKBONE|DICT|INTERRES
    51   24  149 1    
    52   25   26 2    
    53   25   27 1    
    54   27   28 1    
    55   27   29 1    
    56   27  150 1    
    57   28  151 1    
    58   28  152 1    
    59   28  153 1    
    60   29   30 am   BACKBONE|DICT|INTERRES
    61   29  154 1    
    62   30   31 2    
    63   30   32 1    
    64   32   33 1    
    65   32   34 1    
    66   32  155 1    
    67   33  156 1    
    68   33  157 1    
    69   33  158 1    
    70   34   35 am   BACKBONE|DICT|INTERRES
    71   34  159 1    
    72   35   36 2    
    73   35   37 1    
    74   37   38 1    
    75   37   39 1    
    76   37  160 1    
    77   38  161 1    
    78   38  162 1    
    79   38  163 1    
    80   39   40 am   BACKBONE|DICT|INTERRES
    81   39  164 1    
    82   40   41 2    
    83   40   42 1    
    84   42   43 1    
    85   42   44 1    
    86   42  165 1    
    87   43  166 1    
    88   43  167 1    
    89   43  168 1    
    90   44   45 am   BACKBONE|DICT|INTERRES
    91   44  169 1    
    92   45   46 2    
    93   45   47 1    
    94   47   48 1    
    95   47   49 1    
    96   47  170 1    
    97   48  171 1    
    98   48  172 1    
    99   48  173 1    
   100   49   50 am   BACKBONE|DICT|INTERRES
   101   49  174 1    
   102   50   51 2    
   103   50   52 1    
   104   52   53 1    
   105   52   54 1    
   106   52  175 1    
   107   53  176 1    
   108   53  177 1    
   109   53  178 1    
   110   54   55 am   BACKBONE|DICT|INTERRES
   111   54  179 1    
   112   55   56 2    
   113   55   57 1    
   114   57   58 1    
   115   57   59 1    
   116   57  180 1    
   117   58  181 1    
   118   58  182 1    
   119   58  183 1    
   120   59   60 am   BACKBONE|DICT|INTERRES
   121   59  184 1    
   122   60   61 2    
   123   60   62 1    
   124   62   63 1    
   125   62   64 1    
   126   62  185 1    
   127   63  186 1    
   128   63  187 1    
   129   63  188 1    
   130   64   65 am   BACKBONE|DICT|INTERRES
   131   64  189 1    
   132   65   66 2    
   133   67   68 2    
   134   67   69 am   BACKBONE|DICT|INTERRES
   135   69   70 1    
   136   69  190 1    
   137   70   71 1    
   138   70   72 1    
   139   70  191 1    
   140   71  192 1    
   141   71  193 1    
   142   71  194 1    
   143   72   73 2    
   144   72   74 am   BACKBONE|DICT|INTERRES
   145   74   75 1    
   146   74  195 1    
   147   75   76 1    
   148   75   77 1    
   149   75  196 1    
   150   76  197 1    
   151   76  198 1    
   152   76  199 1    
   153   77   78 2    
   154   77   79 am   BACKBONE|DICT|INTERRES
   155   79   80 1    
   156   79  200 1    
   157   80   81 1    
   158   80   82 1    
   159   80  201 1    
   160   81  202 1    
   161   81  203 1    
   162   81  204 1    
   163   82   83 2    
   164   82   84 am   BACKBONE|DICT|INTERRES
   165   84   85 1    
   166   84  205 1    
   167   85   86 1    
   168   85   87 1    
   169   85  206 1    
   170   86  207 1    
   171   86  208 1    
   172   86  209 1    
   173   87   88 2    
   174   87   89 am   BACKBONE|DICT|INTERRES
   175   89   90 1    
   176   89  210 1    
   177   90   91 1    
   178   90   92 1    
   179   90  211 1    
   180   91  212 1    
   181   91  213 1    
   182   91  214 1    
   183   92   93 2    
   184   92   94 am   BACKBONE|DICT|INTERRES
   185   94   95 1    
   186   94  215 1    
   187   95   96 1    
   188   95   97 1    
   189   95  216 1    
   190   96  217 1    
   191   96  218 1    
   192   96  219 1    
   193   97   98 2    
   194   97   99 am   BACKBONE|DICT|INTERRES
   195   99  100 1    
   196   99  220 1    
   197  100  101 1    
   198  100  102 1    
   199  100  221 1    
   200  101  222 1    
   201  101  223 1    
   202  101  224 1    
   203  102  103 2    
   204  102  104 am   BACKBONE|DICT|INTERRES
   205  104  105 1    
   206  104  225 1    
   207  105  106 1    
   208  105  107 1    
   209  105  226 1    
   210  106  227 1    
   211  106  228 1    
   212  106  229 1    
   213  107  108 2    
   214  107  109 am   BACKBONE|DICT|INTERRES
   215  109  110 1    
   216  109  230 1    
   217  110  111 1    
   218  110  112 1    
   219  110  231 1    
   220  111  232 1    
   221  111  233 1    
   222  111  234 1    
   223  112  113 2    
   224  112  114 am   BACKBONE|DICT|INTERRES
   225  114  115 1    
   226  114  235 1    
   227  115  116 1    
   228  115  117 1    
   229  115  236 1    
   230  116  237 1    
   231  116  238 1    
   232  116  239 1    
   233  117  118 2    
   234  117  119 am   BACKBONE|DICT|INTERRES
   235  119  120 1    
   236  119  240 1    
   237  120  121 1    
   238  120  124 1    
   239  120  241 1    
   240  121  122 am   BACKBONE|DICT|INTERRES
   241  121  123 2    
   242  122  242 1    
   243  122  243 1    
   244  124  125 1    
   245  124  244 1    
   246  124  245 1    
   247  125  126 1    
   248  126  246 1    
   249  126  247 1    
@<TRIPOS>SUBSTRUCTURE
     1 UNK         1 GROUP             0       ****    0 ROOT    
