@<TRIPOS>MOLECULE
3R540
247   249    1
SMALL
USER_CHARGES


@<TRIPOS>ATOM
      1 CA          5.4220  -14.9966  -45.2203 C.3       0 UNK        -0.1800 
      2 C           5.2482  -13.7514  -46.0787 C.2       0 UNK         0.5000 
      3 O           6.2422  -13.1609  -46.5012 O.2       0 UNK        -0.5000 
      4 N           3.9915  -13.3661  -46.3370 N.am      1 UNK        -0.5000 
      5 CA          3.5641  -12.2231  -47.1556 C.3       1 UNK         0.1400 
      6 C6          3.9608  -12.3432  -48.6575 C.3       23 UNK        -0.0398 
      7 S7          3.3444  -13.7678  -49.6372 S.3       23 UNK        -0.2404 
      8 C8          2.1428  -14.6564  -48.5977 C.3       23 UNK        -0.0205 
      9 C9          1.3974  -15.7018  -49.4113 C.ar      23 UNK        -0.0193 
     10 C10         0.1671  -15.3921  -49.9988 C.ar      23 UNK        -0.1150 
     11 C11        -0.5112  -16.3440  -50.7657 C.ar      23 UNK        -0.0193 
     12 C12         0.0414  -17.6169  -50.9307 C.ar      23 UNK        -0.1150 
     13 C13         1.2635  -17.9433  -50.3362 C.ar      23 UNK        -0.0193 
     14 C14         1.9410  -16.9781  -49.5859 C.ar      23 UNK        -0.1150 
     15 C15         1.8603  -19.3316  -50.5153 C.3       23 UNK        -0.0205 
     16 S16         1.6576  -20.3597  -49.0262 S.3       23 UNK        -0.2404 
     17 C17        -0.1553  -20.5373  -48.9068 C.3       23 UNK        -0.0398 
     18 CA         -0.5745  -22.0029  -48.6479 C.3       11 UNK         0.1400 
     19 N          -0.0669  -22.5058  -47.3668 N.am      11 UNK        -0.5000 
     20 C          -0.1707  -23.7690  -46.9314 C.2       10 UNK         0.5000 
     21 O          -0.8612  -24.6256  -47.4837 O.2       10 UNK        -0.5000 
     22 CA          0.6292  -24.1311  -45.6715 C.3       10 UNK         0.1400 
     23 CB          2.1383  -24.1132  -45.9619 C.3       10 UNK        -0.1800 
     24 N           0.3254  -23.1860  -44.6030 N.am      10 UNK        -0.5000 
     25 C          -0.3702  -23.4791  -43.4970 C.2       9 UNK         0.5000 
     26 O          -0.6871  -24.6239  -43.1740 O.2       9 UNK        -0.5000 
     27 CA         -0.8159  -22.2974  -42.6061 C.3       9 UNK         0.1400 
     28 CB          0.1319  -22.1442  -41.4072 C.3       9 UNK        -0.1800 
     29 N          -0.8986  -21.0126  -43.3065 N.am      9 UNK        -0.5000 
     30 C          -1.6640  -20.7498  -44.3756 C.2       8 UNK         0.5000 
     31 O          -2.4633  -21.5507  -44.8600 O.2       8 UNK        -0.5000 
     32 CA         -1.4428  -19.3981  -45.0817 C.3       8 UNK         0.1400 
     33 CB         -2.4712  -18.3658  -44.6001 C.3       8 UNK        -0.1800 
     34 N          -0.0948  -18.8405  -44.9283 N.am      8 UNK        -0.5000 
     35 C           1.0713  -19.4516  -45.1939 C.2       7 UNK         0.5000 
     36 O           1.1487  -20.6024  -45.6260 O.2       7 UNK        -0.5000 
     37 CA          2.3662  -18.6661  -44.9029 C.3       7 UNK         0.1400 
     38 CB          3.1290  -18.3790  -46.2030 C.3       7 UNK        -0.1800 
     39 N           2.1302  -17.3952  -44.2181 N.am      7 UNK        -0.5000 
     40 C           1.7972  -17.2293  -42.9345 C.2       6 UNK         0.5000 
     41 O           1.6812  -18.1613  -42.1386 O.2       6 UNK        -0.5000 
     42 CA          1.4893  -15.7881  -42.4762 C.3       6 UNK         0.1400 
     43 CB          2.7828  -15.0116  -42.1665 C.3       6 UNK        -0.1800 
     44 N           0.6174  -15.0171  -43.3791 N.am      6 UNK        -0.5000 
     45 C           0.8453  -14.6085  -44.6375 C.2       5 UNK         0.5000 
     46 O           1.8535  -14.8852  -45.2865 O.2       5 UNK        -0.5000 
     47 CA         -0.2209  -13.6968  -45.2687 C.3       5 UNK         0.1400 
     48 CB         -1.3904  -14.5282  -45.8159 C.3       5 UNK        -0.1800 
     49 N          -0.7218  -12.6715  -44.3485 N.am      5 UNK        -0.5000 
     50 C           0.0480  -11.7407  -43.7684 C.2       4 UNK         0.5000 
     51 O           1.2709  -11.6644  -43.9343 O.2       4 UNK        -0.5000 
     52 CA         -0.6609  -10.7405  -42.8409 C.3       4 UNK         0.1400 
     53 CB         -0.9801  -11.3869  -41.4833 C.3       4 UNK        -0.1800 
     54 N           0.2464   -9.6212  -42.6307 N.am      4 UNK        -0.5000 
     55 C          -0.0120   -8.3284  -42.8509 C.2       3 UNK         0.5000 
     56 O          -1.1370   -7.8763  -43.0668 O.2       3 UNK        -0.5000 
     57 CA          1.2113   -7.3857  -42.8602 C.3       3 UNK         0.1400 
     58 CB          1.3615   -6.6827  -41.5024 C.3       3 UNK        -0.1800 
     59 N           2.4627   -8.0861  -43.1778 N.am      3 UNK        -0.5000 
     60 C           2.7611   -8.6107  -44.3759 C.2       2 UNK         0.5000 
     61 O           2.0638   -8.4370  -45.3783 O.2       2 UNK        -0.5000 
     62 CA          4.0226   -9.4946  -44.4690 C.3       2 UNK         0.1400 
     63 CB          4.5743   -9.9411  -43.0993 C.3       2 UNK        -0.1800 
     64 N           3.7108  -10.6918  -45.2472 N.am      2 UNK        -0.5000 
     65 C           4.0377  -10.8883  -46.5301 C.2       1 UNK         0.5000 
     66 O           4.6969  -10.0855  -47.1952 O.2       1 UNK        -0.5000 
     67 C          -2.0937  -22.1827  -48.8275 C.2       11 UNK         0.5000 
     68 O          -2.5219  -22.5416  -49.9259 O.2       11 UNK        -0.5000 
     69 N          -2.8635  -21.9617  -47.7549 N.am      12 UNK        -0.5000 
     70 CA         -4.3186  -22.0643  -47.7556 C.3       12 UNK         0.1400 
     71 CB         -4.9207  -20.7946  -47.1287 C.3       12 UNK        -0.1800 
     72 C          -4.7786  -23.3188  -47.0038 C.2       12 UNK         0.5000 
     73 O          -5.5326  -24.1139  -47.5628 O.2       12 UNK        -0.5000 
     74 N          -4.3150  -23.4848  -45.7575 N.am      13 UNK        -0.5000 
     75 CA         -4.7892  -24.5196  -44.8351 C.3       13 UNK         0.1400 
     76 CB         -4.3276  -24.1847  -43.4110 C.3       13 UNK        -0.1800 
     77 C          -4.3799  -25.9510  -45.2284 C.2       13 UNK         0.5000 
     78 O          -5.1415  -26.8817  -44.9628 O.2       13 UNK        -0.5000 
     79 N          -3.2161  -26.1018  -45.8756 N.am      14 UNK        -0.5000 
     80 CA         -2.7564  -27.3645  -46.4650 C.3       14 UNK         0.1400 
     81 CB         -1.3080  -27.6406  -46.0256 C.3       14 UNK        -0.1800 
     82 C          -2.8854  -27.3522  -48.0021 C.2       14 UNK         0.5000 
     83 O          -2.4845  -28.3236  -48.6443 O.2       14 UNK        -0.5000 
     84 N          -3.4413  -26.2635  -48.5600 N.am      15 UNK        -0.5000 
     85 CA         -3.6852  -26.0035  -49.9817 C.3       15 UNK         0.1400 
     86 CB         -4.7903  -26.9423  -50.5092 C.3       15 UNK        -0.1800 
     87 C          -2.4080  -26.0342  -50.8490 C.2       15 UNK         0.5000 
     88 O          -2.4658  -26.4474  -52.0088 O.2       15 UNK        -0.5000 
     89 N          -1.2688  -25.6081  -50.2801 N.am      16 UNK        -0.5000 
     90 CA          0.0344  -25.6444  -50.9491 C.3       16 UNK         0.1400 
     91 CB          1.1612  -25.4614  -49.9203 C.3       16 UNK        -0.1800 
     92 C           0.1705  -24.6376  -52.1089 C.2       16 UNK         0.5000 
     93 O           0.9853  -24.8726  -53.0022 O.2       16 UNK        -0.5000 
     94 N          -0.6222  -23.5540  -52.0981 N.am      17 UNK        -0.5000 
     95 CA         -0.7190  -22.6186  -53.2209 C.3       17 UNK         0.1400 
     96 CB         -1.2656  -21.2661  -52.7383 C.3       17 UNK        -0.1800 
     97 C          -1.6009  -23.1976  -54.3391 C.2       17 UNK         0.5000 
     98 O          -1.1734  -23.2511  -55.4927 O.2       17 UNK        -0.5000 
     99 N          -2.8027  -23.6406  -53.9568 N.am      18 UNK        -0.5000 
    100 CA        -3.8409  -24.2373  -54.7882 C.3       18 UNK         0.1400 
    101 CB        -4.3526  -23.2266  -55.8376 C.3       18 UNK        -0.1800 
    102 C         -4.9936  -24.6504  -53.8627 C.2       18 UNK         0.5000 
    103 O         -5.0490  -24.2009  -52.7142 O.2       18 UNK        -0.5000 
    104 N         -5.9422  -25.4325  -54.3952 N.am      19 UNK        -0.5000 
    105 CA        -7.2042  -25.7815  -53.7280 C.3       19 UNK         0.1400 
    106 CB        -7.9449  -26.8310  -54.5700 C.3       19 UNK        -0.1800 
    107 C         -8.1104  -24.5594  -53.4638 C.2       19 UNK         0.5000 
    108 O         -8.8934  -24.5717  -52.5142 O.2       19 UNK        -0.5000 
    109 N         -7.9549  -23.5160  -54.2898 N.am      20 UNK        -0.5000 
    110 CA        -8.5869  -22.2047  -54.1419 C.3       20 UNK         0.1400 
    111 CB        -8.7409  -21.5853  -55.5414 C.3       20 UNK        -0.1800 
    112 C         -7.8024  -21.2555  -53.2084 C.2       20 UNK         0.5000 
    113 O         -8.1978  -20.0957  -53.0705 O.2       20 UNK        -0.5000 
    114 N         -6.7005  -21.7344  -52.6066 N.am      21 UNK        -0.5000 
    115 CA        -5.7593  -20.9907  -51.7665 C.3       21 UNK         0.1400 
    116 CB        -6.4283  -20.5898  -50.4317 C.3       21 UNK        -0.1800 
    117 C         -5.1399  -19.8142  -52.5485 C.2       21 UNK         0.5000 
    118 O         -4.5527  -20.0405  -53.6077 O.2       21 UNK        -0.5000 
    119 N         -5.3031  -18.5904  -52.0364 N.am      22 UNK        -0.5000 
    120 CA        -4.9100  -17.3398  -52.7017 C.3       22 UNK         0.1400 
    121 C         -5.9218  -16.8482  -53.7815 C.2       22 UNK         0.5000 
    122 N         -7.0556  -17.5050  -54.0016 N.am      22 UNK        -0.7600 
    123 O         -5.6677  -15.8474  -54.4462 O.2       22 UNK        -0.5000 
    124 C124       -4.5987  -16.2216  -51.6725 C.3       23 UNK        -0.0398 
    125 S125       -3.2474  -16.6729  -50.5305 S.3       23 UNK        -0.2404 
    126 C126       -1.8269  -15.9954  -51.4409 C.3       23 UNK        -0.0205 
    127 H127        6.1522  -15.6673  -45.6730 H         1 UNK         0.0600 
    128 H128        4.4874  -15.5459  -45.1116 H         1 UNK         0.0600 
    129 H129        5.7775  -14.7221  -44.2273 H         1 UNK         0.0600 
    130 H130        3.2318  -13.9091  -45.9312 H         1 UNK         0.3000 
    131 H131        2.4757  -12.1931  -47.1005 H         1 UNK         0.0600 
    132 H132        3.6181  -11.4544  -49.1900 H         1 UNK         0.0800 
    133 H133        5.0472  -12.3341  -48.7570 H         1 UNK         0.0800 
    134 H134        2.6633  -15.1506  -47.7780 H         1 UNK         0.0800 
    135 H135        1.4321  -13.9573  -48.1578 H         1 UNK         0.0800 
    136 H136       -0.2545  -14.4049  -49.8715 H         1 UNK         0.1150 
    137 H137       -0.4844  -18.3512  -51.5244 H         1 UNK         0.1150 
    138 H138        2.8953  -17.2210  -49.1405 H         1 UNK         0.1150 
    139 H139        1.4226  -19.8387  -51.3753 H         1 UNK         0.0800 
    140 H140        2.9254  -19.2383  -50.7320 H         1 UNK         0.0800 
    141 H141       -0.6123  -20.1667  -49.8235 H         1 UNK         0.0800 
    142 H142       -0.5091  -19.8811  -48.1125 H         1 UNK         0.0800 
    143 H143       -0.1100  -22.6079  -49.4262 H         1 UNK         0.0600 
    144 H144        0.5125  -21.8546  -46.8424 H         1 UNK         0.3000 
    145 H145        0.3548  -25.1464  -45.3814 H         1 UNK         0.0600 
    146 H146        2.7074  -24.4325  -45.0888 H         1 UNK         0.0600 
    147 H147        2.4889  -23.1186  -46.2415 H         1 UNK         0.0600 
    148 H148        2.3867  -24.7921  -46.7789 H         1 UNK         0.0600 
    149 H149        0.5521  -22.2143  -44.7919 H         1 UNK         0.3000 
    150 H150       -1.8130  -22.5305  -42.2281 H         1 UNK         0.0600 
    151 H151        0.2004  -23.0738  -40.8405 H         1 UNK         0.0600 
    152 H152       -0.2195  -21.3726  -40.7217 H         1 UNK         0.0600 
    153 H153        1.1407  -21.8773  -41.7249 H         1 UNK         0.0600 
    154 H154       -0.2643  -20.2922  -42.9924 H         1 UNK         0.3000 
    155 H155       -1.6104  -19.5639  -46.1458 H         1 UNK         0.0600 
    156 H156       -3.4878  -18.7498  -44.6962 H         1 UNK         0.0600 
    157 H157       -2.4167  -17.4521  -45.1914 H         1 UNK         0.0600 
    158 H158       -2.3170  -18.1012  -43.5533 H         1 UNK         0.0600 
    159 H159       -0.0430  -17.8984  -44.5723 H         1 UNK         0.3000 
    160 H160        2.9921  -19.2939  -44.2657 H         1 UNK         0.0600 
    161 H161        2.5423  -17.7503  -46.8722 H         1 UNK         0.0600 
    162 H162        3.3636  -19.3020  -46.7342 H         1 UNK         0.0600 
    163 H163        4.0732  -17.8717  -46.0057 H         1 UNK         0.0600 
    164 H164        2.1705  -16.5537  -44.7903 H         1 UNK         0.3000 
    165 H165        0.9354  -15.8766  -41.5402 H         1 UNK         0.0600 
    166 H166        2.5596  -14.0320  -41.7434 H         1 UNK         0.0600 
    167 H167        3.3967  -15.5477  -41.4418 H         1 UNK         0.0600 
    168 H168        3.3904  -14.8559  -43.0569 H         1 UNK         0.0600 
    169 H169       -0.2560  -14.7241  -42.9648 H         1 UNK         0.3000 
    170 H170        0.2478  -13.1807  -46.1087 H         1 UNK         0.0600 
    171 H171       -1.9444  -15.0210  -45.0164 H         1 UNK         0.0600 
    172 H172       -2.0900  -13.9043  -46.3725 H         1 UNK         0.0600 
    173 H173       -1.0359  -15.3022  -46.4988 H         1 UNK         0.0600 
    174 H174       -1.7150  -12.6726  -44.1654 H         1 UNK         0.3000 
    175 H175       -1.5836  -10.4089  -43.3218 H         1 UNK         0.0600 
    176 H176       -0.0813  -11.7706  -40.9983 H         1 UNK         0.0600 
    177 H177       -1.4435  -10.6685  -40.8067 H         1 UNK         0.0600 
    178 H178       -1.6747  -12.2198  -41.5967 H         1 UNK         0.0600 
    179 H179        1.2156   -9.8952  -42.5468 H         1 UNK         0.3000 
    180 H180        1.0381   -6.6250  -43.6243 H         1 UNK         0.0600 
    181 H181        2.1848   -5.9683  -41.5166 H         1 UNK         0.0600 
    182 H182        1.5474   -7.3955  -40.6979 H         1 UNK         0.0600 
    183 H183        0.4567   -6.1291  -41.2476 H         1 UNK         0.0600 
    184 H184        3.0919   -8.2554  -42.4062 H         1 UNK         0.3000 
    185 H185        4.7937   -8.9027  -44.9656 H         1 UNK         0.0600 
    186 H186        5.4394  -10.5928  -43.2252 H         1 UNK         0.0600 
    187 H187        4.9058   -9.0899  -42.5036 H         1 UNK         0.0600 
    188 H188        3.8308  -10.4925  -42.5218 H         1 UNK         0.0600 
    189 H189        3.0804  -11.3486  -44.7980 H         1 UNK         0.3000 
    190 H190       -2.4296  -21.7638  -46.8610 H         1 UNK         0.3000 
    191 H191       -4.6917  -22.1421  -48.7779 H         1 UNK         0.0600 
    192 H192       -4.6530  -20.6845  -46.0781 H         1 UNK         0.0600 
    193 H193       -6.0097  -20.8131  -47.1861 H         1 UNK         0.0600 
    194 H194       -4.5813  -19.8991  -47.6492 H         1 UNK         0.0600 
    195 H195       -3.6792  -22.7892  -45.3719 H         1 UNK         0.3000 
    196 H196       -5.8810  -24.4864  -44.8417 H         1 UNK         0.0600 
    197 H197       -4.6656  -23.1940  -43.1066 H         1 UNK         0.0600 
    198 H198       -3.2436  -24.2084  -43.3310 H         1 UNK         0.0600 
    199 H199       -4.7251  -24.9018  -42.6917 H         1 UNK         0.0600 
    200 H200       -2.6421  -25.2893  -46.0588 H         1 UNK         0.3000 
    201 H201       -3.3683  -28.1943  -46.1064 H         1 UNK         0.0600 
    202 H202       -1.1877  -27.5198  -44.9488 H         1 UNK         0.0600 
    203 H203       -0.5966  -26.9831  -46.5219 H         1 UNK         0.0600 
    204 H204       -1.0203  -28.6633  -46.2717 H         1 UNK         0.0600 
    205 H205       -3.7715  -25.5428  -47.9336 H         1 UNK         0.3000 
    206 H206       -4.0636  -24.9820  -50.0467 H         1 UNK         0.0600 
    207 H207       -5.7060  -26.8364  -49.9277 H         1 UNK         0.0600 
    208 H208       -5.0375  -26.7146  -51.5449 H         1 UNK         0.0600 
    209 H209       -4.4859  -27.9884  -50.4730 H         1 UNK         0.0600 
    210 H210       -1.2817  -25.2991  -49.3125 H         1 UNK         0.3000 
    211 H211        0.1489  -26.6418  -51.3791 H         1 UNK         0.0600 
    212 H212        1.1801  -24.4554  -49.5058 H         1 UNK         0.0600 
    213 H213        2.1346  -25.6368  -50.3797 H         1 UNK         0.0600 
    214 H214        1.0618  -26.1652  -49.0935 H         1 UNK         0.0600 
    215 H215       -1.2854  -23.4333  -51.3411 H         1 UNK         0.3000 
    216 H216        0.2789  -22.4455  -53.6299 H         1 UNK         0.0600 
    217 H217       -1.3434  -20.5590  -53.5651 H         1 UNK         0.0600 
    218 H218       -0.6055  -20.8247  -51.9965 H         1 UNK         0.0600 
    219 H219       -2.2578  -21.3578  -52.2962 H         1 UNK         0.0600 
    220 H220       -3.0686  -23.5800  -52.9815 H         1 UNK         0.3000 
    221 H221       -3.4393  -25.1265  -55.2774 H         1 UNK         0.0600 
    222 H222       -4.7296  -22.3177  -55.3660 H         1 UNK         0.0600 
    223 H223       -3.5694  -22.9365  -56.5371 H         1 UNK         0.0600 
    224 H224       -5.1624  -23.6475  -56.4343 H         1 UNK         0.0600 
    225 H225       -5.8278  -25.7691  -55.3408 H         1 UNK         0.3000 
    226 H226       -6.9684  -26.2260  -52.7599 H         1 UNK         0.0600 
    227 H227       -7.3434  -27.7314  -54.6964 H         1 UNK         0.0600 
    228 H228       -8.8774  -27.1300  -54.0893 H         1 UNK         0.0600 
    229 H229       -8.1939  -26.4500  -55.5612 H         1 UNK         0.0600 
    230 H230       -7.2939  -23.6077  -55.0465 H         1 UNK         0.3000 
    231 H231       -9.5831  -22.3312  -53.7132 H         1 UNK         0.0600 
    232 H232       -9.2659  -20.6303  -55.4943 H         1 UNK         0.0600 
    233 H233       -9.3165  -22.2360  -56.1999 H         1 UNK         0.0600 
    234 H234       -7.7723  -21.4043  -56.0094 H         1 UNK         0.0600 
    235 H235       -6.4284  -22.6932  -52.7890 H         1 UNK         0.3000 
    236 H236       -4.9373  -21.6702  -51.5353 H         1 UNK         0.0600 
    237 H237       -7.2811  -19.9258  -50.5745 H         1 UNK         0.0600 
    238 H238       -6.7868  -21.4702  -49.8983 H         1 UNK         0.0600 
    239 H239       -5.7207  -20.0811  -49.7779 H         1 UNK         0.0600 
    240 H240       -5.8117  -18.4906  -51.1707 H         1 UNK         0.3000 
    241 H241       -3.9858  -17.5334  -53.2494 H         1 UNK         0.0600 
    242 H242       -7.6879  -17.1638  -54.7079 H         1 UNK         0.3800 
    243 H243       -7.2923  -18.3512  -53.4942 H         1 UNK         0.3800 
    244 H244       -5.4868  -15.9977  -51.0794 H         1 UNK         0.0800 
    245 H245       -4.3329  -15.2901  -52.1755 H         1 UNK         0.0800 
    246 H246       -1.8250  -16.3882  -52.4588 H         1 UNK         0.0800 
    247 H247       -1.9351  -14.9130  -51.5276 H         1 UNK         0.0800 
@<TRIPOS>BOND
     1    1    2 1    
     2    1  127 1    
     3    1  128 1    
     4    1  129 1    
     5    2    3 2    
     6    2    4 am   BACKBONE|DICT|INTERRES
     7    4    5 1    
     8    4  130 1    
     9    5    6 1    
    10    5   65 1    
    11    5  131 1    
    12    6    7 1    
    13    6  132 1    
    14    6  133 1    
    15    7    8 1    
    16    8    9 1    
    17    8  134 1    
    18    8  135 1    
    19    9   10 ar   
    20    9   14 ar   
    21   10   11 ar   
    22   10  136 1    
    23   11   12 ar   
    24   11  126 1    
    25   12   13 ar   
    26   12  137 1    
    27   13   14 ar   
    28   13   15 1    
    29   14  138 1    
    30   15   16 1    
    31   15  139 1    
    32   15  140 1    
    33   16   17 1    
    34   17   18 1    
    35   17  141 1    
    36   17  142 1    
    37   18   19 1    
    38   18   67 1    
    39   18  143 1    
    40   19   20 am   BACKBONE|DICT|INTERRES
    41   19  144 1    
    42   20   21 2    
    43   20   22 1    
    44   22   23 1    
    45   22   24 1    
    46   22  145 1    
    47   23  146 1    
    48   23  147 1    
    49   23  148 1    
    50   24   25 am   BACKBONE|DICT|INTERRES
    51   24  149 1    
    52   25   26 2    
    53   25   27 1    
    54   27   28 1    
    55   27   29 1    
    56   27  150 1    
    57   28  151 1    
    58   28  152 1    
    59   28  153 1    
    60   29   30 am   BACKBONE|DICT|INTERRES
    61   29  154 1    
    62   30   31 2    
    63   30   32 1    
    64   32   33 1    
    65   32   34 1    
    66   32  155 1    
    67   33  156 1    
    68   33  157 1    
    69   33  158 1    
    70   34   35 am   BACKBONE|DICT|INTERRES
    71   34  159 1    
    72   35   36 2    
    73   35   37 1    
    74   37   38 1    
    75   37   39 1    
    76   37  160 1    
    77   38  161 1    
    78   38  162 1    
    79   38  163 1    
    80   39   40 am   BACKBONE|DICT|INTERRES
    81   39  164 1    
    82   40   41 2    
    83   40   42 1    
    84   42   43 1    
    85   42   44 1    
    86   42  165 1    
    87   43  166 1    
    88   43  167 1    
    89   43  168 1    
    90   44   45 am   BACKBONE|DICT|INTERRES
    91   44  169 1    
    92   45   46 2    
    93   45   47 1    
    94   47   48 1    
    95   47   49 1    
    96   47  170 1    
    97   48  171 1    
    98   48  172 1    
    99   48  173 1    
   100   49   50 am   BACKBONE|DICT|INTERRES
   101   49  174 1    
   102   50   51 2    
   103   50   52 1    
   104   52   53 1    
   105   52   54 1    
   106   52  175 1    
   107   53  176 1    
   108   53  177 1    
   109   53  178 1    
   110   54   55 am   BACKBONE|DICT|INTERRES
   111   54  179 1    
   112   55   56 2    
   113   55   57 1    
   114   57   58 1    
   115   57   59 1    
   116   57  180 1    
   117   58  181 1    
   118   58  182 1    
   119   58  183 1    
   120   59   60 am   BACKBONE|DICT|INTERRES
   121   59  184 1    
   122   60   61 2    
   123   60   62 1    
   124   62   63 1    
   125   62   64 1    
   126   62  185 1    
   127   63  186 1    
   128   63  187 1    
   129   63  188 1    
   130   64   65 am   BACKBONE|DICT|INTERRES
   131   64  189 1    
   132   65   66 2    
   133   67   68 2    
   134   67   69 am   BACKBONE|DICT|INTERRES
   135   69   70 1    
   136   69  190 1    
   137   70   71 1    
   138   70   72 1    
   139   70  191 1    
   140   71  192 1    
   141   71  193 1    
   142   71  194 1    
   143   72   73 2    
   144   72   74 am   BACKBONE|DICT|INTERRES
   145   74   75 1    
   146   74  195 1    
   147   75   76 1    
   148   75   77 1    
   149   75  196 1    
   150   76  197 1    
   151   76  198 1    
   152   76  199 1    
   153   77   78 2    
   154   77   79 am   BACKBONE|DICT|INTERRES
   155   79   80 1    
   156   79  200 1    
   157   80   81 1    
   158   80   82 1    
   159   80  201 1    
   160   81  202 1    
   161   81  203 1    
   162   81  204 1    
   163   82   83 2    
   164   82   84 am   BACKBONE|DICT|INTERRES
   165   84   85 1    
   166   84  205 1    
   167   85   86 1    
   168   85   87 1    
   169   85  206 1    
   170   86  207 1    
   171   86  208 1    
   172   86  209 1    
   173   87   88 2    
   174   87   89 am   BACKBONE|DICT|INTERRES
   175   89   90 1    
   176   89  210 1    
   177   90   91 1    
   178   90   92 1    
   179   90  211 1    
   180   91  212 1    
   181   91  213 1    
   182   91  214 1    
   183   92   93 2    
   184   92   94 am   BACKBONE|DICT|INTERRES
   185   94   95 1    
   186   94  215 1    
   187   95   96 1    
   188   95   97 1    
   189   95  216 1    
   190   96  217 1    
   191   96  218 1    
   192   96  219 1    
   193   97   98 2    
   194   97   99 am   BACKBONE|DICT|INTERRES
   195   99  100 1    
   196   99  220 1    
   197  100  101 1    
   198  100  102 1    
   199  100  221 1    
   200  101  222 1    
   201  101  223 1    
   202  101  224 1    
   203  102  103 2    
   204  102  104 am   BACKBONE|DICT|INTERRES
   205  104  105 1    
   206  104  225 1    
   207  105  106 1    
   208  105  107 1    
   209  105  226 1    
   210  106  227 1    
   211  106  228 1    
   212  106  229 1    
   213  107  108 2    
   214  107  109 am   BACKBONE|DICT|INTERRES
   215  109  110 1    
   216  109  230 1    
   217  110  111 1    
   218  110  112 1    
   219  110  231 1    
   220  111  232 1    
   221  111  233 1    
   222  111  234 1    
   223  112  113 2    
   224  112  114 am   BACKBONE|DICT|INTERRES
   225  114  115 1    
   226  114  235 1    
   227  115  116 1    
   228  115  117 1    
   229  115  236 1    
   230  116  237 1    
   231  116  238 1    
   232  116  239 1    
   233  117  118 2    
   234  117  119 am   BACKBONE|DICT|INTERRES
   235  119  120 1    
   236  119  240 1    
   237  120  121 1    
   238  120  124 1    
   239  120  241 1    
   240  121  122 am   BACKBONE|DICT|INTERRES
   241  121  123 2    
   242  122  242 1    
   243  122  243 1    
   244  124  125 1    
   245  124  244 1    
   246  124  245 1    
   247  125  126 1    
   248  126  246 1    
   249  126  247 1    
@<TRIPOS>SUBSTRUCTURE
     1 UNK         1 GROUP             0       ****    0 ROOT    
