@<TRIPOS>MOLECULE
3R540
247   249    1
SMALL
USER_CHARGES


@<TRIPOS>ATOM
      1 CA          7.2463  -13.8970  -46.0941 C.3       0 UNK        -0.1800 
      2 C           5.8367  -13.3385  -46.2839 C.2       0 UNK         0.5000 
      3 O           5.6190  -12.1562  -46.0260 O.2       0 UNK        -0.5000 
      4 N           4.8588  -14.1300  -46.7441 N.am      1 UNK        -0.5000 
      5 CA          4.9255  -15.5742  -46.9983 C.3       1 UNK         0.1400 
      6 C6          3.7907  -16.0471  -47.9428 C.3       23 UNK        -0.0398 
      7 S7          2.1209  -15.4375  -47.5018 S.3       23 UNK        -0.2404 
      8 C8          1.6038  -14.5768  -49.0194 C.3       23 UNK        -0.0205 
      9 C9          0.8649  -15.5007  -49.9786 C.ar      23 UNK        -0.0193 
     10 C10        -0.4561  -15.2204  -50.3392 C.ar      23 UNK        -0.1150 
     11 C11        -1.1442  -16.0516  -51.2273 C.ar      23 UNK        -0.0193 
     12 C12        -0.5030  -17.1755  -51.7529 C.ar      23 UNK        -0.1150 
     13 C13         0.8171  -17.4686  -51.4020 C.ar      23 UNK        -0.0193 
     14 C14         1.4976  -16.6225  -50.5240 C.ar      23 UNK        -0.1150 
     15 C15         1.5190  -18.6874  -51.9816 C.3       23 UNK        -0.0205 
     16 S16         1.6672  -20.0354  -50.7664 S.3       23 UNK        -0.2404 
     17 C17        -0.0681  -20.5736  -50.6073 C.3       23 UNK        -0.0398 
     18 CA         -0.4742  -20.8634  -49.1457 C.3       11 UNK         0.1400 
     19 N          -0.2428  -19.7321  -48.2406 N.am      11 UNK        -0.5000 
     20 C          -0.2392  -19.8443  -46.9055 C.2       10 UNK         0.5000 
     21 O          -0.4286  -20.9036  -46.3133 O.2       10 UNK        -0.5000 
     22 CA         -0.0351  -18.5617  -46.0878 C.3       10 UNK         0.1400 
     23 CB          1.4558  -18.3170  -45.8396 C.3       10 UNK        -0.1800 
     24 N          -0.6493  -17.3746  -46.6825 N.am      10 UNK        -0.5000 
     25 C          -1.9697  -17.2331  -46.8611 C.2       9 UNK         0.5000 
     26 O          -2.7736  -18.1565  -46.7095 O.2       9 UNK        -0.5000 
     27 CA         -2.4626  -15.8223  -47.2194 C.3       9 UNK         0.1400 
     28 CB         -3.9984  -15.6903  -47.1468 C.3       9 UNK        -0.1800 
     29 N          -1.8323  -14.8362  -46.3396 N.am      9 UNK        -0.5000 
     30 C          -1.7131  -13.5292  -46.6140 C.2       8 UNK         0.5000 
     31 O          -2.0245  -13.0343  -47.6978 O.2       8 UNK        -0.5000 
     32 CA         -1.1924  -12.6008  -45.4969 C.3       8 UNK         0.1400 
     33 CB         -2.3701  -11.8991  -44.8023 C.3       8 UNK        -0.1800 
     34 N          -0.4179  -13.3178  -44.4861 N.am      8 UNK        -0.5000 
     35 C           0.9038  -13.5163  -44.5357 C.2       7 UNK         0.5000 
     36 O           1.6311  -12.9687  -45.3650 O.2       7 UNK        -0.5000 
     37 CA          1.5337  -14.4743  -43.4957 C.3       7 UNK         0.1400 
     38 CB          2.6665  -13.7778  -42.7234 C.3       7 UNK        -0.1800 
     39 N           0.6241  -15.0905  -42.5188 N.am      7 UNK        -0.5000 
     40 C          -0.4018  -15.9104  -42.7752 C.2       6 UNK         0.5000 
     41 O          -0.8070  -16.1529  -43.9108 O.2       6 UNK        -0.5000 
     42 CA         -1.0816  -16.5635  -41.5555 C.3       6 UNK         0.1400 
     43 CB         -2.4097  -17.2455  -41.9263 C.3       6 UNK        -0.1800 
     44 N          -0.2062  -17.5571  -40.9356 N.am      6 UNK        -0.5000 
     45 C           0.8319  -17.2899  -40.1321 C.2       5 UNK         0.5000 
     46 O           1.1458  -16.1498  -39.7857 O.2       5 UNK        -0.5000 
     47 CA          1.6614  -18.4921  -39.6346 C.3       5 UNK         0.1400 
     48 CB          1.2174  -18.8993  -38.2212 C.3       5 UNK        -0.1800 
     49 N           1.5972  -19.6677  -40.5115 N.am      5 UNK        -0.5000 
     50 C           2.1276  -19.7239  -41.7396 C.2       4 UNK         0.5000 
     51 O           2.7143  -18.7771  -42.2736 O.2       4 UNK        -0.5000 
     52 CA          1.9670  -21.0498  -42.5029 C.3       4 UNK         0.1400 
     53 CB          0.5010  -21.2913  -42.9064 C.3       4 UNK        -0.1800 
     54 N           2.7964  -20.9535  -43.6929 N.am      4 UNK        -0.5000 
     55 C           3.2690  -21.9357  -44.4639 C.2       3 UNK         0.5000 
     56 O           3.0476  -23.1304  -44.2669 O.2       3 UNK        -0.5000 
     57 CA          4.1520  -21.5012  -45.6567 C.3       3 UNK         0.1400 
     58 CB          3.3623  -21.5866  -46.9737 C.3       3 UNK        -0.1800 
     59 N           4.7018  -20.1440  -45.5137 N.am      3 UNK        -0.5000 
     60 C           5.6417  -19.7997  -44.6204 C.2       2 UNK         0.5000 
     61 O           6.1949  -20.6152  -43.8811 O.2       2 UNK        -0.5000 
     62 CA          6.0090  -18.3073  -44.5128 C.3       2 UNK         0.1400 
     63 CB          7.5084  -18.0964  -44.2294 C.3       2 UNK        -0.1800 
     64 N           5.6419  -17.5368  -45.7070 N.am      2 UNK        -0.5000 
     65 C           4.9746  -16.3752  -45.6771 C.2       1 UNK         0.5000 
     66 O           4.4526  -15.9150  -44.6608 O.2       1 UNK        -0.5000 
     67 C          -1.9309  -21.3669  -49.0910 C.2       11 UNK         0.5000 
     68 O          -2.1652  -22.5465  -49.3547 O.2       11 UNK        -0.5000 
     69 N          -2.8829  -20.4905  -48.7415 N.am      12 UNK        -0.5000 
     70 CA         -4.2765  -20.8665  -48.5177 C.3       12 UNK         0.1400 
     71 CB         -5.1845  -19.6388  -48.6538 C.3       12 UNK        -0.1800 
     72 C          -4.4490  -21.5403  -47.1491 C.2       12 UNK         0.5000 
     73 O          -5.1121  -22.5726  -47.0637 O.2       12 UNK        -0.5000 
     74 N          -3.8022  -20.9823  -46.1159 N.am      13 UNK        -0.5000 
     75 CA         -3.7769  -21.5319  -44.7578 C.3       13 UNK         0.1400 
     76 CB         -3.1242  -20.5144  -43.8140 C.3       13 UNK        -0.1800 
     77 C          -3.0794  -22.9049  -44.6702 C.2       13 UNK         0.5000 
     78 O          -3.5450  -23.7780  -43.9376 O.2       13 UNK        -0.5000 
     79 N          -2.0080  -23.0863  -45.4539 N.am      14 UNK        -0.5000 
     80 CA         -1.2895  -24.3508  -45.6284 C.3       14 UNK         0.1400 
     81 CB          0.0840  -24.0532  -46.2519 C.3       14 UNK        -0.1800 
     82 C          -2.0440  -25.3786  -46.4980 C.2       14 UNK         0.5000 
     83 O          -1.6293  -26.5373  -46.5429 O.2       14 UNK        -0.5000 
     84 N          -3.1062  -24.9384  -47.1915 N.am      15 UNK        -0.5000 
     85 CA         -3.9138  -25.6862  -48.1623 C.3       15 UNK         0.1400 
     86 CB         -4.6683  -26.8479  -47.4838 C.3       15 UNK        -0.1800 
     87 C          -3.1155  -26.1237  -49.4103 C.2       15 UNK         0.5000 
     88 O          -3.4317  -27.1442  -50.0237 O.2       15 UNK        -0.5000 
     89 N          -2.0994  -25.3305  -49.7693 N.am      16 UNK        -0.5000 
     90 CA         -1.2378  -25.5303  -50.9311 C.3       16 UNK         0.1400 
     91 CB          0.1573  -24.9675  -50.6150 C.3       16 UNK        -0.1800 
     92 C          -1.8152  -24.8606  -52.1901 C.2       16 UNK         0.5000 
     93 O          -1.6337  -25.3872  -53.2883 O.2       16 UNK        -0.5000 
     94 N          -2.4990  -23.7216  -52.0125 N.am      17 UNK        -0.5000 
     95 CA         -3.0962  -22.9290  -53.0899 C.3       17 UNK         0.1400 
     96 CB         -2.0926  -21.8707  -53.5809 C.3       17 UNK        -0.1800 
     97 C          -4.4412  -22.3142  -52.6636 C.2       17 UNK         0.5000 
     98 O          -4.8181  -21.2517  -53.1683 O.2       17 UNK        -0.5000 
     99 N          -5.1489  -22.9973  -51.7524 N.am      18 UNK        -0.5000 
    100 CA        -6.4798  -22.6291  -51.2689 C.3       18 UNK         0.1400 
    101 CB        -6.9109  -23.5996  -50.1595 C.3       18 UNK        -0.1800 
    102 C         -7.5103  -22.6060  -52.4108 C.2       18 UNK         0.5000 
    103 O         -7.7207  -23.6305  -53.0623 O.2       18 UNK        -0.5000 
    104 N         -8.0861  -21.4212  -52.6450 N.am      19 UNK        -0.5000 
    105 CA        -9.0171  -21.0525  -53.7168 C.3       19 UNK         0.1400 
    106 CB       -10.2934  -21.9185  -53.6806 C.3       19 UNK        -0.1800 
    107 C         -8.3797  -21.0051  -55.1229 C.2       19 UNK         0.5000 
    108 O         -9.0951  -20.7483  -56.0926 O.2       19 UNK        -0.5000 
    109 N         -7.0604  -21.2183  -55.2186 N.am      20 UNK        -0.5000 
    110 CA        -6.2849  -21.1114  -56.4518 C.3       20 UNK         0.1400 
    111 CB        -5.2910  -22.2808  -56.5446 C.3       20 UNK        -0.1800 
    112 C         -5.5587  -19.7600  -56.4953 C.2       20 UNK         0.5000 
    113 O         -5.6858  -19.0371  -57.4844 O.2       20 UNK        -0.5000 
    114 N         -4.8329  -19.4358  -55.4167 N.am      21 UNK        -0.5000 
    115 CA        -4.1210  -18.1687  -55.2541 C.3       21 UNK         0.1400 
    116 CB        -2.7295  -18.4397  -54.6642 C.3       21 UNK        -0.1800 
    117 C         -4.9029  -17.2019  -54.3524 C.2       21 UNK         0.5000 
    118 O         -4.9608  -16.0086  -54.6512 O.2       21 UNK        -0.5000 
    119 N         -5.4875  -17.7268  -53.2707 N.am      22 UNK        -0.5000 
    120 CA        -6.2305  -16.9744  -52.2524 C.3       22 UNK         0.1400 
    121 C         -7.0928  -17.9161  -51.3703 C.2       22 UNK         0.5000 
    122 N         -7.9383  -17.3755  -50.5042 N.am      22 UNK        -0.7600 
    123 O         -7.0226  -19.1384  -51.4715 O.2       22 UNK        -0.5000 
    124 C124       -5.3400  -15.9979  -51.4253 C.3       23 UNK        -0.0398 
    125 S125       -3.7948  -16.7192  -50.7577 S.3       23 UNK        -0.2404 
    126 C126       -2.5655  -15.7163  -51.6468 C.3       23 UNK        -0.0205 
    127 H127        7.6128  -14.3636  -47.0079 H         1 UNK         0.0600 
    128 H128        7.2700  -14.6289  -45.2873 H         1 UNK         0.0600 
    129 H129        7.9402  -13.0972  -45.8343 H         1 UNK         0.0600 
    130 H130        3.9248  -13.7472  -46.8047 H         1 UNK         0.3000 
    131 H131        5.8623  -15.7727  -47.5215 H         1 UNK         0.0600 
    132 H132        4.0331  -15.7082  -48.9501 H         1 UNK         0.0800 
    133 H133        3.7626  -17.1356  -48.0104 H         1 UNK         0.0800 
    134 H134        2.4610  -14.1273  -49.5215 H         1 UNK         0.0800 
    135 H135        0.9599  -13.7464  -48.7250 H         1 UNK         0.0800 
    136 H136       -0.9494  -14.3474  -49.9345 H         1 UNK         0.1150 
    137 H137       -1.0322  -17.8197  -52.4386 H         1 UNK         0.1150 
    138 H138        2.5202  -16.8496  -50.2650 H         1 UNK         0.1150 
    139 H139        0.9975  -19.0524  -52.8681 H         1 UNK         0.0800 
    140 H140        2.5182  -18.4017  -52.3133 H         1 UNK         0.0800 
    141 H141       -0.1817  -21.4728  -51.2153 H         1 UNK         0.0800 
    142 H142       -0.7334  -19.8274  -51.0412 H         1 UNK         0.0800 
    143 H143        0.1522  -21.6876  -48.7971 H         1 UNK         0.0600 
    144 H144       -0.0711  -18.8307  -48.6626 H         1 UNK         0.3000 
    145 H145       -0.5112  -18.7115  -45.1171 H         1 UNK         0.0600 
    146 H146        2.0095  -18.2363  -46.7739 H         1 UNK         0.0600 
    147 H147        1.6217  -17.4131  -45.2537 H         1 UNK         0.0600 
    148 H148        1.8862  -19.1410  -45.2802 H         1 UNK         0.0600 
    149 H149       -0.0468  -16.5756  -46.8258 H         1 UNK         0.3000 
    150 H150       -2.1527  -15.6385  -48.2473 H         1 UNK         0.0600 
    151 H151       -4.4881  -16.4222  -47.7896 H         1 UNK         0.0600 
    152 H152       -4.3300  -14.7058  -47.4762 H         1 UNK         0.0600 
    153 H153       -4.3641  -15.8468  -46.1315 H         1 UNK         0.0600 
    154 H154       -1.5036  -15.1990  -45.4473 H         1 UNK         0.3000 
    155 H155       -0.5715  -11.8342  -45.9653 H         1 UNK         0.0600 
    156 H156       -2.9638  -11.3300  -45.5190 H         1 UNK         0.0600 
    157 H157       -2.0197  -11.1989  -44.0437 H         1 UNK         0.0600 
    158 H158       -3.0367  -12.6140  -44.3181 H         1 UNK         0.0600 
    159 H159       -0.9399  -13.8176  -43.7817 H         1 UNK         0.3000 
    160 H160        1.9714  -15.2907  -44.0713 H         1 UNK         0.0600 
    161 H161        2.2900  -12.9565  -42.1129 H         1 UNK         0.0600 
    162 H162        3.4151  -13.3696  -43.4042 H         1 UNK         0.0600 
    163 H163        3.1833  -14.4789  -42.0675 H         1 UNK         0.0600 
    164 H164        0.8934  -14.9922  -41.5466 H         1 UNK         0.3000 
    165 H165       -1.3000  -15.7755  -40.8316 H         1 UNK         0.0600 
    166 H166       -2.8990  -17.6656  -41.0474 H         1 UNK         0.0600 
    167 H167       -3.1035  -16.5345  -42.3768 H         1 UNK         0.0600 
    168 H168       -2.2551  -18.0516  -42.6429 H         1 UNK         0.0600 
    169 H169       -0.3733  -18.5198  -41.1854 H         1 UNK         0.3000 
    170 H170        2.7027  -18.1667  -39.5828 H         1 UNK         0.0600 
    171 H171        1.2796  -18.0550  -37.5332 H         1 UNK         0.0600 
    172 H172        0.1868  -19.2563  -38.2102 H         1 UNK         0.0600 
    173 H173        1.8521  -19.6898  -37.8201 H         1 UNK         0.0600 
    174 H174        1.1340  -20.4831  -40.1366 H         1 UNK         0.3000 
    175 H175        2.3268  -21.8662  -41.8739 H         1 UNK         0.0600 
    176 H176        0.1257  -20.4774  -43.5255 H         1 UNK         0.0600 
    177 H177        0.3899  -22.2158  -43.4727 H         1 UNK         0.0600 
    178 H178       -0.1468  -21.3698  -42.0331 H         1 UNK         0.0600 
    179 H179        3.0938  -20.0037  -43.8791 H         1 UNK         0.3000 
    180 H180        4.9858  -22.2040  -45.7156 H         1 UNK         0.0600 
    181 H181        2.5260  -20.8892  -46.9910 H         1 UNK         0.0600 
    182 H182        2.9533  -22.5871  -47.1210 H         1 UNK         0.0600 
    183 H183        3.9981  -21.3676  -47.8317 H         1 UNK         0.0600 
    184 H184        4.2954  -19.4217  -46.0884 H         1 UNK         0.3000 
    185 H185        5.4554  -17.9438  -43.6444 H         1 UNK         0.0600 
    186 H186        8.1275  -18.4840  -45.0392 H         1 UNK         0.0600 
    187 H187        7.7403  -17.0383  -44.1073 H         1 UNK         0.0600 
    188 H188        7.8137  -18.5984  -43.3105 H         1 UNK         0.0600 
    189 H189        6.0416  -17.8608  -46.5775 H         1 UNK         0.3000 
    190 H190       -2.6208  -19.5486  -48.4817 H         1 UNK         0.3000 
    191 H191       -4.5694  -21.5837  -49.2853 H         1 UNK         0.0600 
    192 H192       -5.0357  -19.1575  -49.6185 H         1 UNK         0.0600 
    193 H193       -6.2356  -19.9228  -48.5910 H         1 UNK         0.0600 
    194 H194       -4.9978  -18.8978  -47.8773 H         1 UNK         0.0600 
    195 H195       -3.2987  -20.1149  -46.2706 H         1 UNK         0.3000 
    196 H196       -4.8114  -21.6723  -44.4374 H         1 UNK         0.0600 
    197 H197       -3.0608  -20.9013  -42.7962 H         1 UNK         0.0600 
    198 H198       -3.7045  -19.5924  -43.7788 H         1 UNK         0.0600 
    199 H199       -2.1158  -20.2613  -44.1369 H         1 UNK         0.0600 
    200 H200       -1.6240  -22.2828  -45.9459 H         1 UNK         0.3000 
    201 H201       -1.1322  -24.7986  -44.6452 H         1 UNK         0.0600 
    202 H202        0.6519  -23.3522  -45.6414 H         1 UNK         0.0600 
    203 H203       -0.0129  -23.6243  -47.2497 H         1 UNK         0.0600 
    204 H204        0.6821  -24.9608  -46.3410 H         1 UNK         0.0600 
    205 H205       -3.3821  -23.9734  -47.0620 H         1 UNK         0.3000 
    206 H206       -4.6627  -24.9836  -48.5244 H         1 UNK         0.0600 
    207 H207       -3.9913  -27.6381  -47.1584 H         1 UNK         0.0600 
    208 H208       -5.2232  -26.5002  -46.6123 H         1 UNK         0.0600 
    209 H209       -5.3892  -27.2976  -48.1674 H         1 UNK         0.0600 
    210 H210       -1.9659  -24.4640  -49.2581 H         1 UNK         0.3000 
    211 H211       -1.1369  -26.5992  -51.1309 H         1 UNK         0.0600 
    212 H212        0.8377  -25.1158  -51.4544 H         1 UNK         0.0600 
    213 H213        0.5946  -25.4657  -49.7494 H         1 UNK         0.0600 
    214 H214        0.1250  -23.8985  -50.4030 H         1 UNK         0.0600 
    215 H215       -2.5730  -23.3407  -51.0733 H         1 UNK         0.3000 
    216 H216       -3.3299  -23.5865  -53.9295 H         1 UNK         0.0600 
    217 H217       -2.4515  -21.3921  -54.4919 H         1 UNK         0.0600 
    218 H218       -1.1239  -22.3137  -53.8121 H         1 UNK         0.0600 
    219 H219       -1.9393  -21.0900  -52.8368 H         1 UNK         0.0600 
    220 H220       -4.7888  -23.8874  -51.4443 H         1 UNK         0.3000 
    221 H221       -6.4124  -21.6309  -50.8334 H         1 UNK         0.0600 
    222 H222       -6.8972  -24.6361  -50.4988 H         1 UNK         0.0600 
    223 H223       -6.2592  -23.5174  -49.2923 H         1 UNK         0.0600 
    224 H224       -7.9234  -23.3780  -49.8194 H         1 UNK         0.0600 
    225 H225       -7.7613  -20.6284  -52.0895 H         1 UNK         0.3000 
    226 H226       -9.3157  -20.0267  -53.4963 H         1 UNK         0.0600 
    227 H227      -10.7304  -21.9366  -52.6823 H         1 UNK         0.0600 
    228 H228      -11.0515  -21.5237  -54.3578 H         1 UNK         0.0600 
    229 H229      -10.0969  -22.9477  -53.9816 H         1 UNK         0.0600 
    230 H230       -6.5376  -21.3825  -54.3671 H         1 UNK         0.3000 
    231 H231       -6.9434  -21.1696  -57.3211 H         1 UNK         0.0600 
    232 H232       -4.5653  -22.2695  -55.7328 H         1 UNK         0.0600 
    233 H233       -4.7327  -22.2409  -57.4807 H         1 UNK         0.0600 
    234 H234       -5.8093  -23.2394  -56.5155 H         1 UNK         0.0600 
    235 H235       -4.7917  -20.0852  -54.6360 H         1 UNK         0.3000 
    236 H236       -3.9807  -17.6836  -56.2224 H         1 UNK         0.0600 
    237 H237       -2.1499  -19.1001  -55.3090 H         1 UNK         0.0600 
    238 H238       -2.1649  -17.5124  -54.5624 H         1 UNK         0.0600 
    239 H239       -2.7944  -18.8997  -53.6775 H         1 UNK         0.0600 
    240 H240       -5.4215  -18.7193  -53.0848 H         1 UNK         0.3000 
    241 H241       -6.9600  -16.3717  -52.7966 H         1 UNK         0.0600 
    242 H242       -8.5028  -17.9855  -49.9347 H         1 UNK         0.3800 
    243 H243       -8.0426  -16.3779  -50.4088 H         1 UNK         0.3800 
    244 H244       -5.0869  -15.1438  -52.0538 H         1 UNK         0.0800 
    245 H245       -5.8962  -15.5672  -50.5919 H         1 UNK         0.0800 
    246 H246       -2.6762  -15.8717  -52.7204 H         1 UNK         0.0800 
    247 H247       -2.7677  -14.6592  -51.4674 H         1 UNK         0.0800 
@<TRIPOS>BOND
     1    1    2 1    
     2    1  127 1    
     3    1  128 1    
     4    1  129 1    
     5    2    3 2    
     6    2    4 am   BACKBONE|DICT|INTERRES
     7    4    5 1    
     8    4  130 1    
     9    5    6 1    
    10    5   65 1    
    11    5  131 1    
    12    6    7 1    
    13    6  132 1    
    14    6  133 1    
    15    7    8 1    
    16    8    9 1    
    17    8  134 1    
    18    8  135 1    
    19    9   10 ar   
    20    9   14 ar   
    21   10   11 ar   
    22   10  136 1    
    23   11   12 ar   
    24   11  126 1    
    25   12   13 ar   
    26   12  137 1    
    27   13   14 ar   
    28   13   15 1    
    29   14  138 1    
    30   15   16 1    
    31   15  139 1    
    32   15  140 1    
    33   16   17 1    
    34   17   18 1    
    35   17  141 1    
    36   17  142 1    
    37   18   19 1    
    38   18   67 1    
    39   18  143 1    
    40   19   20 am   BACKBONE|DICT|INTERRES
    41   19  144 1    
    42   20   21 2    
    43   20   22 1    
    44   22   23 1    
    45   22   24 1    
    46   22  145 1    
    47   23  146 1    
    48   23  147 1    
    49   23  148 1    
    50   24   25 am   BACKBONE|DICT|INTERRES
    51   24  149 1    
    52   25   26 2    
    53   25   27 1    
    54   27   28 1    
    55   27   29 1    
    56   27  150 1    
    57   28  151 1    
    58   28  152 1    
    59   28  153 1    
    60   29   30 am   BACKBONE|DICT|INTERRES
    61   29  154 1    
    62   30   31 2    
    63   30   32 1    
    64   32   33 1    
    65   32   34 1    
    66   32  155 1    
    67   33  156 1    
    68   33  157 1    
    69   33  158 1    
    70   34   35 am   BACKBONE|DICT|INTERRES
    71   34  159 1    
    72   35   36 2    
    73   35   37 1    
    74   37   38 1    
    75   37   39 1    
    76   37  160 1    
    77   38  161 1    
    78   38  162 1    
    79   38  163 1    
    80   39   40 am   BACKBONE|DICT|INTERRES
    81   39  164 1    
    82   40   41 2    
    83   40   42 1    
    84   42   43 1    
    85   42   44 1    
    86   42  165 1    
    87   43  166 1    
    88   43  167 1    
    89   43  168 1    
    90   44   45 am   BACKBONE|DICT|INTERRES
    91   44  169 1    
    92   45   46 2    
    93   45   47 1    
    94   47   48 1    
    95   47   49 1    
    96   47  170 1    
    97   48  171 1    
    98   48  172 1    
    99   48  173 1    
   100   49   50 am   BACKBONE|DICT|INTERRES
   101   49  174 1    
   102   50   51 2    
   103   50   52 1    
   104   52   53 1    
   105   52   54 1    
   106   52  175 1    
   107   53  176 1    
   108   53  177 1    
   109   53  178 1    
   110   54   55 am   BACKBONE|DICT|INTERRES
   111   54  179 1    
   112   55   56 2    
   113   55   57 1    
   114   57   58 1    
   115   57   59 1    
   116   57  180 1    
   117   58  181 1    
   118   58  182 1    
   119   58  183 1    
   120   59   60 am   BACKBONE|DICT|INTERRES
   121   59  184 1    
   122   60   61 2    
   123   60   62 1    
   124   62   63 1    
   125   62   64 1    
   126   62  185 1    
   127   63  186 1    
   128   63  187 1    
   129   63  188 1    
   130   64   65 am   BACKBONE|DICT|INTERRES
   131   64  189 1    
   132   65   66 2    
   133   67   68 2    
   134   67   69 am   BACKBONE|DICT|INTERRES
   135   69   70 1    
   136   69  190 1    
   137   70   71 1    
   138   70   72 1    
   139   70  191 1    
   140   71  192 1    
   141   71  193 1    
   142   71  194 1    
   143   72   73 2    
   144   72   74 am   BACKBONE|DICT|INTERRES
   145   74   75 1    
   146   74  195 1    
   147   75   76 1    
   148   75   77 1    
   149   75  196 1    
   150   76  197 1    
   151   76  198 1    
   152   76  199 1    
   153   77   78 2    
   154   77   79 am   BACKBONE|DICT|INTERRES
   155   79   80 1    
   156   79  200 1    
   157   80   81 1    
   158   80   82 1    
   159   80  201 1    
   160   81  202 1    
   161   81  203 1    
   162   81  204 1    
   163   82   83 2    
   164   82   84 am   BACKBONE|DICT|INTERRES
   165   84   85 1    
   166   84  205 1    
   167   85   86 1    
   168   85   87 1    
   169   85  206 1    
   170   86  207 1    
   171   86  208 1    
   172   86  209 1    
   173   87   88 2    
   174   87   89 am   BACKBONE|DICT|INTERRES
   175   89   90 1    
   176   89  210 1    
   177   90   91 1    
   178   90   92 1    
   179   90  211 1    
   180   91  212 1    
   181   91  213 1    
   182   91  214 1    
   183   92   93 2    
   184   92   94 am   BACKBONE|DICT|INTERRES
   185   94   95 1    
   186   94  215 1    
   187   95   96 1    
   188   95   97 1    
   189   95  216 1    
   190   96  217 1    
   191   96  218 1    
   192   96  219 1    
   193   97   98 2    
   194   97   99 am   BACKBONE|DICT|INTERRES
   195   99  100 1    
   196   99  220 1    
   197  100  101 1    
   198  100  102 1    
   199  100  221 1    
   200  101  222 1    
   201  101  223 1    
   202  101  224 1    
   203  102  103 2    
   204  102  104 am   BACKBONE|DICT|INTERRES
   205  104  105 1    
   206  104  225 1    
   207  105  106 1    
   208  105  107 1    
   209  105  226 1    
   210  106  227 1    
   211  106  228 1    
   212  106  229 1    
   213  107  108 2    
   214  107  109 am   BACKBONE|DICT|INTERRES
   215  109  110 1    
   216  109  230 1    
   217  110  111 1    
   218  110  112 1    
   219  110  231 1    
   220  111  232 1    
   221  111  233 1    
   222  111  234 1    
   223  112  113 2    
   224  112  114 am   BACKBONE|DICT|INTERRES
   225  114  115 1    
   226  114  235 1    
   227  115  116 1    
   228  115  117 1    
   229  115  236 1    
   230  116  237 1    
   231  116  238 1    
   232  116  239 1    
   233  117  118 2    
   234  117  119 am   BACKBONE|DICT|INTERRES
   235  119  120 1    
   236  119  240 1    
   237  120  121 1    
   238  120  124 1    
   239  120  241 1    
   240  121  122 am   BACKBONE|DICT|INTERRES
   241  121  123 2    
   242  122  242 1    
   243  122  243 1    
   244  124  125 1    
   245  124  244 1    
   246  124  245 1    
   247  125  126 1    
   248  126  246 1    
   249  126  247 1    
@<TRIPOS>SUBSTRUCTURE
     1 UNK         1 GROUP             0       ****    0 ROOT    
