@<TRIPOS>MOLECULE
3R540
247   249    1
SMALL
USER_CHARGES


@<TRIPOS>ATOM
      1 CA          1.0926  -14.6778  -42.5195 C.3       0 UNK        -0.1800 
      2 C          -0.1563  -13.8078  -42.4600 C.2       0 UNK         0.5000 
      3 O          -0.0729  -12.6309  -42.1110 O.2       0 UNK        -0.5000 
      4 N          -1.3133  -14.3819  -42.8104 N.am      1 UNK        -0.5000 
      5 CA         -2.6232  -13.7164  -42.8812 C.3       1 UNK         0.1400 
      6 C6         -3.7884  -14.7359  -42.7651 C.3       23 UNK        -0.0398 
      7 S7         -3.6427  -16.1623  -43.8974 S.3       23 UNK        -0.2404 
      8 C8         -4.8833  -15.7639  -45.1650 C.3       23 UNK        -0.0205 
      9 C9         -4.6774  -16.6050  -46.4161 C.ar      23 UNK        -0.0193 
     10 C10        -4.2761  -16.0016  -47.6101 C.ar      23 UNK        -0.1150 
     11 C11        -4.0865  -16.7665  -48.7627 C.ar      23 UNK        -0.0193 
     12 C12        -4.2790  -18.1481  -48.7069 C.ar      23 UNK        -0.1150 
     13 C13        -4.6883  -18.7742  -47.5254 C.ar      23 UNK        -0.0193 
     14 C14        -4.8967  -17.9858  -46.3841 C.ar      23 UNK        -0.1150 
     15 C15        -4.9050  -20.2910  -47.5527 C.3       23 UNK        -0.0205 
     16 S16        -5.2571  -21.0929  -45.9478 S.3       23 UNK        -0.2404 
     17 C17        -3.6261  -20.9878  -45.1364 C.3       23 UNK        -0.0398 
     18 CA         -2.7910  -22.2784  -45.3064 C.3       11 UNK         0.1400 
     19 N          -1.3499  -21.9943  -45.3120 N.am      11 UNK        -0.5000 
     20 C          -0.3885  -22.8816  -45.6126 C.2       10 UNK         0.5000 
     21 O          -0.6283  -24.0554  -45.8871 O.2       10 UNK        -0.5000 
     22 CA          1.0786  -22.4127  -45.5887 C.3       10 UNK         0.1400 
     23 CB          1.7200  -22.5515  -46.9781 C.3       10 UNK        -0.1800 
     24 N           1.2446  -21.0404  -45.1097 N.am      10 UNK        -0.5000 
     25 C           1.1736  -20.6644  -43.8251 C.2       9 UNK         0.5000 
     26 O           0.9863  -21.4515  -42.8968 O.2       9 UNK        -0.5000 
     27 CA          1.3004  -19.1577  -43.5290 C.3       9 UNK         0.1400 
     28 CB          2.7213  -18.8219  -43.0535 C.3       9 UNK        -0.1800 
     29 N           0.9505  -18.3166  -44.6792 N.am      9 UNK        -0.5000 
     30 C          -0.3047  -18.1495  -45.1213 C.2       8 UNK         0.5000 
     31 O          -1.2749  -18.6875  -44.5907 O.2       8 UNK        -0.5000 
     32 CA         -0.5101  -17.2759  -46.3736 C.3       8 UNK         0.1400 
     33 CB         -0.4446  -15.7844  -46.0255 C.3       8 UNK        -0.1800 
     34 N           0.4539  -17.5505  -47.4355 N.am      8 UNK        -0.5000 
     35 C           0.5298  -18.7007  -48.1166 C.2       7 UNK         0.5000 
     36 O          -0.1486  -19.6938  -47.8593 O.2       7 UNK        -0.5000 
     37 CA          1.5592  -18.7543  -49.2565 C.3       7 UNK         0.1400 
     38 CB          1.0249  -18.0481  -50.5132 C.3       7 UNK        -0.1800 
     39 N           2.8179  -18.1324  -48.8479 N.am      7 UNK        -0.5000 
     40 C           3.8167  -18.7831  -48.2366 C.2       6 UNK         0.5000 
     41 O           3.8169  -19.9964  -48.0317 O.2       6 UNK        -0.5000 
     42 CA          5.0184  -17.9420  -47.7598 C.3       6 UNK         0.1400 
     43 CB          6.0994  -17.8838  -48.8497 C.3       6 UNK        -0.1800 
     44 N           4.6663  -16.5771  -47.3637 N.am      6 UNK        -0.5000 
     45 C           3.8679  -16.2625  -46.3345 C.2       5 UNK         0.5000 
     46 O           3.3427  -17.0935  -45.5976 O.2       5 UNK        -0.5000 
     47 CA          3.5550  -14.7711  -46.1231 C.3       5 UNK         0.1400 
     48 CB          4.6021  -14.1221  -45.2073 C.3       5 UNK        -0.1800 
     49 N           3.4403  -13.9917  -47.3573 N.am      5 UNK        -0.5000 
     50 C           2.6327  -14.2670  -48.3897 C.2       4 UNK         0.5000 
     51 O           1.9600  -15.2963  -48.4795 O.2       4 UNK        -0.5000 
     52 CA          2.5395  -13.1789  -49.4748 C.3       4 UNK         0.1400 
     53 CB          1.8131  -13.6728  -50.7346 C.3       4 UNK        -0.1800 
     54 N           1.8324  -12.0160  -48.9405 N.am      4 UNK        -0.5000 
     55 C           2.3816  -11.0786  -48.1572 C.2       3 UNK         0.5000 
     56 O           3.5863  -11.0253  -47.9032 O.2       3 UNK        -0.5000 
     57 CA          1.4238  -10.0570  -47.5144 C.3       3 UNK         0.1400 
     58 CB          1.3002   -8.8075  -48.3997 C.3       3 UNK        -0.1800 
     59 N           0.0814  -10.5784  -47.2287 N.am      3 UNK        -0.5000 
     60 C          -0.1963  -11.5928  -46.3974 C.2       2 UNK         0.5000 
     61 O           0.6612  -12.2712  -45.8241 O.2       2 UNK        -0.5000 
     62 CA         -1.6858  -11.8913  -46.1662 C.3       2 UNK         0.1400 
     63 CB         -2.3396  -12.5423  -47.3980 C.3       2 UNK        -0.1800 
     64 N          -1.8008  -12.7778  -45.0150 N.am      2 UNK        -0.5000 
     65 C          -2.7841  -12.7845  -44.1089 C.2       1 UNK         0.5000 
     66 O          -3.7910  -12.0807  -44.2022 O.2       1 UNK        -0.5000 
     67 C          -3.2043  -23.3922  -44.3140 C.2       11 UNK         0.5000 
     68 O          -4.2068  -24.0696  -44.5400 O.2       11 UNK        -0.5000 
     69 N          -2.3937  -23.6156  -43.2700 N.am      12 UNK        -0.5000 
     70 CA         -2.5273  -24.7387  -42.3403 C.3       12 UNK         0.1400 
     71 CB         -1.5791  -24.5107  -41.1534 C.3       12 UNK        -0.1800 
     72 C          -2.2588  -26.1168  -42.9858 C.2       12 UNK         0.5000 
     73 O          -2.7605  -27.1224  -42.4817 O.2       12 UNK        -0.5000 
     74 N          -1.4842  -26.1491  -44.0786 N.am      13 UNK        -0.5000 
     75 CA         -1.1337  -27.3492  -44.8291 C.3       13 UNK         0.1400 
     76 CB          0.3600  -27.2902  -45.1970 C.3       13 UNK        -0.1800 
     77 C          -2.0368  -27.4465  -46.0687 C.2       13 UNK         0.5000 
     78 O          -1.6599  -26.9853  -47.1478 O.2       13 UNK        -0.5000 
     79 N          -3.2311  -28.0256  -45.8769 N.am      14 UNK        -0.5000 
     80 CA         -4.2309  -28.3468  -46.9054 C.3       14 UNK         0.1400 
     81 CB         -3.7305  -29.5128  -47.7839 C.3       14 UNK        -0.1800 
     82 C          -4.6702  -27.1233  -47.7374 C.2       14 UNK         0.5000 
     83 O          -4.6981  -27.1839  -48.9693 O.2       14 UNK        -0.5000 
     84 N          -4.9612  -26.0137  -47.0413 N.am      15 UNK        -0.5000 
     85 CA         -5.3723  -24.7178  -47.5958 C.3       15 UNK         0.1400 
     86 CB         -6.7712  -24.8201  -48.2398 C.3       15 UNK        -0.1800 
     87 C          -4.3254  -24.1036  -48.5489 C.2       15 UNK         0.5000 
     88 O          -4.7015  -23.4125  -49.4939 O.2       15 UNK        -0.5000 
     89 N          -3.0373  -24.3964  -48.3072 N.am      16 UNK        -0.5000 
     90 CA         -1.8703  -24.0151  -49.1125 C.3       16 UNK         0.1400 
     91 CB         -1.6799  -22.4828  -49.1328 C.3       16 UNK        -0.1800 
     92 C          -1.8895  -24.6170  -50.5335 C.2       16 UNK         0.5000 
     93 O          -1.2851  -24.0443  -51.4401 O.2       16 UNK        -0.5000 
     94 N          -2.5869  -25.7528  -50.7033 N.am      17 UNK        -0.5000 
     95 CA         -2.8712  -26.4299  -51.9714 C.3       17 UNK         0.1400 
     96 CB         -1.5828  -26.9998  -52.6014 C.3       17 UNK        -0.1800 
     97 C          -3.6718  -25.5158  -52.9220 C.2       17 UNK         0.5000 
     98 O          -3.2128  -25.1991  -54.0209 O.2       17 UNK        -0.5000 
     99 N          -4.8538  -25.0989  -52.4448 N.am      18 UNK        -0.5000 
    100 CA        -5.7961  -24.1716  -53.0791 C.3       18 UNK         0.1400 
    101 CB        -6.2960  -24.7033  -54.4397 C.3       18 UNK        -0.1800 
    102 C         -5.2390  -22.7359  -53.1452 C.2       18 UNK         0.5000 
    103 O         -5.1215  -22.1512  -54.2236 O.2       18 UNK        -0.5000 
    104 N         -4.9033  -22.2005  -51.9653 N.am      19 UNK        -0.5000 
    105 CA        -4.4951  -20.8318  -51.6330 C.3       19 UNK         0.1400 
    106 CB        -5.5800  -19.8141  -52.0369 C.3       19 UNK        -0.1800 
    107 C         -3.1118  -20.3911  -52.1434 C.2       19 UNK         0.5000 
    108 O         -2.4957  -19.5404  -51.5041 O.2       19 UNK        -0.5000 
    109 N         -2.6600  -20.9370  -53.2805 N.am      20 UNK        -0.5000 
    110 CA        -1.4312  -20.5778  -54.0010 C.3       20 UNK         0.1400 
    111 CB        -0.1773  -20.9633  -53.1882 C.3       20 UNK        -0.1800 
    112 C         -1.4193  -19.1036  -54.4688 C.2       20 UNK         0.5000 
    113 O         -0.3547  -18.4917  -54.5681 O.2       20 UNK        -0.5000 
    114 N         -2.6187  -18.5654  -54.7385 N.am      21 UNK        -0.5000 
    115 CA        -2.9664  -17.2240  -55.2251 C.3       21 UNK         0.1400 
    116 CB        -2.3581  -16.9727  -56.6180 C.3       21 UNK        -0.1800 
    117 C         -2.6556  -16.0463  -54.2761 C.2       21 UNK         0.5000 
    118 O         -3.4100  -15.0725  -54.2862 O.2       21 UNK        -0.5000 
    119 N         -1.5687  -16.1302  -53.4993 N.am      22 UNK        -0.5000 
    120 CA        -0.9705  -15.0268  -52.7280 C.3       22 UNK         0.1400 
    121 C         -0.4877  -13.8688  -53.6618 C.2       22 UNK         0.5000 
    122 N         -0.6278  -12.6020  -53.2896 N.am      22 UNK        -0.7600 
    123 O          0.0740  -14.1176  -54.7264 O.2       22 UNK        -0.5000 
    124 C124       -1.8401  -14.5690  -51.5175 C.3       23 UNK        -0.0398 
    125 S125       -1.9168  -15.8102  -50.1822 S.3       23 UNK        -0.2404 
    126 C126       -3.7068  -16.0912  -50.0711 C.3       23 UNK        -0.0205 
    127 H127        1.8167  -14.2451  -43.2099 H         1 UNK         0.0600 
    128 H128        0.8680  -15.6909  -42.8549 H         1 UNK         0.0600 
    129 H129        1.5546  -14.7407  -41.5344 H         1 UNK         0.0600 
    130 H130       -1.3275  -15.3578  -43.0723 H         1 UNK         0.3000 
    131 H131       -2.6971  -13.0591  -42.0123 H         1 UNK         0.0600 
    132 H132       -3.8028  -15.1369  -41.7509 H         1 UNK         0.0800 
    133 H133       -4.7581  -14.2511  -42.8926 H         1 UNK         0.0800 
    134 H134       -4.8268  -14.7018  -45.4084 H         1 UNK         0.0800 
    135 H135       -5.8824  -15.9402  -44.7642 H         1 UNK         0.0800 
    136 H136       -4.1178  -14.9341  -47.6487 H         1 UNK         0.1150 
    137 H137       -4.1156  -18.7364  -49.5957 H         1 UNK         0.1150 
    138 H138       -5.2178  -18.4324  -45.4551 H         1 UNK         0.1150 
    139 H139       -5.7381  -20.5050  -48.2236 H         1 UNK         0.0800 
    140 H140       -4.0283  -20.7696  -47.9919 H         1 UNK         0.0800 
    141 H141       -3.7562  -20.7291  -44.0842 H         1 UNK         0.0800 
    142 H142       -3.1004  -20.1444  -45.5828 H         1 UNK         0.0800 
    143 H143       -3.0047  -22.6709  -46.2982 H         1 UNK         0.0600 
    144 H144       -1.0782  -21.0414  -45.1087 H         1 UNK         0.3000 
    145 H145        1.6123  -23.0810  -44.9098 H         1 UNK         0.0600 
    146 H146        2.7783  -22.2929  -46.9499 H         1 UNK         0.0600 
    147 H147        1.6492  -23.5773  -47.3422 H         1 UNK         0.0600 
    148 H148        1.2370  -21.9115  -47.7155 H         1 UNK         0.0600 
    149 H149        1.3612  -20.3270  -45.8155 H         1 UNK         0.3000 
    150 H150        0.6114  -18.9238  -42.7145 H         1 UNK         0.0600 
    151 H151        2.9692  -19.3736  -42.1459 H         1 UNK         0.0600 
    152 H152        2.8225  -17.7603  -42.8270 H         1 UNK         0.0600 
    153 H153        3.4680  -19.0787  -43.8058 H         1 UNK         0.0600 
    154 H154        1.7245  -17.8547  -45.1531 H         1 UNK         0.3000 
    155 H155       -1.5052  -17.4867  -46.7728 H         1 UNK         0.0600 
    156 H156       -1.2963  -15.4991  -45.4135 H         1 UNK         0.0600 
    157 H157       -0.4715  -15.1686  -46.9238 H         1 UNK         0.0600 
    158 H158        0.4616  -15.5327  -45.4767 H         1 UNK         0.0600 
    159 H159        1.0317  -16.7707  -47.7368 H         1 UNK         0.3000 
    160 H160        1.7254  -19.8039  -49.5087 H         1 UNK         0.0600 
    161 H161        0.9146  -16.9747  -50.3582 H         1 UNK         0.0600 
    162 H162        0.0453  -18.4370  -50.7950 H         1 UNK         0.0600 
    163 H163        1.6915  -18.1963  -51.3626 H         1 UNK         0.0600 
    164 H164        2.8611  -17.1225  -48.9148 H         1 UNK         0.3000 
    165 H165        5.4409  -18.4428  -46.8861 H         1 UNK         0.0600 
    166 H166        6.9914  -17.3678  -48.4943 H         1 UNK         0.0600 
    167 H167        6.4043  -18.8869  -49.1511 H         1 UNK         0.0600 
    168 H168        5.7437  -17.3669  -49.7419 H         1 UNK         0.0600 
    169 H169        5.0405  -15.8270  -47.9257 H         1 UNK         0.3000 
    170 H170        2.5898  -14.7092  -45.6197 H         1 UNK         0.0600 
    171 H171        4.6904  -14.6674  -44.2665 H         1 UNK         0.0600 
    172 H172        5.5883  -14.1045  -45.6726 H         1 UNK         0.0600 
    173 H173        4.3272  -13.0960  -44.9615 H         1 UNK         0.0600 
    174 H174        3.9050  -13.0914  -47.3630 H         1 UNK         0.3000 
    175 H175        3.5542  -12.8944  -49.7612 H         1 UNK         0.0600 
    176 H176        0.7985  -13.9910  -50.5020 H         1 UNK         0.0600 
    177 H177        1.7602  -12.8922  -51.4936 H         1 UNK         0.0600 
    178 H178        2.3308  -14.5250  -51.1766 H         1 UNK         0.0600 
    179 H179        0.8306  -12.0047  -49.0589 H         1 UNK         0.3000 
    180 H180        1.8664   -9.7564  -46.5625 H         1 UNK         0.0600 
    181 H181        0.8296   -9.0372  -49.3565 H         1 UNK         0.0600 
    182 H182        2.2811   -8.3793  -48.6109 H         1 UNK         0.0600 
    183 H183        0.7089   -8.0333  -47.9105 H         1 UNK         0.0600 
    184 H184       -0.6855  -10.0809  -47.6580 H         1 UNK         0.3000 
    185 H185       -2.1840  -10.9442  -45.9486 H         1 UNK         0.0600 
    186 H186       -2.2617  -11.8990  -48.2748 H         1 UNK         0.0600 
    187 H187       -1.8773  -13.4962  -47.6503 H         1 UNK         0.0600 
    188 H188       -3.4008  -12.7198  -47.2249 H         1 UNK         0.0600 
    189 H189       -0.9635  -13.3145  -44.8291 H         1 UNK         0.3000 
    190 H190       -1.5816  -23.0256  -43.1556 H         1 UNK         0.3000 
    191 H191       -3.5522  -24.7471  -41.9636 H         1 UNK         0.0600 
    192 H192       -1.8101  -23.5789  -40.6367 H         1 UNK         0.0600 
    193 H193       -1.6655  -25.3161  -40.4227 H         1 UNK         0.0600 
    194 H194       -0.5372  -24.4677  -41.4738 H         1 UNK         0.0600 
    195 H195       -1.1747  -25.2770  -44.4979 H         1 UNK         0.3000 
    196 H196       -1.2858  -28.2437  -44.2215 H         1 UNK         0.0600 
    197 H197        0.6547  -28.1730  -45.7654 H         1 UNK         0.0600 
    198 H198        0.9828  -27.2554  -44.3031 H         1 UNK         0.0600 
    199 H199        0.5996  -26.4162  -45.8033 H         1 UNK         0.0600 
    200 H200       -3.4654  -28.3174  -44.9373 H         1 UNK         0.3000 
    201 H201       -5.1215  -28.6907  -46.3775 H         1 UNK         0.0600 
    202 H202       -3.4643  -30.3780  -47.1768 H         1 UNK         0.0600 
    203 H203       -2.8541  -29.2314  -48.3689 H         1 UNK         0.0600 
    204 H204       -4.5020  -29.8348  -48.4844 H         1 UNK         0.0600 
    205 H205       -4.8607  -26.0383  -46.0349 H         1 UNK         0.3000 
    206 H206       -5.4587  -24.0284  -46.7578 H         1 UNK         0.0600 
    207 H207       -7.4931  -25.2519  -47.5468 H         1 UNK         0.0600 
    208 H208       -7.1447  -23.8345  -48.5207 H         1 UNK         0.0600 
    209 H209       -6.7613  -25.4341  -49.1407 H         1 UNK         0.0600 
    210 H210       -2.8276  -25.0298  -47.5453 H         1 UNK         0.3000 
    211 H211       -1.0039  -24.4497  -48.6121 H         1 UNK         0.0600 
    212 H212       -2.4667  -21.9846  -49.6956 H         1 UNK         0.0600 
    213 H213       -0.7311  -22.2099  -49.5961 H         1 UNK         0.0600 
    214 H214       -1.6738  -22.0605  -48.1310 H         1 UNK         0.0600 
    215 H215       -3.0654  -26.1377  -49.8964 H         1 UNK         0.3000 
    216 H216       -3.5178  -27.2753  -51.7312 H         1 UNK         0.0600 
    217 H217       -1.8146  -27.5885  -53.4896 H         1 UNK         0.0600 
    218 H218       -1.0611  -27.6551  -51.9040 H         1 UNK         0.0600 
    219 H219       -0.8904  -26.2143  -52.9047 H         1 UNK         0.0600 
    220 H220       -5.1056  -25.3949  -51.5117 H         1 UNK         0.3000 
    221 H221       -6.6632  -24.1278  -52.4182 H         1 UNK         0.0600 
    222 H222       -5.5055  -24.7269  -55.1898 H         1 UNK         0.0600 
    223 H223       -6.6998  -25.7112  -54.3450 H         1 UNK         0.0600 
    224 H224       -7.0926  -24.0699  -54.8317 H         1 UNK         0.0600 
    225 H225       -4.9511  -22.8035  -51.1439 H         1 UNK         0.3000 
    226 H226       -4.4308  -20.8206  -50.5452 H         1 UNK         0.0600 
    227 H227       -5.3147  -18.8076  -51.7120 H         1 UNK         0.0600 
    228 H228       -5.7226  -19.7759  -53.1169 H         1 UNK         0.0600 
    229 H229       -6.5384  -20.0593  -51.5794 H         1 UNK         0.0600 
    230 H230       -3.2771  -21.5941  -53.7475 H         1 UNK         0.3000 
    231 H231       -1.4281  -21.1798  -54.9105 H         1 UNK         0.0600 
    232 H232       -0.0851  -20.3748  -52.2759 H         1 UNK         0.0600 
    233 H233        0.7316  -20.8078  -53.7702 H         1 UNK         0.0600 
    234 H234       -0.2021  -22.0152  -52.9050 H         1 UNK         0.0600 
    235 H235       -3.4136  -19.1685  -54.5818 H         1 UNK         0.3000 
    236 H236       -4.0510  -17.2367  -55.3442 H         1 UNK         0.0600 
    237 H237       -2.6429  -17.7552  -57.3213 H         1 UNK         0.0600 
    238 H238       -2.7061  -16.0241  -57.0289 H         1 UNK         0.0600 
    239 H239       -1.2691  -16.9301  -56.5838 H         1 UNK         0.0600 
    240 H240       -0.9880  -16.9544  -53.6175 H         1 UNK         0.3000 
    241 H241       -0.0459  -15.4374  -52.3219 H         1 UNK         0.0600 
    242 H242       -0.2902  -11.8790  -53.9057 H         1 UNK         0.3800 
    243 H243       -1.0881  -12.3414  -52.4334 H         1 UNK         0.3800 
    244 H244       -1.4301  -13.6738  -51.0514 H         1 UNK         0.0800 
    245 H245       -2.8427  -14.2941  -51.8453 H         1 UNK         0.0800 
    246 H246       -4.2359  -15.1401  -50.1462 H         1 UNK         0.0800 
    247 H247       -4.0257  -16.6928  -50.9237 H         1 UNK         0.0800 
@<TRIPOS>BOND
     1    1    2 1    
     2    1  127 1    
     3    1  128 1    
     4    1  129 1    
     5    2    3 2    
     6    2    4 am   BACKBONE|DICT|INTERRES
     7    4    5 1    
     8    4  130 1    
     9    5    6 1    
    10    5   65 1    
    11    5  131 1    
    12    6    7 1    
    13    6  132 1    
    14    6  133 1    
    15    7    8 1    
    16    8    9 1    
    17    8  134 1    
    18    8  135 1    
    19    9   10 ar   
    20    9   14 ar   
    21   10   11 ar   
    22   10  136 1    
    23   11   12 ar   
    24   11  126 1    
    25   12   13 ar   
    26   12  137 1    
    27   13   14 ar   
    28   13   15 1    
    29   14  138 1    
    30   15   16 1    
    31   15  139 1    
    32   15  140 1    
    33   16   17 1    
    34   17   18 1    
    35   17  141 1    
    36   17  142 1    
    37   18   19 1    
    38   18   67 1    
    39   18  143 1    
    40   19   20 am   BACKBONE|DICT|INTERRES
    41   19  144 1    
    42   20   21 2    
    43   20   22 1    
    44   22   23 1    
    45   22   24 1    
    46   22  145 1    
    47   23  146 1    
    48   23  147 1    
    49   23  148 1    
    50   24   25 am   BACKBONE|DICT|INTERRES
    51   24  149 1    
    52   25   26 2    
    53   25   27 1    
    54   27   28 1    
    55   27   29 1    
    56   27  150 1    
    57   28  151 1    
    58   28  152 1    
    59   28  153 1    
    60   29   30 am   BACKBONE|DICT|INTERRES
    61   29  154 1    
    62   30   31 2    
    63   30   32 1    
    64   32   33 1    
    65   32   34 1    
    66   32  155 1    
    67   33  156 1    
    68   33  157 1    
    69   33  158 1    
    70   34   35 am   BACKBONE|DICT|INTERRES
    71   34  159 1    
    72   35   36 2    
    73   35   37 1    
    74   37   38 1    
    75   37   39 1    
    76   37  160 1    
    77   38  161 1    
    78   38  162 1    
    79   38  163 1    
    80   39   40 am   BACKBONE|DICT|INTERRES
    81   39  164 1    
    82   40   41 2    
    83   40   42 1    
    84   42   43 1    
    85   42   44 1    
    86   42  165 1    
    87   43  166 1    
    88   43  167 1    
    89   43  168 1    
    90   44   45 am   BACKBONE|DICT|INTERRES
    91   44  169 1    
    92   45   46 2    
    93   45   47 1    
    94   47   48 1    
    95   47   49 1    
    96   47  170 1    
    97   48  171 1    
    98   48  172 1    
    99   48  173 1    
   100   49   50 am   BACKBONE|DICT|INTERRES
   101   49  174 1    
   102   50   51 2    
   103   50   52 1    
   104   52   53 1    
   105   52   54 1    
   106   52  175 1    
   107   53  176 1    
   108   53  177 1    
   109   53  178 1    
   110   54   55 am   BACKBONE|DICT|INTERRES
   111   54  179 1    
   112   55   56 2    
   113   55   57 1    
   114   57   58 1    
   115   57   59 1    
   116   57  180 1    
   117   58  181 1    
   118   58  182 1    
   119   58  183 1    
   120   59   60 am   BACKBONE|DICT|INTERRES
   121   59  184 1    
   122   60   61 2    
   123   60   62 1    
   124   62   63 1    
   125   62   64 1    
   126   62  185 1    
   127   63  186 1    
   128   63  187 1    
   129   63  188 1    
   130   64   65 am   BACKBONE|DICT|INTERRES
   131   64  189 1    
   132   65   66 2    
   133   67   68 2    
   134   67   69 am   BACKBONE|DICT|INTERRES
   135   69   70 1    
   136   69  190 1    
   137   70   71 1    
   138   70   72 1    
   139   70  191 1    
   140   71  192 1    
   141   71  193 1    
   142   71  194 1    
   143   72   73 2    
   144   72   74 am   BACKBONE|DICT|INTERRES
   145   74   75 1    
   146   74  195 1    
   147   75   76 1    
   148   75   77 1    
   149   75  196 1    
   150   76  197 1    
   151   76  198 1    
   152   76  199 1    
   153   77   78 2    
   154   77   79 am   BACKBONE|DICT|INTERRES
   155   79   80 1    
   156   79  200 1    
   157   80   81 1    
   158   80   82 1    
   159   80  201 1    
   160   81  202 1    
   161   81  203 1    
   162   81  204 1    
   163   82   83 2    
   164   82   84 am   BACKBONE|DICT|INTERRES
   165   84   85 1    
   166   84  205 1    
   167   85   86 1    
   168   85   87 1    
   169   85  206 1    
   170   86  207 1    
   171   86  208 1    
   172   86  209 1    
   173   87   88 2    
   174   87   89 am   BACKBONE|DICT|INTERRES
   175   89   90 1    
   176   89  210 1    
   177   90   91 1    
   178   90   92 1    
   179   90  211 1    
   180   91  212 1    
   181   91  213 1    
   182   91  214 1    
   183   92   93 2    
   184   92   94 am   BACKBONE|DICT|INTERRES
   185   94   95 1    
   186   94  215 1    
   187   95   96 1    
   188   95   97 1    
   189   95  216 1    
   190   96  217 1    
   191   96  218 1    
   192   96  219 1    
   193   97   98 2    
   194   97   99 am   BACKBONE|DICT|INTERRES
   195   99  100 1    
   196   99  220 1    
   197  100  101 1    
   198  100  102 1    
   199  100  221 1    
   200  101  222 1    
   201  101  223 1    
   202  101  224 1    
   203  102  103 2    
   204  102  104 am   BACKBONE|DICT|INTERRES
   205  104  105 1    
   206  104  225 1    
   207  105  106 1    
   208  105  107 1    
   209  105  226 1    
   210  106  227 1    
   211  106  228 1    
   212  106  229 1    
   213  107  108 2    
   214  107  109 am   BACKBONE|DICT|INTERRES
   215  109  110 1    
   216  109  230 1    
   217  110  111 1    
   218  110  112 1    
   219  110  231 1    
   220  111  232 1    
   221  111  233 1    
   222  111  234 1    
   223  112  113 2    
   224  112  114 am   BACKBONE|DICT|INTERRES
   225  114  115 1    
   226  114  235 1    
   227  115  116 1    
   228  115  117 1    
   229  115  236 1    
   230  116  237 1    
   231  116  238 1    
   232  116  239 1    
   233  117  118 2    
   234  117  119 am   BACKBONE|DICT|INTERRES
   235  119  120 1    
   236  119  240 1    
   237  120  121 1    
   238  120  124 1    
   239  120  241 1    
   240  121  122 am   BACKBONE|DICT|INTERRES
   241  121  123 2    
   242  122  242 1    
   243  122  243 1    
   244  124  125 1    
   245  124  244 1    
   246  124  245 1    
   247  125  126 1    
   248  126  246 1    
   249  126  247 1    
@<TRIPOS>SUBSTRUCTURE
     1 UNK         1 GROUP             0       ****    0 ROOT    
