@<TRIPOS>MOLECULE
3R540
247   249    1
SMALL
USER_CHARGES


@<TRIPOS>ATOM
      1 CA         -0.8317   -9.3847  -46.8616 C.3       0 UNK        -0.1800 
      2 C          -0.3170  -10.6532  -46.1988 C.2       0 UNK         0.5000 
      3 O           0.0669  -10.6201  -45.0300 O.2       0 UNK        -0.5000 
      4 N          -0.3262  -11.7754  -46.9308 N.am      1 UNK        -0.5000 
      5 CA          0.1358  -13.1049  -46.5007 C.3       1 UNK         0.1400 
      6 C6          0.0336  -14.1682  -47.6270 C.3       23 UNK        -0.0398 
      7 S7         -1.5435  -14.1240  -48.5503 S.3       23 UNK        -0.2404 
      8 C8         -0.9870  -14.5048  -50.2408 C.3       23 UNK        -0.0205 
      9 C9         -0.9604  -16.0035  -50.4981 C.ar      23 UNK        -0.0193 
     10 C10        -2.1143  -16.6396  -50.9606 C.ar      23 UNK        -0.1150 
     11 C11        -2.1107  -18.0086  -51.2310 C.ar      23 UNK        -0.0193 
     12 C12        -0.9371  -18.7413  -51.0430 C.ar      23 UNK        -0.1150 
     13 C13         0.2251  -18.1260  -50.5667 C.ar      23 UNK        -0.0193 
     14 C14         0.2051  -16.7518  -50.2967 C.ar      23 UNK        -0.1150 
     15 C15         1.5180  -18.9216  -50.3915 C.3       23 UNK        -0.0205 
     16 S16         1.2979  -20.5907  -49.6759 S.3       23 UNK        -0.2404 
     17 C17         0.8814  -20.2102  -47.9445 C.3       23 UNK        -0.0398 
     18 CA         -0.3670  -20.9672  -47.4220 C.3       11 UNK         0.1400 
     19 N          -0.4004  -20.9883  -45.9540 N.am      11 UNK        -0.5000 
     20 C          -1.3130  -21.6228  -45.2030 C.2       10 UNK         0.5000 
     21 O          -2.2005  -22.3364  -45.6636 O.2       10 UNK        -0.5000 
     22 CA         -1.2728  -21.3689  -43.6852 C.3       10 UNK         0.1400 
     23 CB         -0.2324  -22.2672  -43.0009 C.3       10 UNK        -0.1800 
     24 N          -1.0176  -19.9644  -43.3635 N.am      10 UNK        -0.5000 
     25 C          -1.8434  -18.9557  -43.6788 C.2       9 UNK         0.5000 
     26 O          -2.9460  -19.1188  -44.1996 O.2       9 UNK        -0.5000 
     27 CA         -1.3335  -17.5258  -43.4252 C.3       9 UNK         0.1400 
     28 CB         -1.5677  -17.1027  -41.9684 C.3       9 UNK        -0.1800 
     29 N           0.0805  -17.3736  -43.7618 N.am      9 UNK        -0.5000 
     30 C           0.5763  -17.4704  -45.0026 C.2       8 UNK         0.5000 
     31 O          -0.1237  -17.6359  -46.0012 O.2       8 UNK        -0.5000 
     32 CA          2.1104  -17.4567  -45.1458 C.3       8 UNK         0.1400 
     33 CB          2.6776  -16.0316  -45.2109 C.3       8 UNK        -0.1800 
     34 N           2.7639  -18.1871  -44.0611 N.am      8 UNK        -0.5000 
     35 C           2.7361  -19.5193  -43.9266 C.2       7 UNK         0.5000 
     36 O           2.1884  -20.2730  -44.7303 O.2       7 UNK        -0.5000 
     37 CA          3.3986  -20.0991  -42.6635 C.3       7 UNK         0.1400 
     38 CB          4.9085  -20.2789  -42.8794 C.3       7 UNK        -0.1800 
     39 N           3.1736  -19.2656  -41.4808 N.am      7 UNK        -0.5000 
     40 C           1.9814  -19.0958  -40.8911 C.2       6 UNK         0.5000 
     41 O           0.9522  -19.6584  -41.2608 O.2       6 UNK        -0.5000 
     42 CA          1.9211  -18.0884  -39.7272 C.3       6 UNK         0.1400 
     43 CB          2.3020  -18.7669  -38.4031 C.3       6 UNK        -0.1800 
     44 N           2.7786  -16.9190  -39.9424 N.am      6 UNK        -0.5000 
     45 C           2.6087  -16.0341  -40.9327 C.2       5 UNK         0.5000 
     46 O           1.6972  -16.0999  -41.7594 O.2       5 UNK        -0.5000 
     47 CA          3.6709  -14.9388  -41.0625 C.3       5 UNK         0.1400 
     48 CB          4.9231  -15.5025  -41.7658 C.3       5 UNK        -0.1800 
     49 N           3.1162  -13.8253  -41.8269 N.am      5 UNK        -0.5000 
     50 C           3.6706  -12.6131  -41.9342 C.2       4 UNK         0.5000 
     51 O           4.7137  -12.2831  -41.3675 O.2       4 UNK        -0.5000 
     52 CA          2.9456  -11.5930  -42.8293 C.3       4 UNK         0.1400 
     53 CB          3.2494  -11.8772  -44.3086 C.3       4 UNK        -0.1800 
     54 N           1.4953  -11.5343  -42.6350 N.am      4 UNK        -0.5000 
     55 C           0.8750  -11.1944  -41.4954 C.2       3 UNK         0.5000 
     56 O           1.4625  -10.9884  -40.4328 O.2       3 UNK        -0.5000 
     57 CA         -0.6541  -11.0169  -41.5454 C.3       3 UNK         0.1400 
     58 CB         -1.0068   -9.5315  -41.7235 C.3       3 UNK        -0.1800 
     59 N          -1.2699  -11.7739  -42.6358 N.am      3 UNK        -0.5000 
     60 C          -1.9852  -12.8960  -42.4781 C.2       2 UNK         0.5000 
     61 O          -2.2277  -13.4024  -41.3821 O.2       2 UNK        -0.5000 
     62 CA         -2.5366  -13.5738  -43.7514 C.3       2 UNK         0.1400 
     63 CB         -4.0108  -13.2004  -43.9664 C.3       2 UNK        -0.1800 
     64 N          -1.7896  -13.2665  -44.9726 N.am      2 UNK        -0.5000 
     65 C          -0.5107  -13.6008  -45.1897 C.2       1 UNK         0.5000 
     66 O           0.1776  -14.2122  -44.3760 O.2       1 UNK        -0.5000 
     67 C          -1.6777  -20.4019  -48.0127 C.2       11 UNK         0.5000 
     68 O          -2.2812  -21.0332  -48.8841 O.2       11 UNK        -0.5000 
     69 N          -2.1145  -19.2522  -47.4765 N.am      12 UNK        -0.5000 
     70 CA         -3.3616  -18.5794  -47.8343 C.3       12 UNK         0.1400 
     71 CB         -3.4286  -17.2145  -47.1332 C.3       12 UNK        -0.1800 
     72 C          -4.6151  -19.4216  -47.5400 C.2       12 UNK         0.5000 
     73 O          -5.5273  -19.4594  -48.3664 O.2       12 UNK        -0.5000 
     74 N          -4.6305  -20.0877  -46.3786 N.am      13 UNK        -0.5000 
     75 CA         -5.7146  -20.9636  -45.9400 C.3       13 UNK         0.1400 
     76 CB         -5.5562  -21.2501  -44.4389 C.3       13 UNK        -0.1800 
     77 C          -5.7976  -22.2807  -46.7344 C.2       13 UNK         0.5000 
     78 O          -6.9052  -22.7537  -46.9928 O.2       13 UNK        -0.5000 
     79 N          -4.6396  -22.8617  -47.0797 N.am      14 UNK        -0.5000 
     80 CA         -4.5269  -24.1609  -47.7430 C.3       14 UNK         0.1400 
     81 CB         -3.0651  -24.6347  -47.7260 C.3       14 UNK        -0.1800 
     82 C          -5.0827  -24.1721  -49.1761 C.2       14 UNK         0.5000 
     83 O          -5.8586  -25.0710  -49.5058 O.2       14 UNK        -0.5000 
     84 N          -4.6768  -23.1827  -49.9894 N.am      15 UNK        -0.5000 
     85 CA         -5.0025  -23.0507  -51.4167 C.3       15 UNK         0.1400 
     86 CB         -6.4891  -22.6620  -51.5882 C.3       15 UNK        -0.1800 
     87 C          -4.5721  -24.3065  -52.2179 C.2       15 UNK         0.5000 
     88 O          -3.4796  -24.8277  -51.9733 O.2       15 UNK        -0.5000 
     89 N          -5.4332  -24.7790  -53.1314 N.am      16 UNK        -0.5000 
     90 CA         -5.3507  -26.0443  -53.8684 C.3       16 UNK         0.1400 
     91 CB         -5.7251  -27.2089  -52.9238 C.3       16 UNK        -0.1800 
     92 C          -4.0034  -26.2379  -54.5995 C.2       16 UNK         0.5000 
     93 O          -3.5864  -25.3501  -55.3431 O.2       16 UNK        -0.5000 
     94 N          -3.3457  -27.3831  -54.3848 N.am      17 UNK        -0.5000 
     95 CA         -2.0199  -27.6962  -54.9195 C.3       17 UNK         0.1400 
     96 CB         -1.9357  -29.2128  -55.1554 C.3       17 UNK        -0.1800 
     97 C          -0.8789  -27.2327  -53.9913 C.2       17 UNK         0.5000 
     98 O           0.2786  -27.2588  -54.4100 O.2       17 UNK        -0.5000 
     99 N          -1.2045  -26.8440  -52.7501 N.am      18 UNK        -0.5000 
    100 CA        -0.2363  -26.4239  -51.7372 C.3       18 UNK         0.1400 
    101 CB        -0.8654  -26.5657  -50.3426 C.3       18 UNK        -0.1800 
    102 C          0.2603  -24.9870  -51.9656 C.2       18 UNK         0.5000 
    103 O          1.4523  -24.7263  -51.8017 O.2       18 UNK        -0.5000 
    104 N         -0.6652  -24.0902  -52.3304 N.am      19 UNK        -0.5000 
    105 CA        -0.4121  -22.6729  -52.5876 C.3       19 UNK         0.1400 
    106 CB        -1.7385  -21.9174  -52.7428 C.3       19 UNK        -0.1800 
    107 C          0.5933  -22.3784  -53.7267 C.2       19 UNK         0.5000 
    108 O          1.5823  -21.6951  -53.4662 O.2       19 UNK        -0.5000 
    109 N          0.4258  -22.8846  -54.9581 N.am      20 UNK        -0.5000 
    110 CA        -0.7631  -23.5060  -55.5420 C.3       20 UNK         0.1400 
    111 CB        -0.3031  -24.4562  -56.6600 C.3       20 UNK        -0.1800 
    112 C         -1.7277  -22.4419  -56.1039 C.2       20 UNK         0.5000 
    113 O         -1.3671  -21.2670  -56.2040 O.2       20 UNK        -0.5000 
    114 N         -2.9312  -22.8968  -56.4676 N.am      21 UNK        -0.5000 
    115 CA        -4.0870  -22.1317  -56.9339 C.3       21 UNK         0.1400 
    116 CB        -3.7567  -21.2348  -58.1501 C.3       21 UNK        -0.1800 
    117 C         -4.7825  -21.4210  -55.7576 C.2       21 UNK         0.5000 
    118 O         -5.0503  -22.0745  -54.7491 O.2       21 UNK        -0.5000 
    119 N         -5.1111  -20.1325  -55.9171 N.am      22 UNK        -0.5000 
    120 CA        -5.9200  -19.3167  -54.9885 C.3       22 UNK         0.1400 
    121 C         -7.4411  -19.6698  -54.9817 C.2       22 UNK         0.5000 
    122 N         -7.9495  -20.4491  -55.9288 N.am      22 UNK        -0.7600 
    123 O         -8.1865  -19.2047  -54.1236 O.2       22 UNK        -0.5000 
    124 C124       -5.3430  -19.2287  -53.5461 C.3       23 UNK        -0.0398 
    125 S125       -3.6301  -18.6126  -53.4692 S.3       23 UNK        -0.2404 
    126 C126       -3.3921  -18.6964  -51.6707 C.3       23 UNK        -0.0205 
    127 H127       -0.0481   -8.6273  -46.8776 H         1 UNK         0.0600 
    128 H128       -1.6794   -8.9882  -46.3028 H         1 UNK         0.0600 
    129 H129       -1.1533   -9.5648  -47.8877 H         1 UNK         0.0600 
    130 H130       -0.6854  -11.7400  -47.8747 H         1 UNK         0.3000 
    131 H131        1.1971  -12.9888  -46.2765 H         1 UNK         0.0600 
    132 H132        0.1802  -15.1794  -47.2439 H         1 UNK         0.0800 
    133 H133        0.8542  -14.0046  -48.3259 H         1 UNK         0.0800 
    134 H134       -0.0104  -14.0617  -50.4396 H         1 UNK         0.0800 
    135 H135       -1.6736  -14.0296  -50.9431 H         1 UNK         0.0800 
    136 H136       -3.0207  -16.0683  -51.1046 H         1 UNK         0.1150 
    137 H137       -0.9321  -19.7999  -51.2468 H         1 UNK         0.1150 
    138 H138        1.0996  -16.2597  -49.9421 H         1 UNK         0.1150 
    139 H139        1.9810  -19.0311  -51.3730 H         1 UNK         0.0800 
    140 H140        2.2299  -18.3686  -49.7767 H         1 UNK         0.0800 
    141 H141        0.7683  -19.1333  -47.8263 H         1 UNK         0.0800 
    142 H142        1.7548  -20.4846  -47.3523 H         1 UNK         0.0800 
    143 H143       -0.2903  -22.0091  -47.7404 H         1 UNK         0.0600 
    144 H144        0.3324  -20.4710  -45.4801 H         1 UNK         0.3000 
    145 H145       -2.2538  -21.6267  -43.2811 H         1 UNK         0.0600 
    146 H146       -0.2491  -22.1354  -41.9189 H         1 UNK         0.0600 
    147 H147        0.7782  -22.0557  -43.3480 H         1 UNK         0.0600 
    148 H148       -0.4344  -23.3197  -43.2033 H         1 UNK         0.0600 
    149 H149       -0.1605  -19.7584  -42.8595 H         1 UNK         0.3000 
    150 H150       -1.9008  -16.8552  -44.0727 H         1 UNK         0.0600 
    151 H151       -2.6286  -17.1365  -41.7184 H         1 UNK         0.0600 
    152 H152       -1.2230  -16.0830  -41.7948 H         1 UNK         0.0600 
    153 H153       -1.0434  -17.7545  -41.2699 H         1 UNK         0.0600 
    154 H154        0.7102  -17.1367  -43.0003 H         1 UNK         0.3000 
    155 H155        2.3553  -17.9533  -46.0871 H         1 UNK         0.0600 
    156 H156        3.7534  -16.0440  -45.3861 H         1 UNK         0.0600 
    157 H157        2.2255  -15.4664  -46.0247 H         1 UNK         0.0600 
    158 H158        2.4980  -15.4825  -44.2872 H         1 UNK         0.0600 
    159 H159        3.1907  -17.6353  -43.3334 H         1 UNK         0.3000 
    160 H160        2.9606  -21.0820  -42.4777 H         1 UNK         0.0600 
    161 H161        5.3753  -20.7573  -42.0183 H         1 UNK         0.0600 
    162 H162        5.4099  -19.3248  -43.0468 H         1 UNK         0.0600 
    163 H163        5.1056  -20.9103  -43.7469 H         1 UNK         0.0600 
    164 H164        3.9713  -18.7721  -41.1089 H         1 UNK         0.3000 
    165 H165        0.8900  -17.7382  -39.6462 H         1 UNK         0.0600 
    166 H166        2.1833  -18.0839  -37.5617 H         1 UNK         0.0600 
    167 H167        1.6647  -19.6311  -38.2106 H         1 UNK         0.0600 
    168 H168        3.3353  -19.1159  -38.4100 H         1 UNK         0.0600 
    169 H169        3.5539  -16.8042  -39.3053 H         1 UNK         0.3000 
    170 H170        3.9317  -14.5883  -40.0618 H         1 UNK         0.0600 
    171 H171        4.7036  -15.8141  -42.7875 H         1 UNK         0.0600 
    172 H172        5.7245  -14.7653  -41.8097 H         1 UNK         0.0600 
    173 H173        5.3200  -16.3687  -41.2353 H         1 UNK         0.0600 
    174 H174        2.2372  -14.0257  -42.2912 H         1 UNK         0.3000 
    175 H175        3.3426  -10.6048  -42.5886 H         1 UNK         0.0600 
    176 H176        2.8679  -12.8517  -44.6141 H         1 UNK         0.0600 
    177 H177        2.8079  -11.1213  -44.9580 H         1 UNK         0.0600 
    178 H178        4.3244  -11.8751  -44.4935 H         1 UNK         0.0600 
    179 H179        0.9329  -11.6157  -43.4731 H         1 UNK         0.3000 
    180 H180       -1.0505  -11.3418  -40.5814 H         1 UNK         0.0600 
    181 H181       -2.0859   -9.3785  -41.7045 H         1 UNK         0.0600 
    182 H182       -0.6292   -9.1384  -42.6684 H         1 UNK         0.0600 
    183 H183       -0.5791   -8.9282  -40.9217 H         1 UNK         0.0600 
    184 H184       -1.0891  -11.4330  -43.5736 H         1 UNK         0.3000 
    185 H185       -2.4811  -14.6507  -43.5907 H         1 UNK         0.0600 
    186 H186       -4.1307  -12.1337  -44.1599 H         1 UNK         0.0600 
    187 H187       -4.4373  -13.7461  -44.8084 H         1 UNK         0.0600 
    188 H188       -4.6085  -13.4441  -43.0870 H         1 UNK         0.0600 
    189 H189       -2.2766  -12.7472  -45.6885 H         1 UNK         0.3000 
    190 H190       -1.5312  -18.7847  -46.7890 H         1 UNK         0.3000 
    191 H191       -3.3384  -18.3997  -48.9054 H         1 UNK         0.0600 
    192 H192       -2.5384  -16.6232  -47.3447 H         1 UNK         0.0600 
    193 H193       -3.5103  -17.3147  -46.0515 H         1 UNK         0.0600 
    194 H194       -4.2908  -16.6421  -47.4766 H         1 UNK         0.0600 
    195 H195       -3.8635  -19.9479  -45.7274 H         1 UNK         0.3000 
    196 H196       -6.6571  -20.4309  -46.0831 H         1 UNK         0.0600 
    197 H197       -5.5722  -20.3279  -43.8577 H         1 UNK         0.0600 
    198 H198       -4.6182  -21.7635  -44.2250 H         1 UNK         0.0600 
    199 H199       -6.3675  -21.8803  -44.0727 H         1 UNK         0.0600 
    200 H200       -3.7692  -22.4377  -46.7701 H         1 UNK         0.3000 
    201 H201       -5.1113  -24.8763  -47.1606 H         1 UNK         0.0600 
    202 H202       -2.7012  -24.7535  -46.7056 H         1 UNK         0.0600 
    203 H203       -2.4055  -23.9336  -48.2394 H         1 UNK         0.0600 
    204 H204       -2.9659  -25.6041  -48.2148 H         1 UNK         0.0600 
    205 H205       -4.0179  -22.5083  -49.6193 H         1 UNK         0.3000 
    206 H206       -4.4116  -22.2201  -51.7980 H         1 UNK         0.0600 
    207 H207       -7.1609  -23.4663  -51.2867 H         1 UNK         0.0600 
    208 H208       -6.7321  -21.7864  -50.9857 H         1 UNK         0.0600 
    209 H209       -6.7185  -22.4056  -52.6228 H         1 UNK         0.0600 
    210 H210       -6.2576  -24.2263  -53.3161 H         1 UNK         0.3000 
    211 H211       -6.1098  -25.9939  -54.6500 H         1 UNK         0.0600 
    212 H212       -5.0058  -27.3236  -52.1117 H         1 UNK         0.0600 
    213 H213       -5.7875  -28.1566  -53.4601 H         1 UNK         0.0600 
    214 H214       -6.7017  -27.0395  -52.4698 H         1 UNK         0.0600 
    215 H215       -3.7584  -28.0700  -53.7702 H         1 UNK         0.3000 
    216 H216       -1.8836  -27.1973  -55.8813 H         1 UNK         0.0600 
    217 H217       -0.9738  -29.4894  -55.5892 H         1 UNK         0.0600 
    218 H218       -2.7094  -29.5474  -55.8467 H         1 UNK         0.0600 
    219 H219       -2.0499  -29.7724  -54.2262 H         1 UNK         0.0600 
    220 H220       -2.1809  -26.7815  -52.4969 H         1 UNK         0.3000 
    221 H221        0.6292  -27.0886  -51.7831 H         1 UNK         0.0600 
    222 H222       -1.7514  -25.9398  -50.2375 H         1 UNK         0.0600 
    223 H223       -1.1579  -27.5968  -50.1441 H         1 UNK         0.0600 
    224 H224       -0.1613  -26.2707  -49.5636 H         1 UNK         0.0600 
    225 H225       -1.6328  -24.3973  -52.3746 H         1 UNK         0.3000 
    226 H226        0.0524  -22.2842  -51.6806 H         1 UNK         0.0600 
    227 H227       -2.4539  -22.4531  -53.3645 H         1 UNK         0.0600 
    228 H228       -2.1952  -21.7691  -51.7656 H         1 UNK         0.0600 
    229 H229       -1.5899  -20.9329  -53.1879 H         1 UNK         0.0600 
    230 H230        1.1325  -22.6480  -55.6374 H         1 UNK         0.3000 
    231 H231       -1.2943  -24.0954  -54.7976 H         1 UNK         0.0600 
    232 H232       -1.1460  -25.0020  -57.0856 H         1 UNK         0.0600 
    233 H233        0.4017  -25.1972  -56.2827 H         1 UNK         0.0600 
    234 H234        0.1833  -23.9167  -57.4737 H         1 UNK         0.0600 
    235 H235       -3.1477  -23.8652  -56.2307 H         1 UNK         0.3000 
    236 H236       -4.8013  -22.8797  -57.2806 H         1 UNK         0.0600 
    237 H237       -3.1210  -20.3895  -57.8861 H         1 UNK         0.0600 
    238 H238       -3.2440  -21.8042  -58.9255 H         1 UNK         0.0600 
    239 H239       -4.6663  -20.8347  -58.5994 H         1 UNK         0.0600 
    240 H240       -4.8421  -19.6739  -56.7753 H         1 UNK         0.3000 
    241 H241       -5.8843  -18.3077  -55.4003 H         1 UNK         0.0600 
    242 H242       -7.3644  -20.8264  -56.6559 H         1 UNK         0.3800 
    243 H243       -8.9355  -20.6584  -55.9198 H         1 UNK         0.3800 
    244 H244       -5.3930  -20.1963  -53.0472 H         1 UNK         0.0800 
    245 H245       -5.9510  -18.5521  -52.9432 H         1 UNK         0.0800 
    246 H246       -4.2424  -18.2272  -51.1732 H         1 UNK         0.0800 
    247 H247       -3.3922  -19.7382  -51.3478 H         1 UNK         0.0800 
@<TRIPOS>BOND
     1    1    2 1    
     2    1  127 1    
     3    1  128 1    
     4    1  129 1    
     5    2    3 2    
     6    2    4 am   BACKBONE|DICT|INTERRES
     7    4    5 1    
     8    4  130 1    
     9    5    6 1    
    10    5   65 1    
    11    5  131 1    
    12    6    7 1    
    13    6  132 1    
    14    6  133 1    
    15    7    8 1    
    16    8    9 1    
    17    8  134 1    
    18    8  135 1    
    19    9   10 ar   
    20    9   14 ar   
    21   10   11 ar   
    22   10  136 1    
    23   11   12 ar   
    24   11  126 1    
    25   12   13 ar   
    26   12  137 1    
    27   13   14 ar   
    28   13   15 1    
    29   14  138 1    
    30   15   16 1    
    31   15  139 1    
    32   15  140 1    
    33   16   17 1    
    34   17   18 1    
    35   17  141 1    
    36   17  142 1    
    37   18   19 1    
    38   18   67 1    
    39   18  143 1    
    40   19   20 am   BACKBONE|DICT|INTERRES
    41   19  144 1    
    42   20   21 2    
    43   20   22 1    
    44   22   23 1    
    45   22   24 1    
    46   22  145 1    
    47   23  146 1    
    48   23  147 1    
    49   23  148 1    
    50   24   25 am   BACKBONE|DICT|INTERRES
    51   24  149 1    
    52   25   26 2    
    53   25   27 1    
    54   27   28 1    
    55   27   29 1    
    56   27  150 1    
    57   28  151 1    
    58   28  152 1    
    59   28  153 1    
    60   29   30 am   BACKBONE|DICT|INTERRES
    61   29  154 1    
    62   30   31 2    
    63   30   32 1    
    64   32   33 1    
    65   32   34 1    
    66   32  155 1    
    67   33  156 1    
    68   33  157 1    
    69   33  158 1    
    70   34   35 am   BACKBONE|DICT|INTERRES
    71   34  159 1    
    72   35   36 2    
    73   35   37 1    
    74   37   38 1    
    75   37   39 1    
    76   37  160 1    
    77   38  161 1    
    78   38  162 1    
    79   38  163 1    
    80   39   40 am   BACKBONE|DICT|INTERRES
    81   39  164 1    
    82   40   41 2    
    83   40   42 1    
    84   42   43 1    
    85   42   44 1    
    86   42  165 1    
    87   43  166 1    
    88   43  167 1    
    89   43  168 1    
    90   44   45 am   BACKBONE|DICT|INTERRES
    91   44  169 1    
    92   45   46 2    
    93   45   47 1    
    94   47   48 1    
    95   47   49 1    
    96   47  170 1    
    97   48  171 1    
    98   48  172 1    
    99   48  173 1    
   100   49   50 am   BACKBONE|DICT|INTERRES
   101   49  174 1    
   102   50   51 2    
   103   50   52 1    
   104   52   53 1    
   105   52   54 1    
   106   52  175 1    
   107   53  176 1    
   108   53  177 1    
   109   53  178 1    
   110   54   55 am   BACKBONE|DICT|INTERRES
   111   54  179 1    
   112   55   56 2    
   113   55   57 1    
   114   57   58 1    
   115   57   59 1    
   116   57  180 1    
   117   58  181 1    
   118   58  182 1    
   119   58  183 1    
   120   59   60 am   BACKBONE|DICT|INTERRES
   121   59  184 1    
   122   60   61 2    
   123   60   62 1    
   124   62   63 1    
   125   62   64 1    
   126   62  185 1    
   127   63  186 1    
   128   63  187 1    
   129   63  188 1    
   130   64   65 am   BACKBONE|DICT|INTERRES
   131   64  189 1    
   132   65   66 2    
   133   67   68 2    
   134   67   69 am   BACKBONE|DICT|INTERRES
   135   69   70 1    
   136   69  190 1    
   137   70   71 1    
   138   70   72 1    
   139   70  191 1    
   140   71  192 1    
   141   71  193 1    
   142   71  194 1    
   143   72   73 2    
   144   72   74 am   BACKBONE|DICT|INTERRES
   145   74   75 1    
   146   74  195 1    
   147   75   76 1    
   148   75   77 1    
   149   75  196 1    
   150   76  197 1    
   151   76  198 1    
   152   76  199 1    
   153   77   78 2    
   154   77   79 am   BACKBONE|DICT|INTERRES
   155   79   80 1    
   156   79  200 1    
   157   80   81 1    
   158   80   82 1    
   159   80  201 1    
   160   81  202 1    
   161   81  203 1    
   162   81  204 1    
   163   82   83 2    
   164   82   84 am   BACKBONE|DICT|INTERRES
   165   84   85 1    
   166   84  205 1    
   167   85   86 1    
   168   85   87 1    
   169   85  206 1    
   170   86  207 1    
   171   86  208 1    
   172   86  209 1    
   173   87   88 2    
   174   87   89 am   BACKBONE|DICT|INTERRES
   175   89   90 1    
   176   89  210 1    
   177   90   91 1    
   178   90   92 1    
   179   90  211 1    
   180   91  212 1    
   181   91  213 1    
   182   91  214 1    
   183   92   93 2    
   184   92   94 am   BACKBONE|DICT|INTERRES
   185   94   95 1    
   186   94  215 1    
   187   95   96 1    
   188   95   97 1    
   189   95  216 1    
   190   96  217 1    
   191   96  218 1    
   192   96  219 1    
   193   97   98 2    
   194   97   99 am   BACKBONE|DICT|INTERRES
   195   99  100 1    
   196   99  220 1    
   197  100  101 1    
   198  100  102 1    
   199  100  221 1    
   200  101  222 1    
   201  101  223 1    
   202  101  224 1    
   203  102  103 2    
   204  102  104 am   BACKBONE|DICT|INTERRES
   205  104  105 1    
   206  104  225 1    
   207  105  106 1    
   208  105  107 1    
   209  105  226 1    
   210  106  227 1    
   211  106  228 1    
   212  106  229 1    
   213  107  108 2    
   214  107  109 am   BACKBONE|DICT|INTERRES
   215  109  110 1    
   216  109  230 1    
   217  110  111 1    
   218  110  112 1    
   219  110  231 1    
   220  111  232 1    
   221  111  233 1    
   222  111  234 1    
   223  112  113 2    
   224  112  114 am   BACKBONE|DICT|INTERRES
   225  114  115 1    
   226  114  235 1    
   227  115  116 1    
   228  115  117 1    
   229  115  236 1    
   230  116  237 1    
   231  116  238 1    
   232  116  239 1    
   233  117  118 2    
   234  117  119 am   BACKBONE|DICT|INTERRES
   235  119  120 1    
   236  119  240 1    
   237  120  121 1    
   238  120  124 1    
   239  120  241 1    
   240  121  122 am   BACKBONE|DICT|INTERRES
   241  121  123 2    
   242  122  242 1    
   243  122  243 1    
   244  124  125 1    
   245  124  244 1    
   246  124  245 1    
   247  125  126 1    
   248  126  246 1    
   249  126  247 1    
@<TRIPOS>SUBSTRUCTURE
     1 UNK         1 GROUP             0       ****    0 ROOT    
