@<TRIPOS>MOLECULE
3R540
247   249    1
SMALL
USER_CHARGES


@<TRIPOS>ATOM
      1 CA          1.6535  -10.0292  -49.0292 C.3       0 UNK        -0.1800 
      2 C           1.4774  -11.3897  -48.3702 C.2       0 UNK         0.5000 
      3 O           0.3407  -11.8223  -48.1840 O.2       0 UNK        -0.5000 
      4 N           2.6005  -12.0351  -48.0183 N.am      1 UNK        -0.5000 
      5 CA          2.7743  -13.3452  -47.3699 C.3       1 UNK         0.1400 
      6 C6          3.0213  -14.5208  -48.3635 C.3       23 UNK        -0.0398 
      7 S7          1.6698  -14.9147  -49.5290 S.3       23 UNK        -0.2404 
      8 C8          1.0618  -16.5098  -48.8874 C.3       23 UNK        -0.0205 
      9 C9          1.8142  -17.7104  -49.4433 C.ar      23 UNK        -0.0193 
     10 C10         1.4871  -18.2049  -50.7078 C.ar      23 UNK        -0.1150 
     11 C11         2.0966  -19.3619  -51.2009 C.ar      23 UNK        -0.0193 
     12 C12         3.0636  -20.0097  -50.4268 C.ar      23 UNK        -0.1150 
     13 C13         3.4177  -19.5161  -49.1683 C.ar      23 UNK        -0.0193 
     14 C14         2.7865  -18.3662  -48.6802 C.ar      23 UNK        -0.1150 
     15 C15         4.5011  -20.2156  -48.3558 C.3       23 UNK        -0.0205 
     16 S16         3.9708  -21.8361  -47.7055 S.3       23 UNK        -0.2404 
     17 C17         2.8079  -21.3316  -46.3952 C.3       23 UNK        -0.0398 
     18 CA          1.5227  -22.1893  -46.3034 C.3       11 UNK         0.1400 
     19 N           0.7672  -21.8777  -45.0842 N.am      11 UNK        -0.5000 
     20 C          -0.3208  -22.5304  -44.6500 C.2       10 UNK         0.5000 
     21 O          -0.7785  -23.5332  -45.1961 O.2       10 UNK        -0.5000 
     22 CA         -1.0520  -21.9310  -43.4312 C.3       10 UNK         0.1400 
     23 CB         -0.4153  -22.4005  -42.1151 C.3       10 UNK        -0.1800 
     24 N          -1.0978  -20.4676  -43.4664 N.am      10 UNK        -0.5000 
     25 C          -1.7436  -19.7532  -44.3997 C.2       9 UNK         0.5000 
     26 O          -2.4377  -20.2562  -45.2819 O.2       9 UNK        -0.5000 
     27 CA         -1.5138  -18.2309  -44.3977 C.3       9 UNK         0.1400 
     28 CB         -2.4394  -17.5155  -43.4034 C.3       9 UNK        -0.1800 
     29 N          -0.1152  -17.8914  -44.1254 N.am      9 UNK        -0.5000 
     30 C           0.8906  -18.1788  -44.9634 C.2       8 UNK         0.5000 
     31 O           0.7141  -18.6496  -46.0854 O.2       8 UNK        -0.5000 
     32 CA          2.3283  -17.9668  -44.4526 C.3       8 UNK         0.1400 
     33 CB          2.8559  -16.5773  -44.8081 C.3       8 UNK        -0.1800 
     34 N           2.4393  -18.1691  -43.0123 N.am      8 UNK        -0.5000 
     35 C           2.4374  -19.3716  -42.4238 C.2       7 UNK         0.5000 
     36 O           2.3982  -20.4320  -43.0467 O.2       7 UNK        -0.5000 
     37 CA          2.4241  -19.3815  -40.8838 C.3       7 UNK         0.1400 
     38 CB          3.8550  -19.3130  -40.3307 C.3       7 UNK        -0.1800 
     39 N           1.6356  -18.2780  -40.3289 N.am      7 UNK        -0.5000 
     40 C           0.3099  -18.1469  -40.4819 C.2       6 UNK         0.5000 
     41 O          -0.3908  -18.9858  -41.0465 O.2       6 UNK        -0.5000 
     42 CA         -0.3293  -16.8420  -39.9698 C.3       6 UNK         0.1400 
     43 CB         -0.8314  -17.0188  -38.5295 C.3       6 UNK        -0.1800 
     44 N           0.5833  -15.6963  -40.0288 N.am      6 UNK        -0.5000 
     45 C           1.0180  -15.1223  -41.1588 C.2       5 UNK         0.5000 
     46 O           0.6876  -15.4914  -42.2870 O.2       5 UNK        -0.5000 
     47 CA          2.0628  -14.0129  -40.9896 C.3       5 UNK         0.1400 
     48 CB          3.4811  -14.5887  -41.1516 C.3       5 UNK        -0.1800 
     49 N           1.8600  -12.9349  -41.9570 N.am      5 UNK        -0.5000 
     50 C           2.1877  -11.6559  -41.7208 C.2       4 UNK         0.5000 
     51 O           2.6406  -11.2627  -40.6443 O.2       4 UNK        -0.5000 
     52 CA          2.0014  -10.6305  -42.8524 C.3       4 UNK         0.1400 
     53 CB          3.3049  -10.4759  -43.6529 C.3       4 UNK        -0.1800 
     54 N           0.9200  -10.9836  -43.7696 N.am      4 UNK        -0.5000 
     55 C          -0.3143  -10.4614  -43.7298 C.2       3 UNK         0.5000 
     56 O          -0.6879   -9.6615  -42.8707 O.2       3 UNK        -0.5000 
     57 CA         -1.2994  -10.8730  -44.8439 C.3       3 UNK         0.1400 
     58 CB         -1.3769   -9.7775  -45.9183 C.3       3 UNK        -0.1800 
     59 N          -0.9451  -12.1374  -45.4861 N.am      3 UNK        -0.5000 
     60 C          -1.0831  -13.3393  -44.9113 C.2       2 UNK         0.5000 
     61 O          -1.6218  -13.5132  -43.8185 O.2       2 UNK        -0.5000 
     62 CA         -0.4998  -14.5451  -45.6714 C.3       2 UNK         0.1400 
     63 CB         -1.5998  -15.2423  -46.4859 C.3       2 UNK        -0.1800 
     64 N           0.6059  -14.2097  -46.5720 N.am      2 UNK        -0.5000 
     65 C           1.7668  -13.6366  -46.2332 C.2       1 UNK         0.5000 
     66 O           2.0443  -13.3082  -45.0798 O.2       1 UNK        -0.5000 
     67 C           0.6454  -22.0780  -47.5716 C.2       11 UNK         0.5000 
     68 O           0.6866  -22.9753  -48.4138 O.2       11 UNK        -0.5000 
     69 N          -0.1707  -21.0172  -47.6591 N.am      12 UNK        -0.5000 
     70 CA         -1.1564  -20.8349  -48.7246 C.3       12 UNK         0.1400 
     71 CB         -1.7205  -19.4081  -48.6768 C.3       12 UNK        -0.1800 
     72 C          -2.2873  -21.8781  -48.6604 C.2       12 UNK         0.5000 
     73 O          -2.6166  -22.4776  -49.6829 O.2       12 UNK        -0.5000 
     74 N          -2.8368  -22.1057  -47.4573 N.am      13 UNK        -0.5000 
     75 CA         -3.9108  -23.0680  -47.1875 C.3       13 UNK         0.1400 
     76 CB         -4.3469  -22.9589  -45.7198 C.3       13 UNK        -0.1800 
     77 C          -3.5489  -24.5246  -47.5339 C.2       13 UNK         0.5000 
     78 O          -4.4238  -25.2811  -47.9573 O.2       13 UNK        -0.5000 
     79 N          -2.2642  -24.8818  -47.3973 N.am      14 UNK        -0.5000 
     80 CA         -1.7026  -26.1898  -47.7453 C.3       14 UNK         0.1400 
     81 CB         -0.2394  -26.2524  -47.2813 C.3       14 UNK        -0.1800 
     82 C          -1.8178  -26.5610  -49.2398 C.2       14 UNK         0.5000 
     83 O          -1.7068  -27.7425  -49.5693 O.2       14 UNK        -0.5000 
     84 N          -2.0710  -25.5747  -50.1144 N.am      15 UNK        -0.5000 
     85 CA         -2.3757  -25.7819  -51.5325 C.3       15 UNK         0.1400 
     86 CB         -2.1036  -24.4798  -52.2990 C.3       15 UNK        -0.1800 
     87 C          -3.8129  -26.2961  -51.7837 C.2       15 UNK         0.5000 
     88 O          -4.1294  -26.6430  -52.9230 O.2       15 UNK        -0.5000 
     89 N          -4.6492  -26.3556  -50.7332 N.am      16 UNK        -0.5000 
     90 CA         -5.9960  -26.9321  -50.6893 C.3       16 UNK         0.1400 
     91 CB         -5.9203  -28.4706  -50.8062 C.3       16 UNK        -0.1800 
     92 C          -6.9456  -26.2731  -51.7078 C.2       16 UNK         0.5000 
     93 O          -7.3268  -25.1195  -51.5147 O.2       16 UNK        -0.5000 
     94 N          -7.2911  -26.9869  -52.7873 N.am      17 UNK        -0.5000 
     95 CA         -8.1290  -26.4943  -53.8843 C.3       17 UNK         0.1400 
     96 CB         -8.4258  -27.6560  -54.8445 C.3       17 UNK        -0.1800 
     97 C          -7.5145  -25.3043  -54.6508 C.2       17 UNK         0.5000 
     98 O          -8.2575  -24.5156  -55.2358 O.2       17 UNK        -0.5000 
     99 N          -6.1807  -25.1848  -54.6190 N.am      18 UNK        -0.5000 
    100 CA        -5.4188  -24.1051  -55.2429 C.3       18 UNK         0.1400 
    101 CB        -4.1745  -24.7110  -55.9150 C.3       18 UNK        -0.1800 
    102 C         -5.0413  -22.9885  -54.2471 C.2       18 UNK         0.5000 
    103 O         -4.2691  -22.1058  -54.6157 O.2       18 UNK        -0.5000 
    104 N         -5.5698  -23.0212  -53.0120 N.am      19 UNK        -0.5000 
    105 CA        -5.2697  -22.0403  -51.9611 C.3       19 UNK         0.1400 
    106 CB        -5.7706  -22.5575  -50.6064 C.3       19 UNK        -0.1800 
    107 C         -5.8263  -20.6293  -52.2214 C.2       19 UNK         0.5000 
    108 O         -5.3277  -19.6789  -51.6189 O.2       19 UNK        -0.5000 
    109 N         -6.8285  -20.5051  -53.1035 N.am      20 UNK        -0.5000 
    110 CA        -7.4540  -19.2495  -53.5269 C.3       20 UNK         0.1400 
    111 CB        -8.6493  -19.5760  -54.4383 C.3       20 UNK        -0.1800 
    112 C         -6.4420  -18.3116  -54.2183 C.2       20 UNK         0.5000 
    113 O         -6.2010  -18.4484  -55.4183 O.2       20 UNK        -0.5000 
    114 N         -5.8334  -17.4232  -53.4179 N.am      21 UNK        -0.5000 
    115 CA        -4.7040  -16.5376  -53.7374 C.3       21 UNK         0.1400 
    116 CB        -5.0654  -15.5507  -54.8674 C.3       21 UNK        -0.1800 
    117 C         -3.3757  -17.2862  -54.0028 C.2       21 UNK         0.5000 
    118 O         -2.4303  -16.6809  -54.5110 O.2       21 UNK        -0.5000 
    119 N         -3.3168  -18.5719  -53.6273 N.am      22 UNK        -0.5000 
    120 CA        -2.2082  -19.5119  -53.8562 C.3       22 UNK         0.1400 
    121 C         -1.8618  -19.7402  -55.3665 C.2       22 UNK         0.5000 
    122 N         -0.7380  -20.3730  -55.6752 N.am      22 UNK        -0.7600 
    123 O         -2.6130  -19.3837  -56.2719 O.2       22 UNK        -0.5000 
    124 C124       -0.9858  -19.1742  -52.9568 C.3       23 UNK        -0.0398 
    125 S125        0.0406  -20.6346  -52.5587 S.3       23 UNK        -0.2404 
    126 C126        1.7146  -19.9154  -52.5661 C.3       23 UNK        -0.0205 
    127 H127        1.1982  -10.0322  -50.0195 H         1 UNK         0.0600 
    128 H128        2.7048   -9.7621  -49.1393 H         1 UNK         0.0600 
    129 H129        1.1674   -9.2576  -48.4322 H         1 UNK         0.0600 
    130 H130        3.4732  -11.5625  -48.2071 H         1 UNK         0.3000 
    131 H131        3.7233  -13.2321  -46.8426 H         1 UNK         0.0600 
    132 H132        3.8916  -14.2777  -48.9744 H         1 UNK         0.0800 
    133 H133        3.3115  -15.4218  -47.8250 H         1 UNK         0.0800 
    134 H134        0.0084  -16.5949  -49.1555 H         1 UNK         0.0800 
    135 H135        1.0936  -16.5269  -47.7987 H         1 UNK         0.0800 
    136 H136        0.7391  -17.6964  -51.2977 H         1 UNK         0.1150 
    137 H137        3.5442  -20.9028  -50.8010 H         1 UNK         0.1150 
    138 H138        3.0413  -17.9902  -47.7004 H         1 UNK         0.1150 
    139 H139        5.3747  -20.3656  -48.9918 H         1 UNK         0.0800 
    140 H140        4.8349  -19.5860  -47.5295 H         1 UNK         0.0800 
    141 H141        2.5473  -20.2877  -46.5447 H         1 UNK         0.0800 
    142 H142        3.3506  -21.3759  -45.4501 H         1 UNK         0.0800 
    143 H143        1.8285  -23.2342  -46.2170 H         1 UNK         0.0600 
    144 H144        1.1142  -21.1086  -44.5232 H         1 UNK         0.3000 
    145 H145       -2.0813  -22.2928  -43.4494 H         1 UNK         0.0600 
    146 H146       -0.9594  -22.0119  -41.2539 H         1 UNK         0.0600 
    147 H147        0.6217  -22.0791  -42.0268 H         1 UNK         0.0600 
    148 H148       -0.4274  -23.4888  -42.0446 H         1 UNK         0.0600 
    149 H149       -0.6070  -19.9721  -42.7283 H         1 UNK         0.3000 
    150 H150       -1.7579  -17.8706  -45.3977 H         1 UNK         0.0600 
    151 H151       -3.4838  -17.6466  -43.6885 H         1 UNK         0.0600 
    152 H152       -2.2404  -16.4437  -43.3769 H         1 UNK         0.0600 
    153 H153       -2.3307  -17.9027  -42.3915 H         1 UNK         0.0600 
    154 H154        0.0943  -17.4574  -43.2361 H         1 UNK         0.3000 
    155 H155        2.9697  -18.6937  -44.9525 H         1 UNK         0.0600 
    156 H156        2.7541  -16.3931  -45.8747 H         1 UNK         0.0600 
    157 H157        3.9120  -16.4775  -44.5574 H         1 UNK         0.0600 
    158 H158        2.3121  -15.7968  -44.2798 H         1 UNK         0.0600 
    159 H159        2.4318  -17.3417  -42.4349 H         1 UNK         0.3000 
    160 H160        1.9733  -20.3219  -40.5596 H         1 UNK         0.0600 
    161 H161        4.3509  -18.3814  -40.6061 H         1 UNK         0.0600 
    162 H162        4.4612  -20.1342  -40.7156 H         1 UNK         0.0600 
    163 H163        3.8611  -19.3884  -39.2432 H         1 UNK         0.0600 
    164 H164        2.1398  -17.5552  -39.8377 H         1 UNK         0.3000 
    165 H165       -1.1889  -16.6224  -40.6061 H         1 UNK         0.0600 
    166 H166       -1.3529  -16.1270  -38.1813 H         1 UNK         0.0600 
    167 H167       -1.5331  -17.8513  -38.4606 H         1 UNK         0.0600 
    168 H168       -0.0125  -17.2216  -37.8381 H         1 UNK         0.0600 
    169 H169        0.9105  -15.3410  -39.1416 H         1 UNK         0.3000 
    170 H170        1.9591  -13.6155  -39.9775 H         1 UNK         0.0600 
    171 H171        3.6471  -14.9660  -42.1614 H         1 UNK         0.0600 
    172 H172        4.2393  -13.8315  -40.9512 H         1 UNK         0.0600 
    173 H173        3.6563  -15.4118  -40.4578 H         1 UNK         0.0600 
    174 H174        1.4963  -13.2109  -42.8617 H         1 UNK         0.3000 
    175 H175        1.7901   -9.6659  -42.3859 H         1 UNK         0.0600 
    176 H176        3.6126  -11.4138  -44.1156 H         1 UNK         0.0600 
    177 H177        3.1973   -9.7320  -44.4424 H         1 UNK         0.0600 
    178 H178        4.1209  -10.1487  -43.0073 H         1 UNK         0.0600 
    179 H179        1.1427  -11.6858  -44.4672 H         1 UNK         0.3000 
    180 H180       -2.2877  -10.9784  -44.3916 H         1 UNK         0.0600 
    181 H181       -2.0946  -10.0370  -46.6968 H         1 UNK         0.0600 
    182 H182       -0.4098   -9.6141  -46.3950 H         1 UNK         0.0600 
    183 H183       -1.6945   -8.8276  -45.4864 H         1 UNK         0.0600 
    184 H184       -0.5067  -12.0823  -46.4015 H         1 UNK         0.3000 
    185 H185       -0.1194  -15.2419  -44.9243 H         1 UNK         0.0600 
    186 H186       -1.9756  -14.5993  -47.2827 H         1 UNK         0.0600 
    187 H187       -1.2331  -16.1610  -46.9426 H         1 UNK         0.0600 
    188 H188       -2.4476  -15.5086  -45.8536 H         1 UNK         0.0600 
    189 H189        0.4384  -14.3505  -47.5597 H         1 UNK         0.3000 
    190 H190       -0.1089  -20.2873  -46.9571 H         1 UNK         0.3000 
    191 H191       -0.6403  -20.9596  -49.6780 H         1 UNK         0.0600 
    192 H192       -2.4146  -19.2362  -49.5005 H         1 UNK         0.0600 
    193 H193       -0.9223  -18.6743  -48.7629 H         1 UNK         0.0600 
    194 H194       -2.2547  -19.2105  -47.7476 H         1 UNK         0.0600 
    195 H195       -2.5331  -21.5376  -46.6702 H         1 UNK         0.3000 
    196 H196       -4.7621  -22.7886  -47.8086 H         1 UNK         0.0600 
    197 H197       -4.6608  -21.9445  -45.4734 H         1 UNK         0.0600 
    198 H198       -3.5412  -23.2374  -45.0416 H         1 UNK         0.0600 
    199 H199       -5.1903  -23.6191  -45.5138 H         1 UNK         0.0600 
    200 H200       -1.6245  -24.2117  -46.9840 H         1 UNK         0.3000 
    201 H201       -2.2649  -26.9410  -47.1873 H         1 UNK         0.0600 
    202 H202       -0.1541  -26.0603  -46.2117 H         1 UNK         0.0600 
    203 H203        0.3793  -25.5237  -47.8043 H         1 UNK         0.0600 
    204 H204        0.1884  -27.2382  -47.4681 H         1 UNK         0.0600 
    205 H205       -2.1478  -24.6229  -49.7730 H         1 UNK         0.3000 
    206 H206       -1.6941  -26.5410  -51.9212 H         1 UNK         0.0600 
    207 H207       -2.8030  -23.6978  -52.0143 H         1 UNK         0.0600 
    208 H208       -1.0955  -24.1098  -52.1106 H         1 UNK         0.0600 
    209 H209       -2.1975  -24.6279  -53.3742 H         1 UNK         0.0600 
    210 H210       -4.3229  -25.9893  -49.8448 H         1 UNK         0.3000 
    211 H211       -6.3984  -26.6967  -49.7029 H         1 UNK         0.0600 
    212 H212       -5.4670  -28.7951  -51.7434 H         1 UNK         0.0600 
    213 H213       -6.9120  -28.9201  -50.7403 H         1 UNK         0.0600 
    214 H214       -5.3252  -28.8896  -49.9945 H         1 UNK         0.0600 
    215 H215       -6.9110  -27.9167  -52.8894 H         1 UNK         0.3000 
    216 H216       -9.0737  -26.1534  -53.4557 H         1 UNK         0.0600 
    217 H217       -9.0724  -27.3328  -55.6614 H         1 UNK         0.0600 
    218 H218       -8.9357  -28.4720  -54.3320 H         1 UNK         0.0600 
    219 H219       -7.5120  -28.0547  -55.2871 H         1 UNK         0.0600 
    220 H220       -5.6393  -25.8602  -54.0877 H         1 UNK         0.3000 
    221 H221       -6.0150  -23.6324  -56.0259 H         1 UNK         0.0600 
    222 H222       -3.5324  -25.2175  -55.1955 H         1 UNK         0.0600 
    223 H223       -4.4573  -25.4387  -56.6757 H         1 UNK         0.0600 
    224 H224       -3.5763  -23.9450  -56.4099 H         1 UNK         0.0600 
    225 H225       -6.2039  -23.7709  -52.7612 H         1 UNK         0.3000 
    226 H226       -4.1861  -21.9323  -51.8979 H         1 UNK         0.0600 
    227 H227       -5.3083  -23.5107  -50.3505 H         1 UNK         0.0600 
    228 H228       -5.5229  -21.8539  -49.8112 H         1 UNK         0.0600 
    229 H229       -6.8529  -22.6876  -50.5989 H         1 UNK         0.0600 
    230 H230       -7.1552  -21.3430  -53.5612 H         1 UNK         0.3000 
    231 H231       -7.8406  -18.7464  -52.6381 H         1 UNK         0.0600 
    232 H232       -9.1356  -18.6634  -54.7853 H         1 UNK         0.0600 
    233 H233       -9.4003  -20.1624  -53.9086 H         1 UNK         0.0600 
    234 H234       -8.3441  -20.1414  -55.3199 H         1 UNK         0.0600 
    235 H235       -6.0753  -17.4535  -52.4359 H         1 UNK         0.3000 
    236 H236       -4.5314  -15.9469  -52.8367 H         1 UNK         0.0600 
    237 H237       -5.1565  -16.0519  -55.8313 H         1 UNK         0.0600 
    238 H238       -6.0067  -15.0412  -54.6618 H         1 UNK         0.0600 
    239 H239       -4.2990  -14.7823  -54.9742 H         1 UNK         0.0600 
    240 H240       -4.1364  -18.9641  -53.1813 H         1 UNK         0.3000 
    241 H241       -2.6057  -20.4663  -53.5131 H         1 UNK         0.0600 
    242 H242       -0.1214  -20.7056  -54.9486 H         1 UNK         0.3800 
    243 H243       -0.5128  -20.5392  -56.6433 H         1 UNK         0.3800 
    244 H244       -1.3284  -18.7710  -52.0028 H         1 UNK         0.0800 
    245 H245       -0.3857  -18.3875  -53.4163 H         1 UNK         0.0800 
    246 H246        2.4173  -20.6948  -52.8644 H         1 UNK         0.0800 
    247 H247        1.7980  -19.1336  -53.3221 H         1 UNK         0.0800 
@<TRIPOS>BOND
     1    1    2 1    
     2    1  127 1    
     3    1  128 1    
     4    1  129 1    
     5    2    3 2    
     6    2    4 am   BACKBONE|DICT|INTERRES
     7    4    5 1    
     8    4  130 1    
     9    5    6 1    
    10    5   65 1    
    11    5  131 1    
    12    6    7 1    
    13    6  132 1    
    14    6  133 1    
    15    7    8 1    
    16    8    9 1    
    17    8  134 1    
    18    8  135 1    
    19    9   10 ar   
    20    9   14 ar   
    21   10   11 ar   
    22   10  136 1    
    23   11   12 ar   
    24   11  126 1    
    25   12   13 ar   
    26   12  137 1    
    27   13   14 ar   
    28   13   15 1    
    29   14  138 1    
    30   15   16 1    
    31   15  139 1    
    32   15  140 1    
    33   16   17 1    
    34   17   18 1    
    35   17  141 1    
    36   17  142 1    
    37   18   19 1    
    38   18   67 1    
    39   18  143 1    
    40   19   20 am   BACKBONE|DICT|INTERRES
    41   19  144 1    
    42   20   21 2    
    43   20   22 1    
    44   22   23 1    
    45   22   24 1    
    46   22  145 1    
    47   23  146 1    
    48   23  147 1    
    49   23  148 1    
    50   24   25 am   BACKBONE|DICT|INTERRES
    51   24  149 1    
    52   25   26 2    
    53   25   27 1    
    54   27   28 1    
    55   27   29 1    
    56   27  150 1    
    57   28  151 1    
    58   28  152 1    
    59   28  153 1    
    60   29   30 am   BACKBONE|DICT|INTERRES
    61   29  154 1    
    62   30   31 2    
    63   30   32 1    
    64   32   33 1    
    65   32   34 1    
    66   32  155 1    
    67   33  156 1    
    68   33  157 1    
    69   33  158 1    
    70   34   35 am   BACKBONE|DICT|INTERRES
    71   34  159 1    
    72   35   36 2    
    73   35   37 1    
    74   37   38 1    
    75   37   39 1    
    76   37  160 1    
    77   38  161 1    
    78   38  162 1    
    79   38  163 1    
    80   39   40 am   BACKBONE|DICT|INTERRES
    81   39  164 1    
    82   40   41 2    
    83   40   42 1    
    84   42   43 1    
    85   42   44 1    
    86   42  165 1    
    87   43  166 1    
    88   43  167 1    
    89   43  168 1    
    90   44   45 am   BACKBONE|DICT|INTERRES
    91   44  169 1    
    92   45   46 2    
    93   45   47 1    
    94   47   48 1    
    95   47   49 1    
    96   47  170 1    
    97   48  171 1    
    98   48  172 1    
    99   48  173 1    
   100   49   50 am   BACKBONE|DICT|INTERRES
   101   49  174 1    
   102   50   51 2    
   103   50   52 1    
   104   52   53 1    
   105   52   54 1    
   106   52  175 1    
   107   53  176 1    
   108   53  177 1    
   109   53  178 1    
   110   54   55 am   BACKBONE|DICT|INTERRES
   111   54  179 1    
   112   55   56 2    
   113   55   57 1    
   114   57   58 1    
   115   57   59 1    
   116   57  180 1    
   117   58  181 1    
   118   58  182 1    
   119   58  183 1    
   120   59   60 am   BACKBONE|DICT|INTERRES
   121   59  184 1    
   122   60   61 2    
   123   60   62 1    
   124   62   63 1    
   125   62   64 1    
   126   62  185 1    
   127   63  186 1    
   128   63  187 1    
   129   63  188 1    
   130   64   65 am   BACKBONE|DICT|INTERRES
   131   64  189 1    
   132   65   66 2    
   133   67   68 2    
   134   67   69 am   BACKBONE|DICT|INTERRES
   135   69   70 1    
   136   69  190 1    
   137   70   71 1    
   138   70   72 1    
   139   70  191 1    
   140   71  192 1    
   141   71  193 1    
   142   71  194 1    
   143   72   73 2    
   144   72   74 am   BACKBONE|DICT|INTERRES
   145   74   75 1    
   146   74  195 1    
   147   75   76 1    
   148   75   77 1    
   149   75  196 1    
   150   76  197 1    
   151   76  198 1    
   152   76  199 1    
   153   77   78 2    
   154   77   79 am   BACKBONE|DICT|INTERRES
   155   79   80 1    
   156   79  200 1    
   157   80   81 1    
   158   80   82 1    
   159   80  201 1    
   160   81  202 1    
   161   81  203 1    
   162   81  204 1    
   163   82   83 2    
   164   82   84 am   BACKBONE|DICT|INTERRES
   165   84   85 1    
   166   84  205 1    
   167   85   86 1    
   168   85   87 1    
   169   85  206 1    
   170   86  207 1    
   171   86  208 1    
   172   86  209 1    
   173   87   88 2    
   174   87   89 am   BACKBONE|DICT|INTERRES
   175   89   90 1    
   176   89  210 1    
   177   90   91 1    
   178   90   92 1    
   179   90  211 1    
   180   91  212 1    
   181   91  213 1    
   182   91  214 1    
   183   92   93 2    
   184   92   94 am   BACKBONE|DICT|INTERRES
   185   94   95 1    
   186   94  215 1    
   187   95   96 1    
   188   95   97 1    
   189   95  216 1    
   190   96  217 1    
   191   96  218 1    
   192   96  219 1    
   193   97   98 2    
   194   97   99 am   BACKBONE|DICT|INTERRES
   195   99  100 1    
   196   99  220 1    
   197  100  101 1    
   198  100  102 1    
   199  100  221 1    
   200  101  222 1    
   201  101  223 1    
   202  101  224 1    
   203  102  103 2    
   204  102  104 am   BACKBONE|DICT|INTERRES
   205  104  105 1    
   206  104  225 1    
   207  105  106 1    
   208  105  107 1    
   209  105  226 1    
   210  106  227 1    
   211  106  228 1    
   212  106  229 1    
   213  107  108 2    
   214  107  109 am   BACKBONE|DICT|INTERRES
   215  109  110 1    
   216  109  230 1    
   217  110  111 1    
   218  110  112 1    
   219  110  231 1    
   220  111  232 1    
   221  111  233 1    
   222  111  234 1    
   223  112  113 2    
   224  112  114 am   BACKBONE|DICT|INTERRES
   225  114  115 1    
   226  114  235 1    
   227  115  116 1    
   228  115  117 1    
   229  115  236 1    
   230  116  237 1    
   231  116  238 1    
   232  116  239 1    
   233  117  118 2    
   234  117  119 am   BACKBONE|DICT|INTERRES
   235  119  120 1    
   236  119  240 1    
   237  120  121 1    
   238  120  124 1    
   239  120  241 1    
   240  121  122 am   BACKBONE|DICT|INTERRES
   241  121  123 2    
   242  122  242 1    
   243  122  243 1    
   244  124  125 1    
   245  124  244 1    
   246  124  245 1    
   247  125  126 1    
   248  126  246 1    
   249  126  247 1    
@<TRIPOS>SUBSTRUCTURE
     1 UNK         1 GROUP             0       ****    0 ROOT    
