@<TRIPOS>MOLECULE
3R540
247   249    1
SMALL
USER_CHARGES


@<TRIPOS>ATOM
      1 CA         -0.9997  -17.6542  -50.6304 C.3       0 UNK        -0.1800 
      2 C          -0.4756  -16.5130  -49.7725 C.2       0 UNK         0.5000 
      3 O          -1.1663  -15.5103  -49.5924 O.2       0 UNK        -0.5000 
      4 N           0.7450  -16.6649  -49.2421 N.am      1 UNK        -0.5000 
      5 CA          1.4150  -15.6914  -48.3708 C.3       1 UNK         0.1400 
      6 C6          2.9213  -16.0023  -48.1745 C.3       23 UNK        -0.0398 
      7 S7          3.2692  -17.7152  -47.6263 S.3       23 UNK        -0.2404 
      8 C8          4.2168  -18.3937  -49.0262 C.3       23 UNK        -0.0205 
      9 C9          3.3598  -18.5725  -50.2707 C.ar      23 UNK        -0.0193 
     10 C10         3.3487  -17.5871  -51.2609 C.ar      23 UNK        -0.1150 
     11 C11         2.5549  -17.7360  -52.3978 C.ar      23 UNK        -0.0193 
     12 C12         1.7907  -18.8946  -52.5556 C.ar      23 UNK        -0.1150 
     13 C13         1.8046  -19.9047  -51.5892 C.ar      23 UNK        -0.0193 
     14 C14         2.5884  -19.7275  -50.4387 C.ar      23 UNK        -0.1150 
     15 C15         0.9663  -21.1568  -51.8613 C.3       23 UNK        -0.0205 
     16 S16         1.1353  -22.5222  -50.6593 S.3       23 UNK        -0.2404 
     17 C17        -0.1299  -22.0643  -49.4330 C.3       23 UNK        -0.0398 
     18 CA         -0.3884  -23.2072  -48.4237 C.3       11 UNK         0.1400 
     19 N           0.7775  -23.4923  -47.5825 N.am      11 UNK        -0.5000 
     20 C           0.9015  -24.5801  -46.8097 C.2       10 UNK         0.5000 
     21 O           0.0449  -25.4589  -46.7253 O.2       10 UNK        -0.5000 
     22 CA          2.1681  -24.6703  -45.9388 C.3       10 UNK         0.1400 
     23 CB          3.3315  -25.2700  -46.7422 C.3       10 UNK        -0.1800 
     24 N           2.5839  -23.3869  -45.3629 N.am      10 UNK        -0.5000 
     25 C           1.8179  -22.6107  -44.5851 C.2       9 UNK         0.5000 
     26 O           0.6385  -22.8591  -44.3195 O.2       9 UNK        -0.5000 
     27 CA          2.4612  -21.3114  -44.0698 C.3       9 UNK         0.1400 
     28 CB          2.3911  -20.2223  -45.1510 C.3       9 UNK        -0.1800 
     29 N           1.7923  -20.8331  -42.8592 N.am      9 UNK        -0.5000 
     30 C           1.9162  -21.4045  -41.6529 C.2       8 UNK         0.5000 
     31 O           2.6765  -22.3485  -41.4273 O.2       8 UNK        -0.5000 
     32 CA          1.0381  -20.8330  -40.5153 C.3       8 UNK         0.1400 
     33 CB          1.6147  -21.1258  -39.1137 C.3       8 UNK        -0.1800 
     34 N           0.7199  -19.4038  -40.6494 N.am      8 UNK        -0.5000 
     35 C           1.5897  -18.3845  -40.6920 C.2       7 UNK         0.5000 
     36 O           2.8168  -18.5108  -40.6683 O.2       7 UNK        -0.5000 
     37 CA          0.9810  -16.9790  -40.7673 C.3       7 UNK         0.1400 
     38 CB          0.8019  -16.3717  -39.3664 C.3       7 UNK        -0.1800 
     39 N           1.8711  -16.1409  -41.5609 N.am      7 UNK        -0.5000 
     40 C           1.4747  -15.1716  -42.3885 C.2       6 UNK         0.5000 
     41 O           0.3001  -14.8102  -42.4934 O.2       6 UNK        -0.5000 
     42 CA          2.5722  -14.5350  -43.2636 C.3       6 UNK         0.1400 
     43 CB          3.2492  -15.5837  -44.1657 C.3       6 UNK        -0.1800 
     44 N           2.0183  -13.4824  -44.1130 N.am      6 UNK        -0.5000 
     45 C           1.8520  -12.2080  -43.7396 C.2       5 UNK         0.5000 
     46 O           2.2364  -11.7545  -42.6604 O.2       5 UNK        -0.5000 
     47 CA          1.1272  -11.2865  -44.7310 C.3       5 UNK         0.1400 
     48 CB          2.0680  -10.8400  -45.8628 C.3       5 UNK        -0.1800 
     49 N          -0.0529  -11.9384  -45.2984 N.am      5 UNK        -0.5000 
     50 C          -1.2147  -11.3256  -45.5491 C.2       4 UNK         0.5000 
     51 O          -1.4186  -10.1285  -45.3404 O.2       4 UNK        -0.5000 
     52 CA         -2.3491  -12.1907  -46.1333 C.3       4 UNK         0.1400 
     53 CB         -2.1713  -12.3554  -47.6510 C.3       4 UNK        -0.1800 
     54 N          -2.4932  -13.5165  -45.5251 N.am      4 UNK        -0.5000 
     55 C          -2.7224  -13.7707  -44.2272 C.2       3 UNK         0.5000 
     56 O          -2.7769  -12.8940  -43.3645 O.2       3 UNK        -0.5000 
     57 CA         -2.9822  -15.2427  -43.8249 C.3       3 UNK         0.1400 
     58 CB         -4.2529  -15.3597  -42.9660 C.3       3 UNK        -0.1800 
     59 N          -3.1306  -16.1449  -44.9749 N.am      3 UNK        -0.5000 
     60 C          -2.1736  -16.7702  -45.6736 C.2       2 UNK         0.5000 
     61 O          -2.4525  -17.4987  -46.6254 O.2       2 UNK        -0.5000 
     62 CA         -0.6952  -16.5998  -45.2813 C.3       2 UNK         0.1400 
     63 CB         -0.2377  -17.7551  -44.3785 C.3       2 UNK        -0.1800 
     64 N           0.1092  -16.5951  -46.4961 N.am      2 UNK        -0.5000 
     65 C           0.7102  -15.5175  -47.0109 C.2       1 UNK         0.5000 
     66 O           0.7293  -14.4175  -46.4569 O.2       1 UNK        -0.5000 
     67 C          -1.6539  -22.9170  -47.5935 C.2       11 UNK         0.5000 
     68 O          -2.7460  -23.2735  -48.0334 O.2       11 UNK        -0.5000 
     69 N          -1.5052  -22.2922  -46.4176 N.am      12 UNK        -0.5000 
     70 CA         -2.6154  -22.0378  -45.4985 C.3       12 UNK         0.1400 
     71 CB         -2.2689  -20.8797  -44.5533 C.3       12 UNK        -0.1800 
     72 C          -3.0005  -23.3029  -44.7170 C.2       12 UNK         0.5000 
     73 O          -4.1903  -23.5678  -44.5498 O.2       12 UNK        -0.5000 
     74 N          -1.9944  -24.0851  -44.3007 N.am      13 UNK        -0.5000 
     75 CA         -2.1592  -25.3716  -43.6201 C.3       13 UNK         0.1400 
     76 CB         -0.7871  -25.8770  -43.1496 C.3       13 UNK        -0.1800 
     77 C          -2.8642  -26.4263  -44.4958 C.2       13 UNK         0.5000 
     78 O          -3.7242  -27.1544  -43.9994 O.2       13 UNK        -0.5000 
     79 N          -2.5158  -26.4606  -45.7893 N.am      14 UNK        -0.5000 
     80 CA         -3.1468  -27.3068  -46.8048 C.3       14 UNK         0.1400 
     81 CB         -2.1837  -27.4426  -47.9954 C.3       14 UNK        -0.1800 
     82 C          -4.5098  -26.7729  -47.2921 C.2       14 UNK         0.5000 
     83 O          -5.2268  -27.5053  -47.9746 O.2       14 UNK        -0.5000 
     84 N          -4.8219  -25.5063  -46.9740 N.am      15 UNK        -0.5000 
     85 CA         -5.9726  -24.7186  -47.4379 C.3       15 UNK         0.1400 
     86 CB         -7.3012  -25.3200  -46.9362 C.3       15 UNK        -0.1800 
     87 C          -5.9639  -24.4636  -48.9628 C.2       15 UNK         0.5000 
     88 O          -7.0117  -24.2064  -49.5574 O.2       15 UNK        -0.5000 
     89 N          -4.7692  -24.5158  -49.5639 N.am      16 UNK        -0.5000 
     90 CA         -4.5083  -24.2452  -50.9736 C.3       16 UNK         0.1400 
     91 CB         -3.1820  -24.9104  -51.3708 C.3       16 UNK        -0.1800 
     92 C          -4.4535  -22.7391  -51.2724 C.2       16 UNK         0.5000 
     93 O          -4.7749  -22.3423  -52.3911 O.2       16 UNK        -0.5000 
     94 N          -4.0707  -21.9281  -50.2729 N.am      17 UNK        -0.5000 
     95 CA         -3.8883  -20.4715  -50.3448 C.3       17 UNK         0.1400 
     96 CB         -3.4517  -19.9552  -48.9635 C.3       17 UNK        -0.1800 
     97 C          -5.1141  -19.6761  -50.8362 C.2       17 UNK         0.5000 
     98 O          -4.9466  -18.5731  -51.3542 O.2       17 UNK        -0.5000 
     99 N          -6.3159  -20.2480  -50.6806 N.am      18 UNK        -0.5000 
    100 CA        -7.5726  -19.6995  -51.1907 C.3       18 UNK         0.1400 
    101 CB        -8.7410  -20.4859  -50.5767 C.3       18 UNK        -0.1800 
    102 C         -7.6627  -19.7135  -52.7308 C.2       18 UNK         0.5000 
    103 O         -8.3371  -18.8547  -53.3005 O.2       18 UNK        -0.5000 
    104 N         -6.9878  -20.6780  -53.3705 N.am      19 UNK        -0.5000 
    105 CA        -6.8951  -20.8147  -54.8227 C.3       19 UNK         0.1400 
    106 CB        -7.1203  -22.2856  -55.2082 C.3       19 UNK        -0.1800 
    107 C         -5.5260  -20.3253  -55.3175 C.2       19 UNK         0.5000 
    108 O         -5.4601  -19.5236  -56.2498 O.2       19 UNK        -0.5000 
    109 N         -4.4533  -20.7821  -54.6592 N.am      20 UNK        -0.5000 
    110 CA        -3.0580  -20.4469  -54.9384 C.3       20 UNK         0.1400 
    111 CB        -2.1689  -21.6144  -54.4694 C.3       20 UNK        -0.1800 
    112 C         -2.6531  -19.1069  -54.2926 C.2       20 UNK         0.5000 
    113 O         -1.6136  -19.0249  -53.6390 O.2       20 UNK        -0.5000 
    114 N         -3.4724  -18.0687  -54.4962 N.am      21 UNK        -0.5000 
    115 CA        -3.3398  -16.7264  -53.9211 C.3       21 UNK         0.1400 
    116 CB        -4.7311  -16.0672  -53.9092 C.3       21 UNK        -0.1800 
    117 C         -2.2785  -15.8530  -54.6316 C.2       21 UNK         0.5000 
    118 O         -2.4840  -14.6506  -54.8056 O.2       21 UNK        -0.5000 
    119 N         -1.1686  -16.4779  -55.0409 N.am      22 UNK        -0.5000 
    120 CA         0.0026  -15.8802  -55.7075 C.3       22 UNK         0.1400 
    121 C         -0.2574  -15.3201  -57.1401 C.2       22 UNK         0.5000 
    122 N         -1.3616  -15.6593  -57.7940 N.am      22 UNK        -0.7600 
    123 O          0.5688  -14.5939  -57.6868 O.2       22 UNK        -0.5000 
    124 C124        0.7819  -14.8745  -54.8089 C.3       23 UNK        -0.0398 
    125 S125        1.1302  -15.5082  -53.1323 S.3       23 UNK        -0.2404 
    126 C126        2.5122  -16.6449  -53.4531 C.3       23 UNK        -0.0205 
    127 H127       -0.6142  -18.6169  -50.2948 H         1 UNK         0.0600 
    128 H128       -0.6995  -17.5045  -51.6665 H         1 UNK         0.0600 
    129 H129       -2.0881  -17.6929  -50.5965 H         1 UNK         0.0600 
    130 H130        1.2815  -17.4956  -49.4529 H         1 UNK         0.3000 
    131 H131        1.3498  -14.7227  -48.8710 H         1 UNK         0.0600 
    132 H132        3.4536  -15.8005  -49.1023 H         1 UNK         0.0800 
    133 H133        3.3640  -15.3163  -47.4497 H         1 UNK         0.0800 
    134 H134        4.6341  -19.3575  -48.7309 H         1 UNK         0.0800 
    135 H135        5.0707  -17.7477  -49.2362 H         1 UNK         0.0800 
    136 H136        3.9487  -16.6959  -51.1455 H         1 UNK         0.1150 
    137 H137        1.1758  -19.0090  -53.4378 H         1 UNK         0.1150 
    138 H138        2.6178  -20.4836  -49.6686 H         1 UNK         0.1150 
    139 H139       -0.0832  -20.8714  -51.9509 H         1 UNK         0.0800 
    140 H140        1.2540  -21.5485  -52.8380 H         1 UNK         0.0800 
    141 H141       -1.0439  -21.8302  -49.9817 H         1 UNK         0.0800 
    142 H142        0.1740  -21.1480  -48.9239 H         1 UNK         0.0800 
    143 H143       -0.6020  -24.1128  -48.9961 H         1 UNK         0.0600 
    144 H144        1.5327  -22.8236  -47.6051 H         1 UNK         0.3000 
    145 H145        1.9467  -25.3436  -45.1086 H         1 UNK         0.0600 
    146 H146        4.2050  -25.4330  -46.1108 H         1 UNK         0.0600 
    147 H147        3.0552  -26.2361  -47.1672 H         1 UNK         0.0600 
    148 H148        3.6287  -24.6215  -47.5674 H         1 UNK         0.0600 
    149 H149        3.5351  -23.1031  -45.5480 H         1 UNK         0.3000 
    150 H150        3.5099  -21.5038  -43.8332 H         1 UNK         0.0600 
    151 H151        1.3767  -20.0843  -45.5234 H         1 UNK         0.0600 
    152 H152        3.0136  -20.4845  -46.0072 H         1 UNK         0.0600 
    153 H153        2.7492  -19.2629  -44.7764 H         1 UNK         0.0600 
    154 H154        1.1280  -20.0838  -42.9701 H         1 UNK         0.3000 
    155 H155        0.0861  -21.3606  -40.5901 H         1 UNK         0.0600 
    156 H156        2.6021  -20.6821  -38.9822 H         1 UNK         0.0600 
    157 H157        1.7132  -22.1987  -38.9449 H         1 UNK         0.0600 
    158 H158        0.9648  -20.7356  -38.3305 H         1 UNK         0.0600 
    159 H159       -0.2672  -19.1889  -40.6764 H         1 UNK         0.3000 
    160 H160        0.0059  -17.0507  -41.2537 H         1 UNK         0.0600 
    161 H161        1.7548  -16.2803  -38.8437 H         1 UNK         0.0600 
    162 H162        0.1467  -16.9906  -38.7523 H         1 UNK         0.0600 
    163 H163        0.3540  -15.3794  -39.4223 H         1 UNK         0.0600 
    164 H164        2.8402  -16.4334  -41.5431 H         1 UNK         0.3000 
    165 H165        3.3290  -14.1094  -42.6015 H         1 UNK         0.0600 
    166 H166        3.9862  -15.1212  -44.8224 H         1 UNK         0.0600 
    167 H167        3.7747  -16.3367  -43.5778 H         1 UNK         0.0600 
    168 H168        2.5284  -16.1067  -44.7926 H         1 UNK         0.0600 
    169 H169        1.6364  -13.7874  -45.0036 H         1 UNK         0.3000 
    170 H170        0.8231  -10.4011  -44.1684 H         1 UNK         0.0600 
    171 H171        2.9679  -10.3717  -45.4622 H         1 UNK         0.0600 
    172 H172        2.3805  -11.6826  -46.4810 H         1 UNK         0.0600 
    173 H173        1.5831  -10.1110  -46.5121 H         1 UNK         0.0600 
    174 H174        0.0413  -12.9207  -45.5392 H         1 UNK         0.3000 
    175 H175       -3.2849  -11.6555  -45.9602 H         1 UNK         0.0600 
    176 H176       -2.0787  -11.3859  -48.1422 H         1 UNK         0.0600 
    177 H177       -1.2770  -12.9319  -47.8919 H         1 UNK         0.0600 
    178 H178       -3.0261  -12.8640  -48.0971 H         1 UNK         0.0600 
    179 H179       -2.4959  -14.2955  -46.1662 H         1 UNK         0.3000 
    180 H180       -2.1500  -15.5702  -43.2013 H         1 UNK         0.0600 
    181 H181       -5.1358  -15.0116  -43.5036 H         1 UNK         0.0600 
    182 H182       -4.1691  -14.7679  -42.0536 H         1 UNK         0.0600 
    183 H183       -4.4301  -16.3917  -42.6621 H         1 UNK         0.0600 
    184 H184       -4.0841  -16.2875  -45.2740 H         1 UNK         0.3000 
    185 H185       -0.5508  -15.6626  -44.7497 H         1 UNK         0.0600 
    186 H186       -0.8440  -17.8109  -43.4741 H         1 UNK         0.0600 
    187 H187       -0.3182  -18.7116  -44.8898 H         1 UNK         0.0600 
    188 H188        0.7999  -17.6318  -44.0715 H         1 UNK         0.0600 
    189 H189        0.0752  -17.4364  -47.0535 H         1 UNK         0.3000 
    190 H190       -0.5753  -22.1007  -46.0719 H         1 UNK         0.3000 
    191 H191       -3.4906  -21.7340  -46.0775 H         1 UNK         0.0600 
    192 H192       -2.1964  -19.9477  -45.1112 H         1 UNK         0.0600 
    193 H193       -3.0462  -20.7408  -43.8008 H         1 UNK         0.0600 
    194 H194       -1.3276  -21.0431  -44.0286 H         1 UNK         0.0600 
    195 H195       -1.0407  -23.7624  -44.4410 H         1 UNK         0.3000 
    196 H196       -2.7803  -25.2024  -42.7381 H         1 UNK         0.0600 
    197 H197       -0.8857  -26.8062  -42.5872 H         1 UNK         0.0600 
    198 H198       -0.3005  -25.1506  -42.4982 H         1 UNK         0.0600 
    199 H199       -0.1206  -26.0712  -43.9899 H         1 UNK         0.0600 
    200 H200       -1.7369  -25.8866  -46.1012 H         1 UNK         0.3000 
    201 H201       -3.3126  -28.2999  -46.3823 H         1 UNK         0.0600 
    202 H202       -2.5954  -28.0991  -48.7630 H         1 UNK         0.0600 
    203 H203       -1.2292  -27.8673  -47.6839 H         1 UNK         0.0600 
    204 H204       -1.9836  -26.4769  -48.4620 H         1 UNK         0.0600 
    205 H205       -4.1696  -25.0021  -46.3886 H         1 UNK         0.3000 
    206 H206       -5.8636  -23.7371  -46.9743 H         1 UNK         0.0600 
    207 H207       -7.2753  -25.4868  -45.8593 H         1 UNK         0.0600 
    208 H208       -8.1356  -24.6477  -47.1392 H         1 UNK         0.0600 
    209 H209       -7.5256  -26.2713  -47.4191 H         1 UNK         0.0600 
    210 H210       -3.9565  -24.6248  -48.9693 H         1 UNK         0.3000 
    211 H211       -5.3095  -24.6810  -51.5741 H         1 UNK         0.0600 
    212 H212       -2.3422  -24.5078  -50.8032 H         1 UNK         0.0600 
    213 H213       -2.9680  -24.7533  -52.4290 H         1 UNK         0.0600 
    214 H214       -3.2151  -25.9870  -51.2017 H         1 UNK         0.0600 
    215 H215       -3.8145  -22.3667  -49.3940 H         1 UNK         0.3000 
    216 H216       -3.0821  -20.2774  -51.0556 H         1 UNK         0.0600 
    217 H217       -3.4062  -18.8656  -48.9414 H         1 UNK         0.0600 
    218 H218       -2.4603  -20.3145  -48.6951 H         1 UNK         0.0600 
    219 H219       -4.1453  -20.2645  -48.1809 H         1 UNK         0.0600 
    220 H220       -6.3605  -21.1558  -50.2415 H         1 UNK         0.3000 
    221 H221       -7.6484  -18.6602  -50.8640 H         1 UNK         0.0600 
    222 H222       -8.7010  -21.5422  -50.8466 H         1 UNK         0.0600 
    223 H223       -8.7346  -20.4171  -49.4888 H         1 UNK         0.0600 
    224 H224       -9.6994  -20.0946  -50.9206 H         1 UNK         0.0600 
    225 H225       -6.4127  -21.3109  -52.8251 H         1 UNK         0.3000 
    226 H226       -7.6645  -20.2166  -55.3154 H         1 UNK         0.0600 
    227 H227       -7.0427  -22.4227  -56.2875 H         1 UNK         0.0600 
    228 H228       -6.3901  -22.9462  -54.7387 H         1 UNK         0.0600 
    229 H229       -8.1133  -22.6209  -54.9084 H         1 UNK         0.0600 
    230 H230       -4.5998  -21.4056  -53.8672 H         1 UNK         0.3000 
    231 H231       -2.9273  -20.3392  -56.0170 H         1 UNK         0.0600 
    232 H232       -2.2181  -21.7489  -53.3881 H         1 UNK         0.0600 
    233 H233       -1.1241  -21.4423  -54.7310 H         1 UNK         0.0600 
    234 H234       -2.4694  -22.5523  -54.9366 H         1 UNK         0.0600 
    235 H235       -4.2820  -18.2282  -55.0839 H         1 UNK         0.3000 
    236 H236       -3.0161  -16.8313  -52.8837 H         1 UNK         0.0600 
    237 H237       -5.4562  -16.6872  -53.3811 H         1 UNK         0.0600 
    238 H238       -4.7058  -15.1018  -53.4025 H         1 UNK         0.0600 
    239 H239       -5.1052  -15.9017  -54.9202 H         1 UNK         0.0600 
    240 H240       -1.0842  -17.4578  -54.7958 H         1 UNK         0.3000 
    241 H241        0.6673  -16.7246  -55.8862 H         1 UNK         0.0600 
    242 H242       -1.5184  -15.3027  -58.7238 H         1 UNK         0.3800 
    243 H243       -2.0487  -16.2556  -57.3618 H         1 UNK         0.3800 
    244 H244        1.7294  -14.5959  -55.2732 H         1 UNK         0.0800 
    245 H245        0.2136  -13.9492  -54.7040 H         1 UNK         0.0800 
    246 H246        2.4150  -17.1015  -54.4380 H         1 UNK         0.0800 
    247 H247        3.4474  -16.0832  -53.4663 H         1 UNK         0.0800 
@<TRIPOS>BOND
     1    1    2 1    
     2    1  127 1    
     3    1  128 1    
     4    1  129 1    
     5    2    3 2    
     6    2    4 am   BACKBONE|DICT|INTERRES
     7    4    5 1    
     8    4  130 1    
     9    5    6 1    
    10    5   65 1    
    11    5  131 1    
    12    6    7 1    
    13    6  132 1    
    14    6  133 1    
    15    7    8 1    
    16    8    9 1    
    17    8  134 1    
    18    8  135 1    
    19    9   10 ar   
    20    9   14 ar   
    21   10   11 ar   
    22   10  136 1    
    23   11   12 ar   
    24   11  126 1    
    25   12   13 ar   
    26   12  137 1    
    27   13   14 ar   
    28   13   15 1    
    29   14  138 1    
    30   15   16 1    
    31   15  139 1    
    32   15  140 1    
    33   16   17 1    
    34   17   18 1    
    35   17  141 1    
    36   17  142 1    
    37   18   19 1    
    38   18   67 1    
    39   18  143 1    
    40   19   20 am   BACKBONE|DICT|INTERRES
    41   19  144 1    
    42   20   21 2    
    43   20   22 1    
    44   22   23 1    
    45   22   24 1    
    46   22  145 1    
    47   23  146 1    
    48   23  147 1    
    49   23  148 1    
    50   24   25 am   BACKBONE|DICT|INTERRES
    51   24  149 1    
    52   25   26 2    
    53   25   27 1    
    54   27   28 1    
    55   27   29 1    
    56   27  150 1    
    57   28  151 1    
    58   28  152 1    
    59   28  153 1    
    60   29   30 am   BACKBONE|DICT|INTERRES
    61   29  154 1    
    62   30   31 2    
    63   30   32 1    
    64   32   33 1    
    65   32   34 1    
    66   32  155 1    
    67   33  156 1    
    68   33  157 1    
    69   33  158 1    
    70   34   35 am   BACKBONE|DICT|INTERRES
    71   34  159 1    
    72   35   36 2    
    73   35   37 1    
    74   37   38 1    
    75   37   39 1    
    76   37  160 1    
    77   38  161 1    
    78   38  162 1    
    79   38  163 1    
    80   39   40 am   BACKBONE|DICT|INTERRES
    81   39  164 1    
    82   40   41 2    
    83   40   42 1    
    84   42   43 1    
    85   42   44 1    
    86   42  165 1    
    87   43  166 1    
    88   43  167 1    
    89   43  168 1    
    90   44   45 am   BACKBONE|DICT|INTERRES
    91   44  169 1    
    92   45   46 2    
    93   45   47 1    
    94   47   48 1    
    95   47   49 1    
    96   47  170 1    
    97   48  171 1    
    98   48  172 1    
    99   48  173 1    
   100   49   50 am   BACKBONE|DICT|INTERRES
   101   49  174 1    
   102   50   51 2    
   103   50   52 1    
   104   52   53 1    
   105   52   54 1    
   106   52  175 1    
   107   53  176 1    
   108   53  177 1    
   109   53  178 1    
   110   54   55 am   BACKBONE|DICT|INTERRES
   111   54  179 1    
   112   55   56 2    
   113   55   57 1    
   114   57   58 1    
   115   57   59 1    
   116   57  180 1    
   117   58  181 1    
   118   58  182 1    
   119   58  183 1    
   120   59   60 am   BACKBONE|DICT|INTERRES
   121   59  184 1    
   122   60   61 2    
   123   60   62 1    
   124   62   63 1    
   125   62   64 1    
   126   62  185 1    
   127   63  186 1    
   128   63  187 1    
   129   63  188 1    
   130   64   65 am   BACKBONE|DICT|INTERRES
   131   64  189 1    
   132   65   66 2    
   133   67   68 2    
   134   67   69 am   BACKBONE|DICT|INTERRES
   135   69   70 1    
   136   69  190 1    
   137   70   71 1    
   138   70   72 1    
   139   70  191 1    
   140   71  192 1    
   141   71  193 1    
   142   71  194 1    
   143   72   73 2    
   144   72   74 am   BACKBONE|DICT|INTERRES
   145   74   75 1    
   146   74  195 1    
   147   75   76 1    
   148   75   77 1    
   149   75  196 1    
   150   76  197 1    
   151   76  198 1    
   152   76  199 1    
   153   77   78 2    
   154   77   79 am   BACKBONE|DICT|INTERRES
   155   79   80 1    
   156   79  200 1    
   157   80   81 1    
   158   80   82 1    
   159   80  201 1    
   160   81  202 1    
   161   81  203 1    
   162   81  204 1    
   163   82   83 2    
   164   82   84 am   BACKBONE|DICT|INTERRES
   165   84   85 1    
   166   84  205 1    
   167   85   86 1    
   168   85   87 1    
   169   85  206 1    
   170   86  207 1    
   171   86  208 1    
   172   86  209 1    
   173   87   88 2    
   174   87   89 am   BACKBONE|DICT|INTERRES
   175   89   90 1    
   176   89  210 1    
   177   90   91 1    
   178   90   92 1    
   179   90  211 1    
   180   91  212 1    
   181   91  213 1    
   182   91  214 1    
   183   92   93 2    
   184   92   94 am   BACKBONE|DICT|INTERRES
   185   94   95 1    
   186   94  215 1    
   187   95   96 1    
   188   95   97 1    
   189   95  216 1    
   190   96  217 1    
   191   96  218 1    
   192   96  219 1    
   193   97   98 2    
   194   97   99 am   BACKBONE|DICT|INTERRES
   195   99  100 1    
   196   99  220 1    
   197  100  101 1    
   198  100  102 1    
   199  100  221 1    
   200  101  222 1    
   201  101  223 1    
   202  101  224 1    
   203  102  103 2    
   204  102  104 am   BACKBONE|DICT|INTERRES
   205  104  105 1    
   206  104  225 1    
   207  105  106 1    
   208  105  107 1    
   209  105  226 1    
   210  106  227 1    
   211  106  228 1    
   212  106  229 1    
   213  107  108 2    
   214  107  109 am   BACKBONE|DICT|INTERRES
   215  109  110 1    
   216  109  230 1    
   217  110  111 1    
   218  110  112 1    
   219  110  231 1    
   220  111  232 1    
   221  111  233 1    
   222  111  234 1    
   223  112  113 2    
   224  112  114 am   BACKBONE|DICT|INTERRES
   225  114  115 1    
   226  114  235 1    
   227  115  116 1    
   228  115  117 1    
   229  115  236 1    
   230  116  237 1    
   231  116  238 1    
   232  116  239 1    
   233  117  118 2    
   234  117  119 am   BACKBONE|DICT|INTERRES
   235  119  120 1    
   236  119  240 1    
   237  120  121 1    
   238  120  124 1    
   239  120  241 1    
   240  121  122 am   BACKBONE|DICT|INTERRES
   241  121  123 2    
   242  122  242 1    
   243  122  243 1    
   244  124  125 1    
   245  124  244 1    
   246  124  245 1    
   247  125  126 1    
   248  126  246 1    
   249  126  247 1    
@<TRIPOS>SUBSTRUCTURE
     1 UNK         1 GROUP             0       ****    0 ROOT    
