@<TRIPOS>MOLECULE
3R540
247   249    1
SMALL
USER_CHARGES


@<TRIPOS>ATOM
      1 CA          6.9665  -12.1363  -49.7092 C.3       0 UNK        -0.1800 
      2 C           6.8839  -13.5807  -50.1827 C.2       0 UNK         0.5000 
      3 O           7.9092  -14.1783  -50.5119 O.2       0 UNK        -0.5000 
      4 N           5.6681  -14.1377  -50.2267 N.am      1 UNK        -0.5000 
      5 CA          5.3917  -15.5295  -50.5997 C.3       1 UNK         0.1400 
      6 C6          3.8787  -15.7831  -50.8405 C.3       23 UNK        -0.0398 
      7 S7          3.1305  -14.6382  -52.0461 S.3       23 UNK        -0.2404 
      8 C8          1.9929  -13.6904  -50.9851 C.3       23 UNK        -0.0205 
      9 C9          0.6566  -14.3963  -50.7972 C.ar      23 UNK        -0.0193 
     10 C10        -0.3374  -14.2553  -51.7685 C.ar      23 UNK        -0.1150 
     11 C11        -1.5932  -14.8401  -51.5921 C.ar      23 UNK        -0.0193 
     12 C12        -1.8533  -15.5754  -50.4332 C.ar      23 UNK        -0.1150 
     13 C13        -0.8640  -15.7425  -49.4575 C.ar      23 UNK        -0.0193 
     14 C14         0.3901  -15.1482  -49.6469 C.ar      23 UNK        -0.1150 
     15 C15        -1.1600  -16.5079  -48.1715 C.3       23 UNK        -0.0205 
     16 S16        -1.9805  -18.1137  -48.4520 S.3       23 UNK        -0.2404 
     17 C17        -2.0579  -18.7697  -46.7512 C.3       23 UNK        -0.0398 
     18 CA         -1.3272  -20.1276  -46.6024 C.3       11 UNK         0.1400 
     19 N          -0.7633  -20.2841  -45.2624 N.am      11 UNK        -0.5000 
     20 C           0.2033  -21.1480  -44.9313 C.2       10 UNK         0.5000 
     21 O           0.7229  -21.9311  -45.7242 O.2       10 UNK        -0.5000 
     22 CA          0.6277  -21.1635  -43.4521 C.3       10 UNK         0.1400 
     23 CB          1.7056  -20.1016  -43.2041 C.3       10 UNK        -0.1800 
     24 N          -0.4995  -20.9356  -42.5441 N.am      10 UNK        -0.5000 
     25 C          -1.5163  -21.7953  -42.3823 C.2       9 UNK         0.5000 
     26 O          -1.5759  -22.8895  -42.9411 O.2       9 UNK        -0.5000 
     27 CA         -2.6943  -21.3334  -41.5036 C.3       9 UNK         0.1400 
     28 CB         -2.4373  -21.6837  -40.0307 C.3       9 UNK        -0.1800 
     29 N          -2.9826  -19.9017  -41.6140 N.am      9 UNK        -0.5000 
     30 C          -3.2797  -19.2491  -42.7472 C.2       8 UNK         0.5000 
     31 O          -3.3680  -19.8020  -43.8438 O.2       8 UNK        -0.5000 
     32 CA         -3.4894  -17.7242  -42.6573 C.3       8 UNK         0.1400 
     33 CB         -4.9660  -17.3731  -42.8944 C.3       8 UNK        -0.1800 
     34 N          -3.0553  -17.1267  -41.3895 N.am      8 UNK        -0.5000 
     35 C          -1.7839  -17.0080  -40.9858 C.2       7 UNK         0.5000 
     36 O          -0.8169  -17.4381  -41.6205 O.2       7 UNK        -0.5000 
     37 CA         -1.5707  -16.3408  -39.6204 C.3       7 UNK         0.1400 
     38 CB         -1.6680  -17.3782  -38.4897 C.3       7 UNK        -0.1800 
     39 N          -0.2503  -15.7225  -39.5911 N.am      7 UNK        -0.5000 
     40 C           0.0293  -14.5009  -39.1208 C.2       6 UNK         0.5000 
     41 O          -0.8069  -13.7695  -38.5881 O.2       6 UNK        -0.5000 
     42 CA          1.4847  -14.0007  -39.2564 C.3       6 UNK         0.1400 
     43 CB          2.1777  -13.9885  -37.8844 C.3       6 UNK        -0.1800 
     44 N           2.3040  -14.7832  -40.1874 N.am      6 UNK        -0.5000 
     45 C           2.1575  -14.7920  -41.5181 C.2       5 UNK         0.5000 
     46 O           1.3254  -14.1052  -42.1187 O.2       5 UNK        -0.5000 
     47 CA          3.0774  -15.7450  -42.2994 C.3       5 UNK         0.1400 
     48 CB          2.9581  -17.1926  -41.7801 C.3       5 UNK        -0.1800 
     49 N           2.7156  -15.6689  -43.7112 N.am      5 UNK        -0.5000 
     50 C           3.4268  -16.1285  -44.7436 C.2       4 UNK         0.5000 
     51 O           4.5044  -16.7176  -44.6319 O.2       4 UNK        -0.5000 
     52 CA          2.8507  -15.8320  -46.1394 C.3       4 UNK         0.1400 
     53 CB          3.4402  -14.5291  -46.7033 C.3       4 UNK        -0.1800 
     54 N           3.1104  -16.9305  -47.0700 N.am      4 UNK        -0.5000 
     55 C           2.4002  -18.0686  -47.0858 C.2       3 UNK         0.5000 
     56 O           1.4634  -18.2809  -46.3184 O.2       3 UNK        -0.5000 
     57 CA          2.7442  -19.1339  -48.1481 C.3       3 UNK         0.1400 
     58 CB          1.7185  -19.0891  -49.2937 C.3       3 UNK        -0.1800 
     59 N           4.0668  -18.9703  -48.7419 N.am      3 UNK        -0.5000 
     60 C           5.2412  -19.2454  -48.1599 C.2       2 UNK         0.5000 
     61 O           5.3557  -19.7668  -47.0512 O.2       2 UNK        -0.5000 
     62 CA          6.4995  -18.8352  -48.9586 C.3       2 UNK         0.1400 
     63 CB          7.0584  -20.0351  -49.7383 C.3       2 UNK        -0.1800 
     64 N           6.2432  -17.7290  -49.8938 N.am      2 UNK        -0.5000 
     65 C           5.8902  -16.4954  -49.5061 C.2       1 UNK         0.5000 
     66 O           5.8447  -16.1510  -48.3239 O.2       1 UNK        -0.5000 
     67 C          -2.2292  -21.3225  -46.9707 C.2       11 UNK         0.5000 
     68 O          -2.2609  -21.7364  -48.1313 O.2       11 UNK        -0.5000 
     69 N          -2.9241  -21.8757  -45.9667 N.am      12 UNK        -0.5000 
     70 CA         -3.6901  -23.1147  -46.0703 C.3       12 UNK         0.1400 
     71 CB         -4.6297  -23.2442  -44.8634 C.3       12 UNK        -0.1800 
     72 C          -2.7734  -24.3440  -46.2022 C.2       12 UNK         0.5000 
     73 O          -3.0356  -25.1967  -47.0485 O.2       12 UNK        -0.5000 
     74 N          -1.6929  -24.3958  -45.4079 N.am      13 UNK        -0.5000 
     75 CA         -0.6724  -25.4497  -45.4505 C.3       13 UNK         0.1400 
     76 CB          0.2904  -25.2868  -44.2652 C.3       13 UNK        -0.1800 
     77 C           0.1049  -25.4873  -46.7806 C.2       13 UNK         0.5000 
     78 O           0.4057  -26.5719  -47.2794 O.2       13 UNK        -0.5000 
     79 N           0.3688  -24.3057  -47.3556 N.am      14 UNK        -0.5000 
     80 CA          0.9454  -24.1210  -48.6907 C.3       14 UNK         0.1400 
     81 CB          1.4683  -22.6804  -48.8046 C.3       14 UNK        -0.1800 
     82 C          -0.0401  -24.4280  -49.8397 C.2       14 UNK         0.5000 
     83 O           0.3685  -24.4070  -51.0005 O.2       14 UNK        -0.5000 
     84 N          -1.3132  -24.6793  -49.5017 N.am      15 UNK        -0.5000 
     85 CA         -2.4569  -24.9976  -50.3613 C.3       15 UNK         0.1400 
     86 CB         -2.1822  -26.2260  -51.2509 C.3       15 UNK        -0.1800 
     87 C          -3.0063  -23.8105  -51.1739 C.2       15 UNK         0.5000 
     88 O          -4.0314  -23.9721  -51.8348 O.2       15 UNK        -0.5000 
     89 N          -2.3688  -22.6362  -51.0884 N.am      16 UNK        -0.5000 
     90 CA         -2.7519  -21.4160  -51.7973 C.3       16 UNK         0.1400 
     91 CB         -1.6687  -20.3460  -51.5945 C.3       16 UNK        -0.1800 
     92 C          -4.1351  -20.8961  -51.3737 C.2       16 UNK         0.5000 
     93 O          -4.9628  -20.6003  -52.2370 O.2       16 UNK        -0.5000 
     94 N          -4.3814  -20.8463  -50.0573 N.am      17 UNK        -0.5000 
     95 CA         -5.6778  -20.4568  -49.4979 C.3       17 UNK         0.1400 
     96 CB         -5.5016  -19.9681  -48.0540 C.3       17 UNK        -0.1800 
     97 C          -6.7130  -21.5936  -49.5590 C.2       17 UNK         0.5000 
     98 O          -7.9087  -21.3113  -49.6275 O.2       17 UNK        -0.5000 
     99 N          -6.2450  -22.8507  -49.5445 N.am      18 UNK        -0.5000 
    100 CA        -7.0895  -24.0458  -49.6097 C.3       18 UNK         0.1400 
    101 CB        -6.2777  -25.2809  -49.1910 C.3       18 UNK        -0.1800 
    102 C         -7.7048  -24.2405  -51.0067 C.2       18 UNK         0.5000 
    103 O         -8.9003  -24.5151  -51.1139 O.2       18 UNK        -0.5000 
    104 N         -6.8833  -24.0610  -52.0503 N.am      19 UNK        -0.5000 
    105 CA        -7.3036  -24.0860  -53.4522 C.3       19 UNK         0.1400 
    106 CB        -6.0733  -24.3574  -54.3325 C.3       19 UNK        -0.1800 
    107 C         -7.9900  -22.7791  -53.8942 C.2       19 UNK         0.5000 
    108 O         -8.6465  -22.7727  -54.9361 O.2       19 UNK        -0.5000 
    109 N         -7.8046  -21.7039  -53.1115 N.am      20 UNK        -0.5000 
    110 CA        -8.2159  -20.3218  -53.3753 C.3       20 UNK         0.1400 
    111 CB        -9.7527  -20.1881  -53.3829 C.3       20 UNK        -0.1800 
    112 C         -7.5411  -19.7758  -54.6498 C.2       20 UNK         0.5000 
    113 O         -8.2086  -19.2488  -55.5414 O.2       20 UNK        -0.5000 
    114 N         -6.2141  -19.9486  -54.7119 N.am      21 UNK        -0.5000 
    115 CA        -5.3662  -19.6208  -55.8587 C.3       21 UNK         0.1400 
    116 CB        -3.9781  -20.2421  -55.6364 C.3       21 UNK        -0.1800 
    117 C         -5.2417  -18.1090  -56.1243 C.2       21 UNK         0.5000 
    118 O         -5.0420  -17.7095  -57.2724 O.2       21 UNK        -0.5000 
    119 N         -5.3601  -17.3025  -55.0653 N.am      22 UNK        -0.5000 
    120 CA        -5.2306  -15.8386  -55.0966 C.3       22 UNK         0.1400 
    121 C         -6.0903  -15.1137  -54.0208 C.2       22 UNK         0.5000 
    122 N         -7.0719  -15.7660  -53.4084 N.am      22 UNK        -0.7600 
    123 O         -5.8878  -13.9335  -53.7491 O.2       22 UNK        -0.5000 
    124 C124       -3.7478  -15.3748  -55.1445 C.3       23 UNK        -0.0398 
    125 S125       -2.6947  -16.0506  -53.8111 S.3       23 UNK        -0.2404 
    126 C126       -2.6718  -14.6561  -52.6455 C.3       23 UNK        -0.0205 
    127 H127        7.4043  -11.5105  -50.4869 H         1 UNK         0.0600 
    128 H128        7.5948  -12.0685  -48.8210 H         1 UNK         0.0600 
    129 H129        5.9839  -11.7336  -49.4617 H         1 UNK         0.0600 
    130 H130        4.8679  -13.5962  -49.9378 H         1 UNK         0.3000 
    131 H131        5.9319  -15.7434  -51.5245 H         1 UNK         0.0600 
    132 H132        3.7219  -16.7931  -51.2226 H         1 UNK         0.0800 
    133 H133        3.3235  -15.7304  -49.9030 H         1 UNK         0.0800 
    134 H134        2.4582  -13.4798  -50.0215 H         1 UNK         0.0800 
    135 H135        1.8209  -12.7177  -51.4486 H         1 UNK         0.0800 
    136 H136       -0.1353  -13.6776  -52.6598 H         1 UNK         0.1150 
    137 H137       -2.8294  -16.0178  -50.2911 H         1 UNK         0.1150 
    138 H138        1.1509  -15.2526  -48.8872 H         1 UNK         0.1150 
    139 H139       -0.2380  -16.6787  -47.6163 H         1 UNK         0.0800 
    140 H140       -1.7957  -15.8892  -47.5371 H         1 UNK         0.0800 
    141 H141       -3.0983  -18.8319  -46.4290 H         1 UNK         0.0800 
    142 H142       -1.5996  -18.0337  -46.0890 H         1 UNK         0.0800 
    143 H143       -0.4836  -20.1458  -47.2916 H         1 UNK         0.0600 
    144 H144       -1.1767  -19.7211  -44.5338 H         1 UNK         0.3000 
    145 H145        1.0538  -22.1439  -43.2308 H         1 UNK         0.0600 
    146 H146        2.0421  -20.1123  -42.1675 H         1 UNK         0.0600 
    147 H147        2.5790  -20.2767  -43.8339 H         1 UNK         0.0600 
    148 H148        1.3365  -19.1012  -43.4341 H         1 UNK         0.0600 
    149 H149       -0.5327  -20.0448  -42.0672 H         1 UNK         0.3000 
    150 H150       -3.5828  -21.8741  -41.8354 H         1 UNK         0.0600 
    151 H151       -1.5804  -21.1400  -39.6307 H         1 UNK         0.0600 
    152 H152       -2.2353  -22.7492  -39.9122 H         1 UNK         0.0600 
    153 H153       -3.3034  -21.4481  -39.4119 H         1 UNK         0.0600 
    154 H154       -2.9367  -19.3653  -40.7612 H         1 UNK         0.3000 
    155 H155       -2.9005  -17.2752  -43.4599 H         1 UNK         0.0600 
    156 H156       -5.6076  -17.7841  -42.1139 H         1 UNK         0.0600 
    157 H157       -5.3152  -17.7699  -43.8489 H         1 UNK         0.0600 
    158 H158       -5.1161  -16.2937  -42.9204 H         1 UNK         0.0600 
    159 H159       -3.7894  -16.7643  -40.7976 H         1 UNK         0.3000 
    160 H160       -2.3474  -15.5850  -39.4851 H         1 UNK         0.0600 
    161 H161       -0.9208  -18.1654  -38.6001 H         1 UNK         0.0600 
    162 H162       -2.6491  -17.8542  -38.4745 H         1 UNK         0.0600 
    163 H163       -1.5196  -16.9117  -37.5156 H         1 UNK         0.0600 
    164 H164        0.4703  -16.2361  -40.0793 H         1 UNK         0.3000 
    165 H165        1.4397  -12.9733  -39.6240 H         1 UNK         0.0600 
    166 H166        3.1806  -13.5663  -37.9518 H         1 UNK         0.0600 
    167 H167        1.6203  -13.3824  -37.1688 H         1 UNK         0.0600 
    168 H168        2.2619  -14.9929  -37.4677 H         1 UNK         0.0600 
    169 H169        3.0097  -15.3725  -39.7697 H         1 UNK         0.3000 
    170 H170        4.1052  -15.3962  -42.1823 H         1 UNK         0.0600 
    171 H171        1.9216  -17.5291  -41.7819 H         1 UNK         0.0600 
    172 H172        3.5391  -17.8886  -42.3845 H         1 UNK         0.0600 
    173 H173        3.3286  -17.2815  -40.7587 H         1 UNK         0.0600 
    174 H174        1.8648  -15.1423  -43.8724 H         1 UNK         0.3000 
    175 H175        1.7694  -15.7003  -46.0548 H         1 UNK         0.0600 
    176 H176        4.5297  -14.5560  -46.7293 H         1 UNK         0.0600 
    177 H177        3.0846  -14.3326  -47.7139 H         1 UNK         0.0600 
    178 H178        3.1535  -13.6765  -46.0868 H         1 UNK         0.0600 
    179 H179        3.9478  -16.8523  -47.6326 H         1 UNK         0.3000 
    180 H180        2.6934  -20.1112  -47.6646 H         1 UNK         0.0600 
    181 H181        1.7199  -18.1229  -49.8001 H         1 UNK         0.0600 
    182 H182        0.7078  -19.2565  -48.9298 H         1 UNK         0.0600 
    183 H183        1.9203  -19.8587  -50.0388 H         1 UNK         0.0600 
    184 H184        4.0890  -18.5831  -49.6719 H         1 UNK         0.3000 
    185 H185        7.2549  -18.5083  -48.2407 H         1 UNK         0.0600 
    186 H186        7.2829  -20.8656  -49.0676 H         1 UNK         0.0600 
    187 H187        6.3492  -20.3978  -50.4835 H         1 UNK         0.0600 
    188 H188        7.9840  -19.7753  -50.2524 H         1 UNK         0.0600 
    189 H189        6.2747  -17.9540  -50.8784 H         1 UNK         0.3000 
    190 H190       -2.8942  -21.4261  -45.0584 H         1 UNK         0.3000 
    191 H191       -4.3057  -23.0619  -46.9707 H         1 UNK         0.0600 
    192 H192       -5.3019  -22.3885  -44.7952 H         1 UNK         0.0600 
    193 H193       -5.2477  -24.1390  -44.9462 H         1 UNK         0.0600 
    194 H194       -4.0788  -23.3117  -43.9254 H         1 UNK         0.0600 
    195 H195       -1.5801  -23.6891  -44.6865 H         1 UNK         0.3000 
    196 H196       -1.1836  -26.4083  -45.3411 H         1 UNK         0.0600 
    197 H197        1.0374  -26.0814  -44.2568 H         1 UNK         0.0600 
    198 H198       -0.2419  -25.3317  -43.3150 H         1 UNK         0.0600 
    199 H199        0.8228  -24.3369  -44.3073 H         1 UNK         0.0600 
    200 H200        0.1753  -23.4582  -46.8301 H         1 UNK         0.3000 
    201 H201        1.7919  -24.8019  -48.7988 H         1 UNK         0.0600 
    202 H202        1.9342  -22.5027  -49.7746 H         1 UNK         0.0600 
    203 H203        2.2216  -22.4771  -48.0436 H         1 UNK         0.0600 
    204 H204        0.6649  -21.9526  -48.6859 H         1 UNK         0.0600 
    205 H205       -1.5385  -24.6577  -48.5147 H         1 UNK         0.3000 
    206 H206       -3.2540  -25.2762  -49.6742 H         1 UNK         0.0600 
    207 H207       -1.8169  -27.0667  -50.6611 H         1 UNK         0.0600 
    208 H208       -3.0937  -26.5541  -51.7521 H         1 UNK         0.0600 
    209 H209       -1.4471  -26.0126  -52.0270 H         1 UNK         0.0600 
    210 H210       -1.5768  -22.5725  -50.4659 H         1 UNK         0.3000 
    211 H211       -2.8027  -21.6502  -52.8626 H         1 UNK         0.0600 
    212 H212       -1.4917  -20.1495  -50.5371 H         1 UNK         0.0600 
    213 H213       -1.9525  -19.4023  -52.0631 H         1 UNK         0.0600 
    214 H214       -0.7220  -20.6571  -52.0362 H         1 UNK         0.0600 
    215 H215       -3.6461  -21.1153  -49.4099 H         1 UNK         0.3000 
    216 H216       -6.0731  -19.6223  -50.0815 H         1 UNK         0.0600 
    217 H217       -6.4548  -19.6454  -47.6333 H         1 UNK         0.0600 
    218 H218       -4.8282  -19.1137  -48.0122 H         1 UNK         0.0600 
    219 H219       -5.1091  -20.7490  -47.4049 H         1 UNK         0.0600 
    220 H220       -5.2470  -22.9913  -49.5252 H         1 UNK         0.3000 
    221 H221       -7.9058  -23.9222  -48.8946 H         1 UNK         0.0600 
    222 H222       -5.5157  -25.5320  -49.9278 H         1 UNK         0.0600 
    223 H223       -5.7858  -25.1306  -48.2296 H         1 UNK         0.0600 
    224 H224       -6.9269  -26.1515  -49.0913 H         1 UNK         0.0600 
    225 H225       -5.8930  -23.8940  -51.8846 H         1 UNK         0.3000 
    226 H226       -8.0147  -24.9025  -53.5946 H         1 UNK         0.0600 
    227 H227       -6.3540  -24.4439  -55.3829 H         1 UNK         0.0600 
    228 H228       -5.3394  -23.5538  -54.2542 H         1 UNK         0.0600 
    229 H229       -5.5817  -25.2881  -54.0489 H         1 UNK         0.0600 
    230 H230       -7.2232  -21.8316  -52.2958 H         1 UNK         0.3000 
    231 H231       -7.8380  -19.7247  -52.5440 H         1 UNK         0.0600 
    232 H232      -10.2065  -20.7224  -54.2178 H         1 UNK         0.0600 
    233 H233      -10.0510  -19.1423  -53.4650 H         1 UNK         0.0600 
    234 H234      -10.1845  -20.5776  -52.4609 H         1 UNK         0.0600 
    235 H235       -5.7451  -20.3444  -53.8996 H         1 UNK         0.3000 
    236 H236       -5.8094  -20.0774  -56.7460 H         1 UNK         0.0600 
    237 H237       -4.0451  -21.3225  -55.5054 H         1 UNK         0.0600 
    238 H238       -3.3253  -20.0573  -56.4904 H         1 UNK         0.0600 
    239 H239       -3.4899  -19.8269  -54.7535 H         1 UNK         0.0600 
    240 H240       -5.4805  -17.7160  -54.1523 H         1 UNK         0.3000 
    241 H241       -5.6861  -15.5020  -56.0297 H         1 UNK         0.0600 
    242 H242       -7.3252  -16.7011  -53.6795 H         1 UNK         0.3800 
    243 H243       -7.6258  -15.2793  -52.7208 H         1 UNK         0.3800 
    244 H244       -3.3088  -15.6995  -56.0885 H         1 UNK         0.0800 
    245 H245       -3.6786  -14.2863  -55.1646 H         1 UNK         0.0800 
    246 H246       -3.6480  -14.5648  -52.1672 H         1 UNK         0.0800 
    247 H247       -2.5046  -13.7234  -53.1863 H         1 UNK         0.0800 
@<TRIPOS>BOND
     1    1    2 1    
     2    1  127 1    
     3    1  128 1    
     4    1  129 1    
     5    2    3 2    
     6    2    4 am   BACKBONE|DICT|INTERRES
     7    4    5 1    
     8    4  130 1    
     9    5    6 1    
    10    5   65 1    
    11    5  131 1    
    12    6    7 1    
    13    6  132 1    
    14    6  133 1    
    15    7    8 1    
    16    8    9 1    
    17    8  134 1    
    18    8  135 1    
    19    9   10 ar   
    20    9   14 ar   
    21   10   11 ar   
    22   10  136 1    
    23   11   12 ar   
    24   11  126 1    
    25   12   13 ar   
    26   12  137 1    
    27   13   14 ar   
    28   13   15 1    
    29   14  138 1    
    30   15   16 1    
    31   15  139 1    
    32   15  140 1    
    33   16   17 1    
    34   17   18 1    
    35   17  141 1    
    36   17  142 1    
    37   18   19 1    
    38   18   67 1    
    39   18  143 1    
    40   19   20 am   BACKBONE|DICT|INTERRES
    41   19  144 1    
    42   20   21 2    
    43   20   22 1    
    44   22   23 1    
    45   22   24 1    
    46   22  145 1    
    47   23  146 1    
    48   23  147 1    
    49   23  148 1    
    50   24   25 am   BACKBONE|DICT|INTERRES
    51   24  149 1    
    52   25   26 2    
    53   25   27 1    
    54   27   28 1    
    55   27   29 1    
    56   27  150 1    
    57   28  151 1    
    58   28  152 1    
    59   28  153 1    
    60   29   30 am   BACKBONE|DICT|INTERRES
    61   29  154 1    
    62   30   31 2    
    63   30   32 1    
    64   32   33 1    
    65   32   34 1    
    66   32  155 1    
    67   33  156 1    
    68   33  157 1    
    69   33  158 1    
    70   34   35 am   BACKBONE|DICT|INTERRES
    71   34  159 1    
    72   35   36 2    
    73   35   37 1    
    74   37   38 1    
    75   37   39 1    
    76   37  160 1    
    77   38  161 1    
    78   38  162 1    
    79   38  163 1    
    80   39   40 am   BACKBONE|DICT|INTERRES
    81   39  164 1    
    82   40   41 2    
    83   40   42 1    
    84   42   43 1    
    85   42   44 1    
    86   42  165 1    
    87   43  166 1    
    88   43  167 1    
    89   43  168 1    
    90   44   45 am   BACKBONE|DICT|INTERRES
    91   44  169 1    
    92   45   46 2    
    93   45   47 1    
    94   47   48 1    
    95   47   49 1    
    96   47  170 1    
    97   48  171 1    
    98   48  172 1    
    99   48  173 1    
   100   49   50 am   BACKBONE|DICT|INTERRES
   101   49  174 1    
   102   50   51 2    
   103   50   52 1    
   104   52   53 1    
   105   52   54 1    
   106   52  175 1    
   107   53  176 1    
   108   53  177 1    
   109   53  178 1    
   110   54   55 am   BACKBONE|DICT|INTERRES
   111   54  179 1    
   112   55   56 2    
   113   55   57 1    
   114   57   58 1    
   115   57   59 1    
   116   57  180 1    
   117   58  181 1    
   118   58  182 1    
   119   58  183 1    
   120   59   60 am   BACKBONE|DICT|INTERRES
   121   59  184 1    
   122   60   61 2    
   123   60   62 1    
   124   62   63 1    
   125   62   64 1    
   126   62  185 1    
   127   63  186 1    
   128   63  187 1    
   129   63  188 1    
   130   64   65 am   BACKBONE|DICT|INTERRES
   131   64  189 1    
   132   65   66 2    
   133   67   68 2    
   134   67   69 am   BACKBONE|DICT|INTERRES
   135   69   70 1    
   136   69  190 1    
   137   70   71 1    
   138   70   72 1    
   139   70  191 1    
   140   71  192 1    
   141   71  193 1    
   142   71  194 1    
   143   72   73 2    
   144   72   74 am   BACKBONE|DICT|INTERRES
   145   74   75 1    
   146   74  195 1    
   147   75   76 1    
   148   75   77 1    
   149   75  196 1    
   150   76  197 1    
   151   76  198 1    
   152   76  199 1    
   153   77   78 2    
   154   77   79 am   BACKBONE|DICT|INTERRES
   155   79   80 1    
   156   79  200 1    
   157   80   81 1    
   158   80   82 1    
   159   80  201 1    
   160   81  202 1    
   161   81  203 1    
   162   81  204 1    
   163   82   83 2    
   164   82   84 am   BACKBONE|DICT|INTERRES
   165   84   85 1    
   166   84  205 1    
   167   85   86 1    
   168   85   87 1    
   169   85  206 1    
   170   86  207 1    
   171   86  208 1    
   172   86  209 1    
   173   87   88 2    
   174   87   89 am   BACKBONE|DICT|INTERRES
   175   89   90 1    
   176   89  210 1    
   177   90   91 1    
   178   90   92 1    
   179   90  211 1    
   180   91  212 1    
   181   91  213 1    
   182   91  214 1    
   183   92   93 2    
   184   92   94 am   BACKBONE|DICT|INTERRES
   185   94   95 1    
   186   94  215 1    
   187   95   96 1    
   188   95   97 1    
   189   95  216 1    
   190   96  217 1    
   191   96  218 1    
   192   96  219 1    
   193   97   98 2    
   194   97   99 am   BACKBONE|DICT|INTERRES
   195   99  100 1    
   196   99  220 1    
   197  100  101 1    
   198  100  102 1    
   199  100  221 1    
   200  101  222 1    
   201  101  223 1    
   202  101  224 1    
   203  102  103 2    
   204  102  104 am   BACKBONE|DICT|INTERRES
   205  104  105 1    
   206  104  225 1    
   207  105  106 1    
   208  105  107 1    
   209  105  226 1    
   210  106  227 1    
   211  106  228 1    
   212  106  229 1    
   213  107  108 2    
   214  107  109 am   BACKBONE|DICT|INTERRES
   215  109  110 1    
   216  109  230 1    
   217  110  111 1    
   218  110  112 1    
   219  110  231 1    
   220  111  232 1    
   221  111  233 1    
   222  111  234 1    
   223  112  113 2    
   224  112  114 am   BACKBONE|DICT|INTERRES
   225  114  115 1    
   226  114  235 1    
   227  115  116 1    
   228  115  117 1    
   229  115  236 1    
   230  116  237 1    
   231  116  238 1    
   232  116  239 1    
   233  117  118 2    
   234  117  119 am   BACKBONE|DICT|INTERRES
   235  119  120 1    
   236  119  240 1    
   237  120  121 1    
   238  120  124 1    
   239  120  241 1    
   240  121  122 am   BACKBONE|DICT|INTERRES
   241  121  123 2    
   242  122  242 1    
   243  122  243 1    
   244  124  125 1    
   245  124  244 1    
   246  124  245 1    
   247  125  126 1    
   248  126  246 1    
   249  126  247 1    
@<TRIPOS>SUBSTRUCTURE
     1 UNK         1 GROUP             0       ****    0 ROOT    
