@<TRIPOS>MOLECULE
3R540
247   249    1
SMALL
USER_CHARGES


@<TRIPOS>ATOM
      1 CA          8.2016  -17.2968  -51.8807 C.3       0 UNK        -0.1800 
      2 C           7.5574  -17.9187  -50.6499 C.2       0 UNK         0.5000 
      3 O           8.2561  -18.2458  -49.6908 O.2       0 UNK        -0.5000 
      4 N           6.2281  -18.0778  -50.6706 N.am      1 UNK        -0.5000 
      5 CA          5.4304  -18.6584  -49.5816 C.3       1 UNK         0.1400 
      6 C6          4.1174  -19.2848  -50.1145 C.3       23 UNK        -0.0398 
      7 S7          2.9820  -18.0948  -50.9193 S.3       23 UNK        -0.2404 
      8 C8          1.3609  -18.8160  -50.5081 C.3       23 UNK        -0.0205 
      9 C9          0.6939  -18.1555  -49.3105 C.ar      23 UNK        -0.0193 
     10 C10        -0.5193  -17.4832  -49.4714 C.ar      23 UNK        -0.1150 
     11 C11        -1.1666  -16.9101  -48.3739 C.ar      23 UNK        -0.0193 
     12 C12        -0.5969  -17.0236  -47.1008 C.ar      23 UNK        -0.1150 
     13 C13         0.6213  -17.6887  -46.9251 C.ar      23 UNK        -0.0193 
     14 C14         1.2592  -18.2461  -48.0360 C.ar      23 UNK        -0.1150 
     15 C15         1.2749  -17.7528  -45.5503 C.3       23 UNK        -0.0205 
     16 S16         0.9901  -19.3424  -44.7006 S.3       23 UNK        -0.2404 
     17 C17         2.3418  -20.3951  -45.3527 C.3       23 UNK        -0.0398 
     18 CA          1.8832  -21.7491  -45.9536 C.3       11 UNK         0.1400 
     19 N           1.1529  -22.5698  -44.9825 N.am      11 UNK        -0.5000 
     20 C           0.8156  -23.8541  -45.1657 C.2       10 UNK         0.5000 
     21 O           1.1067  -24.5037  -46.1700 O.2       10 UNK        -0.5000 
     22 CA         -0.0256  -24.5140  -44.0576 C.3       10 UNK         0.1400 
     23 CB          0.8859  -25.0987  -42.9686 C.3       10 UNK        -0.1800 
     24 N          -1.0101  -23.6234  -43.4356 N.am      10 UNK        -0.5000 
     25 C          -1.9917  -22.9723  -44.0767 C.2       9 UNK         0.5000 
     26 O          -2.1278  -22.9839  -45.3006 O.2       9 UNK        -0.5000 
     27 CA         -2.9793  -22.1636  -43.2191 C.3       9 UNK         0.1400 
     28 CB         -2.9428  -22.5173  -41.7186 C.3       9 UNK        -0.1800 
     29 N          -2.6805  -20.7455  -43.3683 N.am      9 UNK        -0.5000 
     30 C          -3.3520  -19.8728  -44.1239 C.2       8 UNK         0.5000 
     31 O          -4.3512  -20.1674  -44.7818 O.2       8 UNK        -0.5000 
     32 CA         -2.8306  -18.4173  -44.1019 C.3       8 UNK         0.1400 
     33 CB         -3.5939  -17.5079  -45.0805 C.3       8 UNK        -0.1800 
     34 N          -2.8926  -17.8071  -42.7711 N.am      8 UNK        -0.5000 
     35 C          -2.1412  -18.1173  -41.7056 C.2       7 UNK         0.5000 
     36 O          -1.2616  -18.9812  -41.7096 O.2       7 UNK        -0.5000 
     37 CA         -2.4318  -17.2929  -40.4361 C.3       7 UNK         0.1400 
     38 CB         -1.7086  -17.8268  -39.1810 C.3       7 UNK        -0.1800 
     39 N          -2.1567  -15.8662  -40.6475 N.am      7 UNK        -0.5000 
     40 C          -0.9708  -15.3073  -40.9321 C.2       6 UNK         0.5000 
     41 O           0.0935  -15.9284  -40.9908 O.2       6 UNK        -0.5000 
     42 CA         -0.9827  -13.7809  -41.1506 C.3       6 UNK         0.1400 
     43 CB         -1.1135  -13.0414  -39.8087 C.3       6 UNK        -0.1800 
     44 N           0.2363  -13.3223  -41.8161 N.am      6 UNK        -0.5000 
     45 C           0.5180  -13.5112  -43.1104 C.2       5 UNK         0.5000 
     46 O          -0.2713  -13.9980  -43.9242 O.2       5 UNK        -0.5000 
     47 CA          1.9438  -13.1223  -43.5428 C.3       5 UNK         0.1400 
     48 CB          2.9017  -14.3070  -43.3400 C.3       5 UNK        -0.1800 
     49 N           2.0047  -12.6829  -44.9369 N.am      5 UNK        -0.5000 
     50 C           1.5199  -11.5132  -45.3811 C.2       4 UNK         0.5000 
     51 O           0.9888  -10.6800  -44.6446 O.2       4 UNK        -0.5000 
     52 CA          1.6735  -11.1842  -46.8819 C.3       4 UNK         0.1400 
     53 CB          2.7698  -10.1268  -47.0891 C.3       4 UNK        -0.1800 
     54 N           1.9900  -12.3477  -47.7084 N.am      4 UNK        -0.5000 
     55 C           1.1129  -13.2918  -48.0714 C.2       3 UNK         0.5000 
     56 O          -0.0912  -13.2331  -47.8217 O.2       3 UNK        -0.5000 
     57 CA          1.6701  -14.5083  -48.8399 C.3       3 UNK         0.1400 
     58 CB          1.3023  -14.4239  -50.3291 C.3       3 UNK        -0.1800 
     59 N           3.1157  -14.7311  -48.7159 N.am      3 UNK        -0.5000 
     60 C           3.7744  -14.9598  -47.5707 C.2       2 UNK         0.5000 
     61 O           3.2423  -14.9305  -46.4618 O.2       2 UNK        -0.5000 
     62 CA          5.2793  -15.2556  -47.7117 C.3       2 UNK         0.1400 
     63 CB          5.9973  -15.4367  -46.3570 C.3       2 UNK        -0.1800 
     64 N           5.5176  -16.3912  -48.6082 N.am      2 UNK        -0.5000 
     65 C           5.1708  -17.6748  -48.4159 C.2       1 UNK         0.5000 
     66 O           4.6634  -18.1042  -47.3797 O.2       1 UNK        -0.5000 
     67 C           1.0999  -21.5691  -47.2699 C.2       11 UNK         0.5000 
     68 O           1.6866  -21.6656  -48.3483 O.2       11 UNK        -0.5000 
     69 N          -0.2153  -21.3470  -47.1493 N.am      12 UNK        -0.5000 
     70 CA         -1.1335  -21.1976  -48.2701 C.3       12 UNK         0.1400 
     71 CB         -2.4095  -20.4900  -47.7967 C.3       12 UNK        -0.1800 
     72 C          -1.4536  -22.5527  -48.9102 C.2       12 UNK         0.5000 
     73 O          -1.4963  -22.6446  -50.1360 O.2       12 UNK        -0.5000 
     74 N          -1.6492  -23.5866  -48.0805 N.am      13 UNK        -0.5000 
     75 CA         -1.9302  -24.9585  -48.5061 C.3       13 UNK         0.1400 
     76 CB         -2.2397  -25.8264  -47.2793 C.3       13 UNK        -0.1800 
     77 C          -0.7976  -25.5753  -49.3449 C.2       13 UNK         0.5000 
     78 O          -1.0829  -26.2589  -50.3276 O.2       13 UNK        -0.5000 
     79 N           0.4584  -25.2721  -48.9867 N.am      14 UNK        -0.5000 
     80 CA          1.6616  -25.6823  -49.7163 C.3       14 UNK         0.1400 
     81 CB          2.9024  -25.2705  -48.9096 C.3       14 UNK        -0.1800 
     82 C           1.7437  -25.1201  -51.1507 C.2       14 UNK         0.5000 
     83 O           2.3117  -25.7756  -52.0248 O.2       14 UNK        -0.5000 
     84 N           1.1650  -23.9323  -51.3692 N.am      15 UNK        -0.5000 
     85 CA          1.0851  -23.2646  -52.6702 C.3       15 UNK         0.1400 
     86 CB          1.2507  -21.7550  -52.4417 C.3       15 UNK        -0.1800 
     87 C          -0.2427  -23.5425  -53.4037 C.2       15 UNK         0.5000 
     88 O          -0.4026  -23.0918  -54.5383 O.2       15 UNK        -0.5000 
     89 N          -1.1808  -24.2318  -52.7354 N.am      16 UNK        -0.5000 
     90 CA         -2.5801  -24.4548  -53.1210 C.3       16 UNK         0.1400 
     91 CB         -2.6832  -25.2833  -54.4178 C.3       16 UNK        -0.1800 
     92 C          -3.4228  -23.1585  -53.1693 C.2       16 UNK         0.5000 
     93 O          -4.4898  -23.1417  -53.7838 O.2       16 UNK        -0.5000 
     94 N          -2.9583  -22.1047  -52.4838 N.am      17 UNK        -0.5000 
     95 CA         -3.6432  -20.8204  -52.3358 C.3       17 UNK         0.1400 
     96 CB         -2.6307  -19.7539  -51.8894 C.3       17 UNK        -0.1800 
     97 C          -4.8156  -20.9016  -51.3435 C.2       17 UNK         0.5000 
     98 O          -5.7714  -20.1360  -51.4716 O.2       17 UNK        -0.5000 
     99 N          -4.7452  -21.8519  -50.3980 N.am      18 UNK        -0.5000 
    100 CA        -5.7828  -22.1265  -49.4002 C.3       18 UNK         0.1400 
    101 CB        -5.2701  -23.1673  -48.3945 C.3       18 UNK        -0.1800 
    102 C         -7.1127  -22.5968  -50.0187 C.2       18 UNK         0.5000 
    103 O         -8.1709  -22.3072  -49.4621 O.2       18 UNK        -0.5000 
    104 N         -7.0450  -23.2610  -51.1824 N.am      19 UNK        -0.5000 
    105 CA        -8.2056  -23.6910  -51.9683 C.3       19 UNK         0.1400 
    106 CB        -7.7342  -24.6372  -53.0828 C.3       19 UNK        -0.1800 
    107 C         -9.0061  -22.5125  -52.5600 C.2       19 UNK         0.5000 
    108 O        -10.2108  -22.6453  -52.7767 O.2       19 UNK        -0.5000 
    109 N         -8.3282  -21.3787  -52.7802 N.am      20 UNK        -0.5000 
    110 CA        -8.9126  -20.1061  -53.2035 C.3       20 UNK         0.1400 
    111 CB        -7.9862  -19.4813  -54.2609 C.3       20 UNK        -0.1800 
    112 C         -9.1071  -19.1409  -52.0155 C.2       20 UNK         0.5000 
    113 O         -9.4979  -17.9931  -52.2337 O.2       20 UNK        -0.5000 
    114 N         -8.7856  -19.5933  -50.7917 N.am      21 UNK        -0.5000 
    115 CA        -8.7624  -18.8411  -49.5311 C.3       21 UNK         0.1400 
    116 CB       -10.2015  -18.5369  -49.0674 C.3       21 UNK        -0.1800 
    117 C         -7.8700  -17.5801  -49.5884 C.2       21 UNK         0.5000 
    118 O         -8.1907  -16.5723  -48.9558 O.2       21 UNK        -0.5000 
    119 N         -6.7882  -17.6517  -50.3783 N.am      22 UNK        -0.5000 
    120 CA        -5.8974  -16.5360  -50.7433 C.3       22 UNK         0.1400 
    121 C         -6.5779  -15.4069  -51.5834 C.2       22 UNK         0.5000 
    122 N         -7.7528  -15.6156  -52.1674 N.am      22 UNK        -0.7600 
    123 O         -6.0161  -14.3272  -51.7473 O.2       22 UNK        -0.5000 
    124 C124       -5.0854  -15.9897  -49.5336 C.3       23 UNK        -0.0398 
    125 S125       -3.8723  -17.2087  -48.9212 S.3       23 UNK        -0.2404 
    126 C126       -2.4483  -16.1229  -48.5893 C.3       23 UNK        -0.0205 
    127 H127        8.7230  -16.3791  -51.6086 H         1 UNK         0.0600 
    128 H128        7.4640  -17.0547  -52.6462 H         1 UNK         0.0600 
    129 H129        8.9264  -17.9864  -52.3134 H         1 UNK         0.0600 
    130 H130        5.7019  -17.7910  -51.4848 H         1 UNK         0.3000 
    131 H131        6.0110  -19.4773  -49.1510 H         1 UNK         0.0600 
    132 H132        3.6028  -19.8087  -49.3084 H         1 UNK         0.0800 
    133 H133        4.3567  -20.0582  -50.8455 H         1 UNK         0.0800 
    134 H134        1.4657  -19.8806  -50.3057 H         1 UNK         0.0800 
    135 H135        0.7219  -18.7383  -51.3889 H         1 UNK         0.0800 
    136 H136       -0.9642  -17.3995  -50.4530 H         1 UNK         0.1150 
    137 H137       -1.0815  -16.5640  -46.2518 H         1 UNK         0.1150 
    138 H138        2.2002  -18.7541  -47.9083 H         1 UNK         0.1150 
    139 H139        2.3454  -17.5584  -45.6371 H         1 UNK         0.0800 
    140 H140        0.8812  -16.9528  -44.9210 H         1 UNK         0.0800 
    141 H141        2.9348  -19.8412  -46.0804 H         1 UNK         0.0800 
    142 H142        3.0254  -20.5886  -44.5253 H         1 UNK         0.0800 
    143 H143        2.7880  -22.3044  -46.2111 H         1 UNK         0.0600 
    144 H144        0.8554  -22.1059  -44.1366 H         1 UNK         0.3000 
    145 H145       -0.5768  -25.3386  -44.5117 H         1 UNK         0.0600 
    146 H146        0.3112  -25.6606  -42.2321 H         1 UNK         0.0600 
    147 H147        1.6180  -25.7840  -43.3982 H         1 UNK         0.0600 
    148 H148        1.4363  -24.3182  -42.4418 H         1 UNK         0.0600 
    149 H149       -0.9693  -23.5481  -42.4297 H         1 UNK         0.3000 
    150 H150       -3.9814  -22.3860  -43.5913 H         1 UNK         0.0600 
    151 H151       -3.1202  -23.5817  -41.5580 H         1 UNK         0.0600 
    152 H152       -3.7223  -21.9796  -41.1783 H         1 UNK         0.0600 
    153 H153       -1.9898  -22.2581  -41.2556 H         1 UNK         0.0600 
    154 H154       -1.9026  -20.3815  -42.8238 H         1 UNK         0.3000 
    155 H155       -1.7872  -18.4412  -44.4187 H         1 UNK         0.0600 
    156 H156       -3.1762  -16.5013  -45.0981 H         1 UNK         0.0600 
    157 H157       -4.6497  -17.4275  -44.8194 H         1 UNK         0.0600 
    158 H158       -3.5372  -17.9007  -46.0950 H         1 UNK         0.0600 
    159 H159       -3.5909  -17.0869  -42.6592 H         1 UNK         0.3000 
    160 H160       -3.5033  -17.3782  -40.2484 H         1 UNK         0.0600 
    161 H161       -0.6243  -17.8161  -39.2932 H         1 UNK         0.0600 
    162 H162       -2.0017  -18.8570  -38.9755 H         1 UNK         0.0600 
    163 H163       -1.9599  -17.2356  -38.3005 H         1 UNK         0.0600 
    164 H164       -2.9668  -15.2631  -40.6118 H         1 UNK         0.3000 
    165 H165       -1.8400  -13.5269  -41.7780 H         1 UNK         0.0600 
    166 H166       -0.2832  -13.2720  -39.1398 H         1 UNK         0.0600 
    167 H167       -1.1373  -11.9612  -39.9542 H         1 UNK         0.0600 
    168 H168       -2.0345  -13.3170  -39.2937 H         1 UNK         0.0600 
    169 H169        0.9577  -12.9579  -41.2114 H         1 UNK         0.3000 
    170 H170        2.2868  -12.2963  -42.9159 H         1 UNK         0.0600 
    171 H171        2.9525  -14.5927  -42.2886 H         1 UNK         0.0600 
    172 H172        2.5764  -15.1856  -43.8983 H         1 UNK         0.0600 
    173 H173        3.9140  -14.0608  -43.6611 H         1 UNK         0.0600 
    174 H174        2.3853  -13.3519  -45.5990 H         1 UNK         0.3000 
    175 H175        0.7255  -10.7624  -47.2225 H         1 UNK         0.0600 
    176 H176        3.7465  -10.4920  -46.7692 H         1 UNK         0.0600 
    177 H177        2.8454   -9.8363  -48.1372 H         1 UNK         0.0600 
    178 H178        2.5547   -9.2225  -46.5183 H         1 UNK         0.0600 
    179 H179        2.9584  -12.4761  -47.9607 H         1 UNK         0.3000 
    180 H180        1.1837  -15.3840  -48.4197 H         1 UNK         0.0600 
    181 H181        0.2264  -14.3002  -50.4594 H         1 UNK         0.0600 
    182 H182        1.5853  -15.3342  -50.8575 H         1 UNK         0.0600 
    183 H183        1.7936  -13.5817  -50.8176 H         1 UNK         0.0600 
    184 H184        3.6297  -14.7829  -49.5828 H         1 UNK         0.3000 
    185 H185        5.7211  -14.3834  -48.1959 H         1 UNK         0.0600 
    186 H186        5.9192  -14.5310  -45.7546 H         1 UNK         0.0600 
    187 H187        5.5707  -16.2504  -45.7702 H         1 UNK         0.0600 
    188 H188        7.0581  -15.6440  -46.4974 H         1 UNK         0.0600 
    189 H189        5.9347  -16.1643  -49.4994 H         1 UNK         0.3000 
    190 H190       -0.6223  -21.3365  -46.2251 H         1 UNK         0.3000 
    191 H191       -0.6616  -20.5747  -49.0303 H         1 UNK         0.0600 
    192 H192       -3.0959  -20.3169  -48.6252 H         1 UNK         0.0600 
    193 H193       -2.1773  -19.5180  -47.3636 H         1 UNK         0.0600 
    194 H194       -2.9420  -21.0696  -47.0432 H         1 UNK         0.0600 
    195 H195       -1.6470  -23.4098  -47.0788 H         1 UNK         0.3000 
    196 H196       -2.8208  -24.9309  -49.1357 H         1 UNK         0.0600 
    197 H197       -2.5340  -26.8330  -47.5784 H         1 UNK         0.0600 
    198 H198       -3.0583  -25.4069  -46.6940 H         1 UNK         0.0600 
    199 H199       -1.3719  -25.9194  -46.6273 H         1 UNK         0.0600 
    200 H200        0.6066  -24.7451  -48.1316 H         1 UNK         0.3000 
    201 H201        1.6486  -26.7715  -49.7919 H         1 UNK         0.0600 
    202 H202        2.9114  -25.7481  -47.9298 H         1 UNK         0.0600 
    203 H203        2.9408  -24.1913  -48.7561 H         1 UNK         0.0600 
    204 H204        3.8196  -25.5640  -49.4218 H         1 UNK         0.0600 
    205 H205        0.7103  -23.4652  -50.5956 H         1 UNK         0.3000 
    206 H206        1.8973  -23.6030  -53.3166 H         1 UNK         0.0600 
    207 H207        2.1883  -21.5350  -51.9307 H         1 UNK         0.0600 
    208 H208        1.2620  -21.2107  -53.3867 H         1 UNK         0.0600 
    209 H209        0.4325  -21.3541  -51.8424 H         1 UNK         0.0600 
    210 H210       -0.9347  -24.5727  -51.8148 H         1 UNK         0.3000 
    211 H211       -3.0111  -25.0550  -52.3185 H         1 UNK         0.0600 
    212 H212       -2.3547  -24.7179  -55.2899 H         1 UNK         0.0600 
    213 H213       -3.7124  -25.5936  -54.6018 H         1 UNK         0.0600 
    214 H214       -2.0792  -26.1886  -54.3560 H         1 UNK         0.0600 
    215 H215       -2.1252  -22.2379  -51.9190 H         1 UNK         0.3000 
    216 H216       -4.0484  -20.5255  -53.3059 H         1 UNK         0.0600 
    217 H217       -3.1093  -18.7791  -51.7852 H         1 UNK         0.0600 
    218 H218       -1.8261  -19.6455  -52.6168 H         1 UNK         0.0600 
    219 H219       -2.1796  -19.9991  -50.9283 H         1 UNK         0.0600 
    220 H220       -3.9168  -22.4290  -50.3709 H         1 UNK         0.3000 
    221 H221       -5.9794  -21.1970  -48.8615 H         1 UNK         0.0600 
    222 H222       -5.0353  -24.1146  -48.8800 H         1 UNK         0.0600 
    223 H223       -4.3776  -22.8178  -47.8782 H         1 UNK         0.0600 
    224 H224       -6.0199  -23.3709  -47.6289 H         1 UNK         0.0600 
    225 H225       -6.1369  -23.4370  -51.5871 H         1 UNK         0.3000 
    226 H226       -8.8747  -24.2463  -51.3076 H         1 UNK         0.0600 
    227 H227       -7.2093  -25.5005  -52.6737 H         1 UNK         0.0600 
    228 H228       -8.5807  -25.0146  -53.6578 H         1 UNK         0.0600 
    229 H229       -7.0629  -24.1347  -53.7802 H         1 UNK         0.0600 
    230 H230       -7.3432  -21.3508  -52.5500 H         1 UNK         0.3000 
    231 H231       -9.8919  -20.2688  -53.6575 H         1 UNK         0.0600 
    232 H232       -8.4043  -18.5530  -54.6523 H         1 UNK         0.0600 
    233 H233       -7.8450  -20.1536  -55.1073 H         1 UNK         0.0600 
    234 H234       -7.0030  -19.2501  -53.8488 H         1 UNK         0.0600 
    235 H235       -8.4877  -20.5568  -50.7140 H         1 UNK         0.3000 
    236 H236       -8.3070  -19.4991  -48.7899 H         1 UNK         0.0600 
    237 H237      -10.8000  -19.4467  -49.0207 H         1 UNK         0.0600 
    238 H238      -10.2080  -18.0950  -48.0704 H         1 UNK         0.0600 
    239 H239      -10.7029  -17.8393  -49.7389 H         1 UNK         0.0600 
    240 H240       -6.5817  -18.5363  -50.8350 H         1 UNK         0.3000 
    241 H241       -5.1786  -16.9692  -51.4399 H         1 UNK         0.0600 
    242 H242       -8.2531  -16.4928  -52.0626 H         1 UNK         0.3800 
    243 H243       -8.1647  -14.8769  -52.7145 H         1 UNK         0.3800 
    244 H244       -4.5448  -15.0852  -49.8142 H         1 UNK         0.0800 
    245 H245       -5.7410  -15.6968  -48.7136 H         1 UNK         0.0800 
    246 H246       -2.6669  -15.4977  -47.7221 H         1 UNK         0.0800 
    247 H247       -2.2958  -15.4427  -49.4285 H         1 UNK         0.0800 
@<TRIPOS>BOND
     1    1    2 1    
     2    1  127 1    
     3    1  128 1    
     4    1  129 1    
     5    2    3 2    
     6    2    4 am   BACKBONE|DICT|INTERRES
     7    4    5 1    
     8    4  130 1    
     9    5    6 1    
    10    5   65 1    
    11    5  131 1    
    12    6    7 1    
    13    6  132 1    
    14    6  133 1    
    15    7    8 1    
    16    8    9 1    
    17    8  134 1    
    18    8  135 1    
    19    9   10 ar   
    20    9   14 ar   
    21   10   11 ar   
    22   10  136 1    
    23   11   12 ar   
    24   11  126 1    
    25   12   13 ar   
    26   12  137 1    
    27   13   14 ar   
    28   13   15 1    
    29   14  138 1    
    30   15   16 1    
    31   15  139 1    
    32   15  140 1    
    33   16   17 1    
    34   17   18 1    
    35   17  141 1    
    36   17  142 1    
    37   18   19 1    
    38   18   67 1    
    39   18  143 1    
    40   19   20 am   BACKBONE|DICT|INTERRES
    41   19  144 1    
    42   20   21 2    
    43   20   22 1    
    44   22   23 1    
    45   22   24 1    
    46   22  145 1    
    47   23  146 1    
    48   23  147 1    
    49   23  148 1    
    50   24   25 am   BACKBONE|DICT|INTERRES
    51   24  149 1    
    52   25   26 2    
    53   25   27 1    
    54   27   28 1    
    55   27   29 1    
    56   27  150 1    
    57   28  151 1    
    58   28  152 1    
    59   28  153 1    
    60   29   30 am   BACKBONE|DICT|INTERRES
    61   29  154 1    
    62   30   31 2    
    63   30   32 1    
    64   32   33 1    
    65   32   34 1    
    66   32  155 1    
    67   33  156 1    
    68   33  157 1    
    69   33  158 1    
    70   34   35 am   BACKBONE|DICT|INTERRES
    71   34  159 1    
    72   35   36 2    
    73   35   37 1    
    74   37   38 1    
    75   37   39 1    
    76   37  160 1    
    77   38  161 1    
    78   38  162 1    
    79   38  163 1    
    80   39   40 am   BACKBONE|DICT|INTERRES
    81   39  164 1    
    82   40   41 2    
    83   40   42 1    
    84   42   43 1    
    85   42   44 1    
    86   42  165 1    
    87   43  166 1    
    88   43  167 1    
    89   43  168 1    
    90   44   45 am   BACKBONE|DICT|INTERRES
    91   44  169 1    
    92   45   46 2    
    93   45   47 1    
    94   47   48 1    
    95   47   49 1    
    96   47  170 1    
    97   48  171 1    
    98   48  172 1    
    99   48  173 1    
   100   49   50 am   BACKBONE|DICT|INTERRES
   101   49  174 1    
   102   50   51 2    
   103   50   52 1    
   104   52   53 1    
   105   52   54 1    
   106   52  175 1    
   107   53  176 1    
   108   53  177 1    
   109   53  178 1    
   110   54   55 am   BACKBONE|DICT|INTERRES
   111   54  179 1    
   112   55   56 2    
   113   55   57 1    
   114   57   58 1    
   115   57   59 1    
   116   57  180 1    
   117   58  181 1    
   118   58  182 1    
   119   58  183 1    
   120   59   60 am   BACKBONE|DICT|INTERRES
   121   59  184 1    
   122   60   61 2    
   123   60   62 1    
   124   62   63 1    
   125   62   64 1    
   126   62  185 1    
   127   63  186 1    
   128   63  187 1    
   129   63  188 1    
   130   64   65 am   BACKBONE|DICT|INTERRES
   131   64  189 1    
   132   65   66 2    
   133   67   68 2    
   134   67   69 am   BACKBONE|DICT|INTERRES
   135   69   70 1    
   136   69  190 1    
   137   70   71 1    
   138   70   72 1    
   139   70  191 1    
   140   71  192 1    
   141   71  193 1    
   142   71  194 1    
   143   72   73 2    
   144   72   74 am   BACKBONE|DICT|INTERRES
   145   74   75 1    
   146   74  195 1    
   147   75   76 1    
   148   75   77 1    
   149   75  196 1    
   150   76  197 1    
   151   76  198 1    
   152   76  199 1    
   153   77   78 2    
   154   77   79 am   BACKBONE|DICT|INTERRES
   155   79   80 1    
   156   79  200 1    
   157   80   81 1    
   158   80   82 1    
   159   80  201 1    
   160   81  202 1    
   161   81  203 1    
   162   81  204 1    
   163   82   83 2    
   164   82   84 am   BACKBONE|DICT|INTERRES
   165   84   85 1    
   166   84  205 1    
   167   85   86 1    
   168   85   87 1    
   169   85  206 1    
   170   86  207 1    
   171   86  208 1    
   172   86  209 1    
   173   87   88 2    
   174   87   89 am   BACKBONE|DICT|INTERRES
   175   89   90 1    
   176   89  210 1    
   177   90   91 1    
   178   90   92 1    
   179   90  211 1    
   180   91  212 1    
   181   91  213 1    
   182   91  214 1    
   183   92   93 2    
   184   92   94 am   BACKBONE|DICT|INTERRES
   185   94   95 1    
   186   94  215 1    
   187   95   96 1    
   188   95   97 1    
   189   95  216 1    
   190   96  217 1    
   191   96  218 1    
   192   96  219 1    
   193   97   98 2    
   194   97   99 am   BACKBONE|DICT|INTERRES
   195   99  100 1    
   196   99  220 1    
   197  100  101 1    
   198  100  102 1    
   199  100  221 1    
   200  101  222 1    
   201  101  223 1    
   202  101  224 1    
   203  102  103 2    
   204  102  104 am   BACKBONE|DICT|INTERRES
   205  104  105 1    
   206  104  225 1    
   207  105  106 1    
   208  105  107 1    
   209  105  226 1    
   210  106  227 1    
   211  106  228 1    
   212  106  229 1    
   213  107  108 2    
   214  107  109 am   BACKBONE|DICT|INTERRES
   215  109  110 1    
   216  109  230 1    
   217  110  111 1    
   218  110  112 1    
   219  110  231 1    
   220  111  232 1    
   221  111  233 1    
   222  111  234 1    
   223  112  113 2    
   224  112  114 am   BACKBONE|DICT|INTERRES
   225  114  115 1    
   226  114  235 1    
   227  115  116 1    
   228  115  117 1    
   229  115  236 1    
   230  116  237 1    
   231  116  238 1    
   232  116  239 1    
   233  117  118 2    
   234  117  119 am   BACKBONE|DICT|INTERRES
   235  119  120 1    
   236  119  240 1    
   237  120  121 1    
   238  120  124 1    
   239  120  241 1    
   240  121  122 am   BACKBONE|DICT|INTERRES
   241  121  123 2    
   242  122  242 1    
   243  122  243 1    
   244  124  125 1    
   245  124  244 1    
   246  124  245 1    
   247  125  126 1    
   248  126  246 1    
   249  126  247 1    
@<TRIPOS>SUBSTRUCTURE
     1 UNK         1 GROUP             0       ****    0 ROOT    
