@<TRIPOS>MOLECULE
3R540
247   249    1
SMALL
USER_CHARGES


@<TRIPOS>ATOM
      1 CA          0.1360  -10.6524  -44.6019 C.3       0 UNK        -0.1800 
      2 C           1.0125  -11.6894  -45.2899 C.2       0 UNK         0.5000 
      3 O           1.3735  -12.6918  -44.6734 O.2       0 UNK        -0.5000 
      4 N           1.3437  -11.4573  -46.5684 N.am      1 UNK        -0.5000 
      5 CA          2.1292  -12.3566  -47.4259 C.3       1 UNK         0.1400 
      6 C6          1.4293  -13.7294  -47.6192 C.3       23 UNK        -0.0398 
      7 S7          1.8430  -14.5524  -49.1915 S.3       23 UNK        -0.2404 
      8 C8          0.2473  -15.3442  -49.5493 C.3       23 UNK        -0.0205 
      9 C9          0.3760  -16.4033  -50.6285 C.ar      23 UNK        -0.0193 
     10 C10        -0.0337  -16.1323  -51.9354 C.ar      23 UNK        -0.1150 
     11 C11         0.0701  -17.1112  -52.9257 C.ar      23 UNK        -0.0193 
     12 C12         0.5924  -18.3668  -52.5982 C.ar      23 UNK        -0.1150 
     13 C13         0.9955  -18.6609  -51.2906 C.ar      23 UNK        -0.0193 
     14 C14         0.8897  -17.6640  -50.3119 C.ar      23 UNK        -0.1150 
     15 C15         1.5656  -20.0499  -50.9900 C.3       23 UNK        -0.0205 
     16 S16         1.4703  -20.5827  -49.2426 S.3       23 UNK        -0.2404 
     17 C17        -0.3281  -20.7703  -49.0126 C.3       23 UNK        -0.0398 
     18 CA         -0.6728  -21.9145  -48.0327 C.3       11 UNK         0.1400 
     19 N          -0.2682  -21.6336  -46.6508 N.am      11 UNK        -0.5000 
     20 C          -0.2701  -22.5537  -45.6745 C.2       10 UNK         0.5000 
     21 O          -0.5966  -23.7284  -45.8446 O.2       10 UNK        -0.5000 
     22 CA          0.1079  -22.0799  -44.2615 C.3       10 UNK         0.1400 
     23 CB          1.6237  -21.8614  -44.1434 C.3       10 UNK        -0.1800 
     24 N          -0.6064  -20.8672  -43.8637 N.am      10 UNK        -0.5000 
     25 C          -1.9380  -20.7742  -43.7352 C.2       9 UNK         0.5000 
     26 O          -2.7091  -21.7170  -43.9071 O.2       9 UNK        -0.5000 
     27 CA         -2.5139  -19.3848  -43.4076 C.3       9 UNK         0.1400 
     28 CB         -2.3948  -19.0793  -41.9074 C.3       9 UNK        -0.1800 
     29 N          -1.8842  -18.3146  -44.1798 N.am      9 UNK        -0.5000 
     30 C          -1.9014  -18.2277  -45.5176 C.2       8 UNK         0.5000 
     31 O          -2.4778  -19.0277  -46.2540 O.2       8 UNK        -0.5000 
     32 CA         -1.0855  -17.0858  -46.1413 C.3       8 UNK         0.1400 
     33 CB         -1.8378  -15.7491  -46.0504 C.3       8 UNK        -0.1800 
     34 N           0.2336  -16.9587  -45.5229 N.am      8 UNK        -0.5000 
     35 C           1.2006  -17.8818  -45.6284 C.2       7 UNK         0.5000 
     36 O           1.0935  -18.9094  -46.2972 O.2       7 UNK        -0.5000 
     37 CA          2.4751  -17.6438  -44.7988 C.3       7 UNK         0.1400 
     38 CB          3.4402  -16.6920  -45.5190 C.3       7 UNK        -0.1800 
     39 N           2.1823  -17.1200  -43.4641 N.am      7 UNK        -0.5000 
     40 C           1.5666  -17.8191  -42.5014 C.2       6 UNK         0.5000 
     41 O           1.2007  -18.9856  -42.6316 O.2       6 UNK        -0.5000 
     42 CA          1.2776  -17.0802  -41.1844 C.3       6 UNK         0.1400 
     43 CB          2.4969  -17.1382  -40.2523 C.3       6 UNK        -0.1800 
     44 N           0.8807  -15.6842  -41.3704 N.am      6 UNK        -0.5000 
     45 C          -0.2159  -15.2639  -42.0163 C.2       5 UNK         0.5000 
     46 O          -0.9716  -16.0256  -42.6208 O.2       5 UNK        -0.5000 
     47 CA         -0.5145  -13.7483  -42.0203 C.3       5 UNK         0.1400 
     48 CB         -1.9199  -13.4451  -41.4653 C.3       5 UNK        -0.1800 
     49 N           0.5114  -12.9145  -41.3725 N.am      5 UNK        -0.5000 
     50 C           0.8423  -12.8432  -40.0732 C.2       4 UNK         0.5000 
     51 O           0.2701  -13.4799  -39.1881 O.2       4 UNK        -0.5000 
     52 CA          2.0742  -11.9751  -39.7282 C.3       4 UNK         0.1400 
     53 CB          2.4776  -12.0749  -38.2456 C.3       4 UNK        -0.1800 
     54 N           3.2268  -12.3491  -40.5549 N.am      4 UNK        -0.5000 
     55 C           3.4417  -11.9110  -41.8003 C.2       3 UNK         0.5000 
     56 O           2.7264  -11.0670  -42.3461 O.2       3 UNK        -0.5000 
     57 CA          4.5980  -12.5596  -42.5774 C.3       3 UNK         0.1400 
     58 CB          4.3725  -14.0742  -42.7558 C.3       3 UNK        -0.1800 
     59 N           4.6698  -11.9294  -43.8884 N.am      3 UNK        -0.5000 
     60 C           5.7408  -11.8441  -44.6818 C.2       2 UNK         0.5000 
     61 O           6.8478  -12.2969  -44.3837 O.2       2 UNK        -0.5000 
     62 CA          5.5262  -11.1176  -46.0293 C.3       2 UNK         0.1400 
     63 CB          6.6020  -11.4629  -47.0809 C.3       2 UNK        -0.1800 
     64 N           4.1733  -11.3016  -46.5766 N.am      2 UNK        -0.5000 
     65 C           3.6015  -12.4574  -46.9551 C.2       1 UNK         0.5000 
     66 O           4.1767  -13.5458  -46.9238 O.2       1 UNK        -0.5000 
     67 C          -2.1627  -22.2992  -48.1347 C.2       11 UNK         0.5000 
     68 O          -2.4878  -23.2105  -48.8956 O.2       11 UNK        -0.5000 
     69 N          -3.0311  -21.6422  -47.3524 N.am      12 UNK        -0.5000 
     70 CA         -4.4551  -21.9647  -47.2546 C.3       12 UNK         0.1400 
     71 CB         -5.1882  -20.8748  -46.4591 C.3       12 UNK        -0.1800 
     72 C          -4.7091  -23.3585  -46.6533 C.2       12 UNK         0.5000 
     73 O          -5.5051  -24.1176  -47.2057 O.2       12 UNK        -0.5000 
     74 N          -4.0047  -23.6861  -45.5602 N.am      13 UNK        -0.5000 
     75 CA         -4.0703  -24.9833  -44.8821 C.3       13 UNK         0.1400 
     76 CB         -3.3045  -24.9081  -43.5526 C.3       13 UNK        -0.1800 
     77 C          -3.5419  -26.1428  -45.7464 C.2       13 UNK         0.5000 
     78 O          -4.1243  -27.2278  -45.7306 O.2       13 UNK        -0.5000 
     79 N          -2.4674  -25.8858  -46.5039 N.am      14 UNK        -0.5000 
     80 CA         -1.8773  -26.8241  -47.4605 C.3       14 UNK         0.1400 
     81 CB         -0.4577  -26.3453  -47.8054 C.3       14 UNK        -0.1800 
     82 C          -2.7034  -26.9904  -48.7523 C.2       14 UNK         0.5000 
     83 O          -2.4537  -27.9352  -49.5017 O.2       14 UNK        -0.5000 
     84 N          -3.6341  -26.0571  -49.0061 N.am      15 UNK        -0.5000 
     85 CA         -4.4017  -25.8736  -50.2429 C.3       15 UNK         0.1400 
     86 CB         -5.3718  -27.0480  -50.4847 C.3       15 UNK        -0.1800 
     87 C          -3.4962  -25.5627  -51.4549 C.2       15 UNK         0.5000 
     88 O          -3.7878  -25.9760  -52.5779 O.2       15 UNK        -0.5000 
     89 N          -2.4071  -24.8316  -51.1874 N.am      16 UNK        -0.5000 
     90 CA         -1.4814  -24.2845  -52.1759 C.3       16 UNK         0.1400 
     91 CB         -0.0804  -24.2069  -51.5489 C.3       16 UNK        -0.1800 
     92 C          -1.9303  -22.8921  -52.6527 C.2       16 UNK         0.5000 
     93 O          -1.4661  -22.4349  -53.6960 O.2       16 UNK        -0.5000 
     94 N          -2.8105  -22.2471  -51.8816 N.am      17 UNK        -0.5000 
     95 CA         -3.5122  -21.0171  -52.2114 C.3       17 UNK         0.1400 
     96 CB         -2.6982  -19.8059  -51.7277 C.3       17 UNK        -0.1800 
     97 C          -4.8925  -21.0662  -51.5420 C.2       17 UNK         0.5000 
     98 O          -5.1657  -21.9886  -50.7674 O.2       17 UNK        -0.5000 
     99 N          -5.7247  -20.0580  -51.8338 N.am      18 UNK        -0.5000 
    100 CA        -7.0476  -19.7663  -51.2644 C.3       18 UNK         0.1400 
    101 CB        -6.9583  -19.5052  -49.7470 C.3       18 UNK        -0.1800 
    102 C         -8.1294  -20.8130  -51.5934 C.2       18 UNK         0.5000 
    103 O         -9.1377  -20.4682  -52.2106 O.2       18 UNK        -0.5000 
    104 N         -7.9023  -22.0662  -51.1844 N.am      19 UNK        -0.5000 
    105 CA        -8.7638  -23.2146  -51.4627 C.3       19 UNK         0.1400 
    106 CB        -8.3689  -24.3748  -50.5363 C.3       19 UNK        -0.1800 
    107 C         -8.6884  -23.6465  -52.9381 C.2       19 UNK         0.5000 
    108 O         -9.7059  -24.0327  -53.5145 O.2       19 UNK        -0.5000 
    109 N         -7.4895  -23.5463  -53.5213 N.am      20 UNK        -0.5000 
    110 CA        -7.1813  -23.8131  -54.9194 C.3       20 UNK         0.1400 
    111 CB        -7.1753  -25.3297  -55.1897 C.3       20 UNK        -0.1800 
    112 C         -5.8060  -23.2062  -55.2227 C.2       20 UNK         0.5000 
    113 O         -4.9586  -23.1670  -54.3283 O.2       20 UNK        -0.5000 
    114 N         -5.6105  -22.7789  -56.4781 N.am      21 UNK        -0.5000 
    115 CA        -4.3662  -22.2479  -57.0509 C.3       21 UNK         0.1400 
    116 CB        -3.3210  -23.3827  -57.1596 C.3       21 UNK        -0.1800 
    117 C         -3.8192  -20.9961  -56.3225 C.2       21 UNK         0.5000 
    118 O         -4.5678  -20.2992  -55.6326 O.2       21 UNK        -0.5000 
    119 N         -2.5245  -20.7254  -56.5140 N.am      22 UNK        -0.5000 
    120 CA        -1.7254  -19.7386  -55.7846 C.3       22 UNK         0.1400 
    121 C         -0.2268  -20.0681  -56.0106 C.2       22 UNK         0.5000 
    122 N          0.2863  -21.0980  -55.3552 N.am      22 UNK        -0.7600 
    123 O          0.4656  -19.4290  -56.7980 O.2       22 UNK        -0.5000 
    124 C124       -2.1068  -18.2561  -56.0806 C.3       23 UNK        -0.0398 
    125 S125       -2.1429  -17.2428  -54.5634 S.3       23 UNK        -0.2404 
    126 C126       -0.3879  -16.8092  -54.3443 C.3       23 UNK        -0.0205 
    127 H127       -0.2155   -9.8927  -45.3002 H         1 UNK         0.0600 
    128 H128        0.6915  -10.1533  -43.8089 H         1 UNK         0.0600 
    129 H129       -0.7358  -11.1325  -44.1578 H         1 UNK         0.0600 
    130 H130        1.0143  -10.6120  -47.0143 H         1 UNK         0.3000 
    131 H131        2.1628  -11.8624  -48.3981 H         1 UNK         0.0600 
    132 H132        1.6306  -14.4066  -46.7897 H         1 UNK         0.0800 
    133 H133        0.3502  -13.5735  -47.6105 H         1 UNK         0.0800 
    134 H134       -0.1358  -15.8073  -48.6422 H         1 UNK         0.0800 
    135 H135       -0.4792  -14.5830  -49.8383 H         1 UNK         0.0800 
    136 H136       -0.4384  -15.1607  -52.1822 H         1 UNK         0.1150 
    137 H137        0.6772  -19.1239  -53.3638 H         1 UNK         0.1150 
    138 H138        1.2097  -17.8562  -49.2976 H         1 UNK         0.1150 
    139 H139        1.0664  -20.7981  -51.6085 H         1 UNK         0.0800 
    140 H140        2.6141  -20.0557  -51.2898 H         1 UNK         0.0800 
    141 H141       -0.7635  -20.9744  -49.9912 H         1 UNK         0.0800 
    142 H142       -0.7476  -19.8218  -48.6721 H         1 UNK         0.0800 
    143 H143       -0.1116  -22.7959  -48.3503 H         1 UNK         0.0600 
    144 H144        0.0448  -20.6892  -46.4485 H         1 UNK         0.3000 
    145 H145       -0.1728  -22.8710  -43.5631 H         1 UNK         0.0600 
    146 H146        1.9089  -21.6313  -43.1168 H         1 UNK         0.0600 
    147 H147        1.9647  -21.0421  -44.7766 H         1 UNK         0.0600 
    148 H148        2.1720  -22.7564  -44.4396 H         1 UNK         0.0600 
    149 H149       -0.0342  -20.0562  -43.6464 H         1 UNK         0.3000 
    150 H150       -3.5743  -19.3961  -43.6673 H         1 UNK         0.0600 
    151 H151       -2.8502  -18.1194  -41.6628 H         1 UNK         0.0600 
    152 H152       -1.3546  -19.0475  -41.5839 H         1 UNK         0.0600 
    153 H153       -2.9002  -19.8415  -41.3132 H         1 UNK         0.0600 
    154 H154       -1.4135  -17.5862  -43.6495 H         1 UNK         0.3000 
    155 H155       -0.9447  -17.3322  -47.1949 H         1 UNK         0.0600 
    156 H156       -2.8063  -15.8154  -46.5476 H         1 UNK         0.0600 
    157 H157       -1.2811  -14.9462  -46.5313 H         1 UNK         0.0600 
    158 H158       -2.0210  -15.4539  -45.0172 H         1 UNK         0.0600 
    159 H159        0.3747  -16.1747  -44.9038 H         1 UNK         0.3000 
    160 H160        2.9753  -18.6081  -44.6858 H         1 UNK         0.0600 
    161 H161        3.0600  -15.6715  -45.5380 H         1 UNK         0.0600 
    162 H162        3.6065  -17.0022  -46.5516 H         1 UNK         0.0600 
    163 H163        4.4118  -16.6713  -45.0253 H         1 UNK         0.0600 
    164 H164        2.4374  -16.1625  -43.2781 H         1 UNK         0.3000 
    165 H165        0.4495  -17.5945  -40.6928 H         1 UNK         0.0600 
    166 H166        2.2761  -16.6862  -39.2851 H         1 UNK         0.0600 
    167 H167        2.7963  -18.1706  -40.0663 H         1 UNK         0.0600 
    168 H168        3.3565  -16.6194  -40.6776 H         1 UNK         0.0600 
    169 H169        1.4257  -14.9904  -40.8824 H         1 UNK         0.3000 
    170 H170       -0.5196  -13.4560  -43.0696 H         1 UNK         0.0600 
    171 H171       -2.0336  -13.7794  -40.4340 H         1 UNK         0.0600 
    172 H172       -2.1356  -12.3772  -41.5000 H         1 UNK         0.0600 
    173 H173       -2.6873  -13.9493  -42.0539 H         1 UNK         0.0600 
    174 H174        1.0724  -12.3624  -42.0135 H         1 UNK         0.3000 
    175 H175        1.8028  -10.9361  -39.9267 H         1 UNK         0.0600 
    176 H176        2.7514  -13.0938  -37.9689 H         1 UNK         0.0600 
    177 H177        3.3269  -11.4280  -38.0248 H         1 UNK         0.0600 
    178 H178        1.6588  -11.7651  -37.5950 H         1 UNK         0.0600 
    179 H179        3.8453  -13.0470  -40.1673 H         1 UNK         0.3000 
    180 H180        5.5247  -12.3788  -42.0294 H         1 UNK         0.0600 
    181 H181        5.1691  -14.5263  -43.3471 H         1 UNK         0.0600 
    182 H182        3.4286  -14.2753  -43.2638 H         1 UNK         0.0600 
    183 H183        4.3529  -14.5918  -41.7967 H         1 UNK         0.0600 
    184 H184        3.8004  -11.4989  -44.1779 H         1 UNK         0.3000 
    185 H185        5.6193  -10.0533  -45.8091 H         1 UNK         0.0600 
    186 H186        6.4258  -10.9299  -48.0152 H         1 UNK         0.0600 
    187 H187        7.5955  -11.1807  -46.7306 H         1 UNK         0.0600 
    188 H188        6.6264  -12.5301  -47.3024 H         1 UNK         0.0600 
    189 H189        3.6080  -10.4654  -46.6240 H         1 UNK         0.3000 
    190 H190       -2.7027  -20.8632  -46.7879 H         1 UNK         0.3000 
    191 H191       -4.8648  -21.9676  -48.2637 H         1 UNK         0.0600 
    192 H192       -5.0844  -19.9019  -46.9398 H         1 UNK         0.0600 
    193 H193       -4.8042  -20.7886  -45.4427 H         1 UNK         0.0600 
    194 H194       -6.2549  -21.0915  -46.3919 H         1 UNK         0.0600 
    195 H195       -3.3983  -22.9871  -45.1379 H         1 UNK         0.3000 
    196 H196       -5.1189  -25.1894  -44.6584 H         1 UNK         0.0600 
    197 H197       -3.7341  -24.1537  -42.8934 H         1 UNK         0.0600 
    198 H198       -2.2544  -24.6574  -43.7074 H         1 UNK         0.0600 
    199 H199       -3.3418  -25.8613  -43.0239 H         1 UNK         0.0600 
    200 H200       -2.0008  -24.9886  -46.4022 H         1 UNK         0.3000 
    201 H201       -1.8036  -27.8048  -46.9864 H         1 UNK         0.0600 
    202 H202        0.1637  -26.2771  -46.9123 H         1 UNK         0.0600 
    203 H203       -0.4707  -25.3633  -48.2801 H         1 UNK         0.0600 
    204 H204        0.0349  -27.0351  -48.4917 H         1 UNK         0.0600 
    205 H205       -3.7497  -25.3217  -48.3208 H         1 UNK         0.3000 
    206 H206       -5.0029  -24.9769  -50.0854 H         1 UNK         0.0600 
    207 H207       -4.8422  -27.9750  -50.7052 H         1 UNK         0.0600 
    208 H208       -6.0046  -27.2199  -49.6140 H         1 UNK         0.0600 
    209 H209       -6.0312  -26.8414  -51.3286 H         1 UNK         0.0600 
    210 H210       -2.2982  -24.4858  -50.2372 H         1 UNK         0.3000 
    211 H211       -1.4389  -24.9425  -53.0462 H         1 UNK         0.0600 
    212 H212       -0.0601  -23.5365  -50.6896 H         1 UNK         0.0600 
    213 H213        0.6497  -23.8369  -52.2698 H         1 UNK         0.0600 
    214 H214        0.2578  -25.1885  -51.2165 H         1 UNK         0.0600 
    215 H215       -3.1725  -22.7136  -51.0575 H         1 UNK         0.3000 
    216 H216       -3.6553  -20.9617  -53.2898 H         1 UNK         0.0600 
    217 H217       -3.1309  -18.8720  -52.0865 H         1 UNK         0.0600 
    218 H218       -2.6631  -19.7509  -50.6394 H         1 UNK         0.0600 
    219 H219       -1.6760  -19.8492  -52.0993 H         1 UNK         0.0600 
    220 H220       -5.4117  -19.3869  -52.5218 H         1 UNK         0.3000 
    221 H221       -7.3663  -18.8330  -51.7313 H         1 UNK         0.0600 
    222 H222       -6.6531  -20.3927  -49.1928 H         1 UNK         0.0600 
    223 H223       -6.2438  -18.7126  -49.5252 H         1 UNK         0.0600 
    224 H224       -7.9245  -19.1923  -49.3497 H         1 UNK         0.0600 
    225 H225       -7.0033  -22.2517  -50.7463 H         1 UNK         0.3000 
    226 H226       -9.7965  -22.9349  -51.2438 H         1 UNK         0.0600 
    227 H227       -8.4665  -24.0941  -49.4874 H         1 UNK         0.0600 
    228 H228       -9.0074  -25.2433  -50.7027 H         1 UNK         0.0600 
    229 H229       -7.3384  -24.6875  -50.7036 H         1 UNK         0.0600 
    230 H230       -6.6988  -23.2095  -52.9859 H         1 UNK         0.3000 
    231 H231       -7.9318  -23.3275  -55.5465 H         1 UNK         0.0600 
    232 H232       -6.9056  -25.5410  -56.2250 H         1 UNK         0.0600 
    233 H233       -8.1557  -25.7726  -55.0153 H         1 UNK         0.0600 
    234 H234       -6.4563  -25.8450  -54.5510 H         1 UNK         0.0600 
    235 H235       -6.3880  -22.8267  -57.1214 H         1 UNK         0.3000 
    236 H236       -4.6146  -21.9252  -58.0629 H         1 UNK         0.0600 
    237 H237       -2.9256  -23.6604  -56.1811 H         1 UNK         0.0600 
    238 H238       -3.7563  -24.2766  -57.6064 H         1 UNK         0.0600 
    239 H239       -2.4781  -23.0961  -57.7889 H         1 UNK         0.0600 
    240 H240       -1.9823  -21.3481  -57.0968 H         1 UNK         0.3000 
    241 H241       -1.9191  -19.9303  -54.7277 H         1 UNK         0.0600 
    242 H242        1.2503  -21.3533  -55.4958 H         1 UNK         0.3800 
    243 H243       -0.3032  -21.6499  -54.7290 H         1 UNK         0.3800 
    244 H244       -3.1089  -18.1984  -56.5057 H         1 UNK         0.0800 
    245 H245       -1.4622  -17.7901  -56.8271 H         1 UNK         0.0800 
    246 H246        0.2413  -17.3429  -55.0562 H         1 UNK         0.0800 
    247 H247       -0.2555  -15.7491  -54.5655 H         1 UNK         0.0800 
@<TRIPOS>BOND
     1    1    2 1    
     2    1  127 1    
     3    1  128 1    
     4    1  129 1    
     5    2    3 2    
     6    2    4 am   BACKBONE|DICT|INTERRES
     7    4    5 1    
     8    4  130 1    
     9    5    6 1    
    10    5   65 1    
    11    5  131 1    
    12    6    7 1    
    13    6  132 1    
    14    6  133 1    
    15    7    8 1    
    16    8    9 1    
    17    8  134 1    
    18    8  135 1    
    19    9   10 ar   
    20    9   14 ar   
    21   10   11 ar   
    22   10  136 1    
    23   11   12 ar   
    24   11  126 1    
    25   12   13 ar   
    26   12  137 1    
    27   13   14 ar   
    28   13   15 1    
    29   14  138 1    
    30   15   16 1    
    31   15  139 1    
    32   15  140 1    
    33   16   17 1    
    34   17   18 1    
    35   17  141 1    
    36   17  142 1    
    37   18   19 1    
    38   18   67 1    
    39   18  143 1    
    40   19   20 am   BACKBONE|DICT|INTERRES
    41   19  144 1    
    42   20   21 2    
    43   20   22 1    
    44   22   23 1    
    45   22   24 1    
    46   22  145 1    
    47   23  146 1    
    48   23  147 1    
    49   23  148 1    
    50   24   25 am   BACKBONE|DICT|INTERRES
    51   24  149 1    
    52   25   26 2    
    53   25   27 1    
    54   27   28 1    
    55   27   29 1    
    56   27  150 1    
    57   28  151 1    
    58   28  152 1    
    59   28  153 1    
    60   29   30 am   BACKBONE|DICT|INTERRES
    61   29  154 1    
    62   30   31 2    
    63   30   32 1    
    64   32   33 1    
    65   32   34 1    
    66   32  155 1    
    67   33  156 1    
    68   33  157 1    
    69   33  158 1    
    70   34   35 am   BACKBONE|DICT|INTERRES
    71   34  159 1    
    72   35   36 2    
    73   35   37 1    
    74   37   38 1    
    75   37   39 1    
    76   37  160 1    
    77   38  161 1    
    78   38  162 1    
    79   38  163 1    
    80   39   40 am   BACKBONE|DICT|INTERRES
    81   39  164 1    
    82   40   41 2    
    83   40   42 1    
    84   42   43 1    
    85   42   44 1    
    86   42  165 1    
    87   43  166 1    
    88   43  167 1    
    89   43  168 1    
    90   44   45 am   BACKBONE|DICT|INTERRES
    91   44  169 1    
    92   45   46 2    
    93   45   47 1    
    94   47   48 1    
    95   47   49 1    
    96   47  170 1    
    97   48  171 1    
    98   48  172 1    
    99   48  173 1    
   100   49   50 am   BACKBONE|DICT|INTERRES
   101   49  174 1    
   102   50   51 2    
   103   50   52 1    
   104   52   53 1    
   105   52   54 1    
   106   52  175 1    
   107   53  176 1    
   108   53  177 1    
   109   53  178 1    
   110   54   55 am   BACKBONE|DICT|INTERRES
   111   54  179 1    
   112   55   56 2    
   113   55   57 1    
   114   57   58 1    
   115   57   59 1    
   116   57  180 1    
   117   58  181 1    
   118   58  182 1    
   119   58  183 1    
   120   59   60 am   BACKBONE|DICT|INTERRES
   121   59  184 1    
   122   60   61 2    
   123   60   62 1    
   124   62   63 1    
   125   62   64 1    
   126   62  185 1    
   127   63  186 1    
   128   63  187 1    
   129   63  188 1    
   130   64   65 am   BACKBONE|DICT|INTERRES
   131   64  189 1    
   132   65   66 2    
   133   67   68 2    
   134   67   69 am   BACKBONE|DICT|INTERRES
   135   69   70 1    
   136   69  190 1    
   137   70   71 1    
   138   70   72 1    
   139   70  191 1    
   140   71  192 1    
   141   71  193 1    
   142   71  194 1    
   143   72   73 2    
   144   72   74 am   BACKBONE|DICT|INTERRES
   145   74   75 1    
   146   74  195 1    
   147   75   76 1    
   148   75   77 1    
   149   75  196 1    
   150   76  197 1    
   151   76  198 1    
   152   76  199 1    
   153   77   78 2    
   154   77   79 am   BACKBONE|DICT|INTERRES
   155   79   80 1    
   156   79  200 1    
   157   80   81 1    
   158   80   82 1    
   159   80  201 1    
   160   81  202 1    
   161   81  203 1    
   162   81  204 1    
   163   82   83 2    
   164   82   84 am   BACKBONE|DICT|INTERRES
   165   84   85 1    
   166   84  205 1    
   167   85   86 1    
   168   85   87 1    
   169   85  206 1    
   170   86  207 1    
   171   86  208 1    
   172   86  209 1    
   173   87   88 2    
   174   87   89 am   BACKBONE|DICT|INTERRES
   175   89   90 1    
   176   89  210 1    
   177   90   91 1    
   178   90   92 1    
   179   90  211 1    
   180   91  212 1    
   181   91  213 1    
   182   91  214 1    
   183   92   93 2    
   184   92   94 am   BACKBONE|DICT|INTERRES
   185   94   95 1    
   186   94  215 1    
   187   95   96 1    
   188   95   97 1    
   189   95  216 1    
   190   96  217 1    
   191   96  218 1    
   192   96  219 1    
   193   97   98 2    
   194   97   99 am   BACKBONE|DICT|INTERRES
   195   99  100 1    
   196   99  220 1    
   197  100  101 1    
   198  100  102 1    
   199  100  221 1    
   200  101  222 1    
   201  101  223 1    
   202  101  224 1    
   203  102  103 2    
   204  102  104 am   BACKBONE|DICT|INTERRES
   205  104  105 1    
   206  104  225 1    
   207  105  106 1    
   208  105  107 1    
   209  105  226 1    
   210  106  227 1    
   211  106  228 1    
   212  106  229 1    
   213  107  108 2    
   214  107  109 am   BACKBONE|DICT|INTERRES
   215  109  110 1    
   216  109  230 1    
   217  110  111 1    
   218  110  112 1    
   219  110  231 1    
   220  111  232 1    
   221  111  233 1    
   222  111  234 1    
   223  112  113 2    
   224  112  114 am   BACKBONE|DICT|INTERRES
   225  114  115 1    
   226  114  235 1    
   227  115  116 1    
   228  115  117 1    
   229  115  236 1    
   230  116  237 1    
   231  116  238 1    
   232  116  239 1    
   233  117  118 2    
   234  117  119 am   BACKBONE|DICT|INTERRES
   235  119  120 1    
   236  119  240 1    
   237  120  121 1    
   238  120  124 1    
   239  120  241 1    
   240  121  122 am   BACKBONE|DICT|INTERRES
   241  121  123 2    
   242  122  242 1    
   243  122  243 1    
   244  124  125 1    
   245  124  244 1    
   246  124  245 1    
   247  125  126 1    
   248  126  246 1    
   249  126  247 1    
@<TRIPOS>SUBSTRUCTURE
     1 UNK         1 GROUP             0       ****    0 ROOT    
