@<TRIPOS>MOLECULE
3R540
247   249    1
SMALL
USER_CHARGES


@<TRIPOS>ATOM
      1 CA          0.7518  -11.6280  -48.2235 C.3       0 UNK        -0.1800 
      2 C           0.2260  -12.3303  -46.9811 C.2       0 UNK         0.5000 
      3 O           0.9511  -13.1026  -46.3546 O.2       0 UNK        -0.5000 
      4 N          -1.0386  -12.0841  -46.6222 N.am      1 UNK        -0.5000 
      5 CA         -1.7000  -12.6269  -45.4305 C.3       1 UNK         0.1400 
      6 C6         -3.2323  -12.7357  -45.6257 C.3       23 UNK        -0.0398 
      7 S7         -3.6824  -13.9673  -46.8959 S.3       23 UNK        -0.2404 
      8 C8         -5.3892  -14.3242  -46.3851 C.3       23 UNK        -0.0205 
      9 C9         -6.0877  -15.2819  -47.3378 C.ar      23 UNK        -0.0193 
     10 C10        -6.5201  -14.8343  -48.5899 C.ar      23 UNK        -0.1150 
     11 C11        -7.2253  -15.6844  -49.4479 C.ar      23 UNK        -0.0193 
     12 C12        -7.5064  -16.9898  -49.0349 C.ar      23 UNK        -0.1150 
     13 C13        -7.0622  -17.4558  -47.7938 C.ar      23 UNK        -0.0193 
     14 C14        -6.3474  -16.5999  -46.9513 C.ar      23 UNK        -0.1150 
     15 C15        -7.3830  -18.8763  -47.3581 C.3       23 UNK        -0.0205 
     16 S16        -6.3256  -20.0913  -48.1990 S.3       23 UNK        -0.2404 
     17 C17        -4.7470  -19.8937  -47.3059 C.3       23 UNK        -0.0398 
     18 CA         -3.8548  -21.1481  -47.4552 C.3       11 UNK         0.1400 
     19 N          -2.4253  -20.8527  -47.3206 N.am      11 UNK        -0.5000 
     20 C          -1.4364  -21.7372  -47.5260 C.2       10 UNK         0.5000 
     21 O          -1.6180  -22.8912  -47.9096 O.2       10 UNK        -0.5000 
     22 CA         -0.0081  -21.2816  -47.1752 C.3       10 UNK         0.1400 
     23 CB          0.5981  -20.4394  -48.3078 C.3       10 UNK        -0.1800 
     24 N           0.0357  -20.5456  -45.9093 N.am      10 UNK        -0.5000 
     25 C          -0.2916  -21.0796  -44.7218 C.2       9 UNK         0.5000 
     26 O          -0.5687  -22.2672  -44.5607 O.2       9 UNK        -0.5000 
     27 CA         -0.3879  -20.1191  -43.5249 C.3       9 UNK         0.1400 
     28 CB          0.9789  -19.9404  -42.8475 C.3       9 UNK        -0.1800 
     29 N          -0.9284  -18.8175  -43.9161 N.am      9 UNK        -0.5000 
     30 C          -2.2056  -18.6061  -44.2687 C.2       8 UNK         0.5000 
     31 O          -3.0725  -19.4807  -44.2559 O.2       8 UNK        -0.5000 
     32 CA         -2.5550  -17.1927  -44.7725 C.3       8 UNK         0.1400 
     33 CB         -2.8376  -16.2487  -43.5952 C.3       8 UNK        -0.1800 
     34 N          -1.4924  -16.6283  -45.6062 N.am      8 UNK        -0.5000 
     35 C          -1.1519  -17.1058  -46.8109 C.2       7 UNK         0.5000 
     36 O          -1.7629  -18.0142  -47.3696 O.2       7 UNK        -0.5000 
     37 CA          0.0919  -16.5057  -47.4927 C.3       7 UNK         0.1400 
     38 CB         -0.3174  -15.4654  -48.5437 C.3       7 UNK        -0.1800 
     39 N           1.0393  -15.9146  -46.5445 N.am      7 UNK        -0.5000 
     40 C           1.7301  -16.6151  -45.6354 C.2       6 UNK         0.5000 
     41 O           1.6234  -17.8366  -45.5065 O.2       6 UNK        -0.5000 
     42 CA          2.6517  -15.8040  -44.7032 C.3       6 UNK         0.1400 
     43 CB          3.5394  -16.6892  -43.8049 C.3       6 UNK        -0.1800 
     44 N           3.4607  -14.8091  -45.4128 N.am      6 UNK        -0.5000 
     45 C           4.3671  -15.0236  -46.3757 C.2       5 UNK         0.5000 
     46 O           4.6351  -16.1358  -46.8313 O.2       5 UNK        -0.5000 
     47 CA          5.1411  -13.7979  -46.9058 C.3       5 UNK         0.1400 
     48 CB          4.3458  -13.0638  -48.0022 C.3       5 UNK        -0.1800 
     49 N           5.6194  -12.8760  -45.8622 N.am      5 UNK        -0.5000 
     50 C           4.9044  -12.0742  -45.0619 C.2       4 UNK         0.5000 
     51 O           3.6785  -11.9590  -45.1152 O.2       4 UNK        -0.5000 
     52 CA          5.6924  -11.2571  -44.0243 C.3       4 UNK         0.1400 
     53 CB          5.9558   -9.8359  -44.5447 C.3       4 UNK        -0.1800 
     54 N           4.9236  -11.1750  -42.7856 N.am      4 UNK        -0.5000 
     55 C           4.8841  -12.1317  -41.8486 C.2       3 UNK         0.5000 
     56 O           5.6369  -13.1063  -41.8300 O.2       3 UNK        -0.5000 
     57 CA          3.7934  -11.9864  -40.7675 C.3       3 UNK         0.1400 
     58 CB          4.3101  -11.1559  -39.5827 C.3       3 UNK        -0.1800 
     59 N           2.5640  -11.3780  -41.2877 N.am      3 UNK        -0.5000 
     60 C           1.7581  -11.9636  -42.1847 C.2       2 UNK         0.5000 
     61 O           1.9111  -13.1233  -42.5763 O.2       2 UNK        -0.5000 
     62 CA          0.6004  -11.1129  -42.7364 C.3       2 UNK         0.1400 
     63 CB          1.0762   -9.7353  -43.2392 C.3       2 UNK        -0.1800 
     64 N          -0.0261  -11.8287  -43.8415 N.am      2 UNK        -0.5000 
     65 C          -1.3133  -11.7847  -44.1942 C.2       1 UNK         0.5000 
     66 O          -2.1570  -11.0988  -43.6141 O.2       1 UNK        -0.5000 
     67 C          -4.2984  -22.2834  -46.5101 C.2       11 UNK         0.5000 
     68 O          -4.9096  -23.2507  -46.9687 O.2       11 UNK        -0.5000 
     69 N          -3.9285  -22.1684  -45.2247 N.am      12 UNK        -0.5000 
     70 CA         -4.1935  -23.1629  -44.1820 C.3       12 UNK         0.1400 
     71 CB         -3.7199  -22.6222  -42.8250 C.3       12 UNK        -0.1800 
     72 C          -3.5652  -24.5399  -44.4730 C.2       12 UNK         0.5000 
     73 O          -4.1960  -25.5626  -44.2038 O.2       12 UNK        -0.5000 
     74 N          -2.3703  -24.5500  -45.0781 N.am      13 UNK        -0.5000 
     75 CA         -1.6561  -25.7341  -45.5631 C.3       13 UNK         0.1400 
     76 CB         -0.1561  -25.4000  -45.6545 C.3       13 UNK        -0.1800 
     77 C          -2.2212  -26.2717  -46.8995 C.2       13 UNK         0.5000 
     78 O          -1.4535  -26.5898  -47.8101 O.2       13 UNK        -0.5000 
     79 N          -3.5563  -26.3553  -46.9996 N.am      14 UNK        -0.5000 
     80 CA         -4.3456  -26.8333  -48.1408 C.3       14 UNK         0.1400 
     81 CB         -4.2025  -28.3631  -48.2805 C.3       14 UNK        -0.1800 
     82 C          -4.0286  -26.0852  -49.4524 C.2       14 UNK         0.5000 
     83 O          -3.8749  -26.7141  -50.5023 O.2       14 UNK        -0.5000 
     84 N          -3.8845  -24.7544  -49.3596 N.am      15 UNK        -0.5000 
     85 CA         -3.4871  -23.8489  -50.4457 C.3       15 UNK         0.1400 
     86 CB         -4.6181  -23.7466  -51.4892 C.3       15 UNK        -0.1800 
     87 C          -2.1084  -24.1889  -51.0544 C.2       15 UNK         0.5000 
     88 O          -1.8999  -23.9941  -52.2524 O.2       15 UNK        -0.5000 
     89 N          -1.2056  -24.7213  -50.2169 N.am      16 UNK        -0.5000 
     90 CA          0.1031  -25.2948  -50.5424 C.3       16 UNK         0.1400 
     91 CB          1.0765  -24.2031  -51.0270 C.3       16 UNK        -0.1800 
     92 C          -0.0244  -26.4737  -51.5279 C.2       16 UNK         0.5000 
     93 O           0.6961  -26.5294  -52.5240 O.2       16 UNK        -0.5000 
     94 N          -0.9910  -27.3630  -51.2550 N.am      17 UNK        -0.5000 
     95 CA         -1.4636  -28.4458  -52.1270 C.3       17 UNK         0.1400 
     96 CB         -0.3779  -29.5262  -52.3140 C.3       17 UNK        -0.1800 
     97 C          -2.0247  -27.8997  -53.4590 C.2       17 UNK         0.5000 
     98 O          -1.6994  -28.4084  -54.5329 O.2       17 UNK        -0.5000 
     99 N          -2.8391  -26.8408  -53.3428 N.am      18 UNK        -0.5000 
    100 CA        -3.4818  -26.0618  -54.4090 C.3       18 UNK         0.1400 
    101 CB        -4.4644  -26.9400  -55.2108 C.3       18 UNK        -0.1800 
    102 C         -2.5208  -25.2696  -55.3259 C.2       18 UNK         0.5000 
    103 O         -2.9693  -24.7450  -56.3468 O.2       18 UNK        -0.5000 
    104 N         -1.2348  -25.1679  -54.9634 N.am      19 UNK        -0.5000 
    105 CA        -0.2189  -24.4563  -55.7395 C.3       19 UNK         0.1400 
    106 CB         1.1633  -25.0526  -55.4353 C.3       19 UNK        -0.1800 
    107 C         -0.2067  -22.9382  -55.4819 C.2       19 UNK         0.5000 
    108 O          0.1136  -22.1817  -56.4000 O.2       19 UNK        -0.5000 
    109 N         -0.5220  -22.5143  -54.2500 N.am      20 UNK        -0.5000 
    110 CA        -0.4480  -21.1133  -53.8245 C.3       20 UNK         0.1400 
    111 CB         0.0173  -21.0428  -52.3604 C.3       20 UNK        -0.1800 
    112 C         -1.7812  -20.3672  -53.9858 C.2       20 UNK         0.5000 
    113 O         -1.7609  -19.1480  -54.1567 O.2       20 UNK        -0.5000 
    114 N         -2.9025  -21.1017  -53.9199 N.am      21 UNK        -0.5000 
    115 CA        -4.2754  -20.5923  -53.8300 C.3       21 UNK         0.1400 
    116 CB        -4.6843  -19.8191  -55.1054 C.3       21 UNK        -0.1800 
    117 C         -4.4722  -19.8161  -52.5091 C.2       21 UNK         0.5000 
    118 O         -4.4139  -20.4365  -51.4466 O.2       21 UNK        -0.5000 
    119 N         -4.6977  -18.4990  -52.5909 N.am      22 UNK        -0.5000 
    120 CA        -4.8015  -17.5844  -51.4423 C.3       22 UNK         0.1400 
    121 C         -3.5141  -17.4971  -50.5757 C.2       22 UNK         0.5000 
    122 N         -3.6523  -17.0669  -49.3307 N.am      22 UNK        -0.7600 
    123 O         -2.4035  -17.7862  -51.0138 O.2       22 UNK        -0.5000 
    124 C124       -5.2705  -16.1747  -51.8883 C.3       23 UNK        -0.0398 
    125 S125       -7.0650  -16.1587  -52.2147 S.3       23 UNK        -0.2404 
    126 C126       -7.6986  -15.1793  -50.8080 C.3       23 UNK        -0.0205 
    127 H127       -0.0238  -11.0418  -48.7167 H         1 UNK         0.0600 
    128 H128        1.1298  -12.3609  -48.9361 H         1 UNK         0.0600 
    129 H129        1.5684  -10.9580  -47.9547 H         1 UNK         0.0600 
    130 H130       -1.5909  -11.4398  -47.1695 H         1 UNK         0.3000 
    131 H131       -1.3267  -13.6363  -45.2463 H         1 UNK         0.0600 
    132 H132       -3.6588  -11.7705  -45.9037 H         1 UNK         0.0800 
    133 H133       -3.7118  -13.0221  -44.6881 H         1 UNK         0.0800 
    134 H134       -5.3832  -14.7315  -45.3729 H         1 UNK         0.0800 
    135 H135       -5.9537  -13.3916  -46.3386 H         1 UNK         0.0800 
    136 H136       -6.3147  -13.8155  -48.8882 H         1 UNK         0.1150 
    137 H137       -8.0616  -17.6496  -49.6873 H         1 UNK         0.1150 
    138 H138       -6.0167  -16.9520  -45.9842 H         1 UNK         0.1150 
    139 H139       -7.2900  -18.9870  -46.2766 H         1 UNK         0.0800 
    140 H140       -8.4248  -19.0960  -47.5960 H         1 UNK         0.0800 
    141 H141       -4.9296  -19.6501  -46.2581 H         1 UNK         0.0800 
    142 H142       -4.2453  -19.0274  -47.7295 H         1 UNK         0.0800 
    143 H143       -3.9822  -21.5063  -48.4750 H         1 UNK         0.0600 
    144 H144       -2.1793  -19.8999  -47.0709 H         1 UNK         0.3000 
    145 H145        0.6077  -22.1755  -47.0567 H         1 UNK         0.0600 
    146 H146       -0.0212  -19.5775  -48.5523 H         1 UNK         0.0600 
    147 H147        1.5930  -20.0782  -48.0466 H         1 UNK         0.0600 
    148 H148        0.6944  -21.0326  -49.2179 H         1 UNK         0.0600 
    149 H149        0.2972  -19.5683  -45.9458 H         1 UNK         0.3000 
    150 H150       -1.0681  -20.5614  -42.7941 H         1 UNK         0.0600 
    151 H151        1.3491  -20.8941  -42.4694 H         1 UNK         0.0600 
    152 H152        0.9153  -19.2576  -42.0002 H         1 UNK         0.0600 
    153 H153        1.7287  -19.5533  -43.5370 H         1 UNK         0.0600 
    154 H154       -0.2619  -18.0660  -44.0158 H         1 UNK         0.3000 
    155 H155       -3.4615  -17.2664  -45.3776 H         1 UNK         0.0600 
    156 H156       -3.6307  -16.6454  -42.9600 H         1 UNK         0.0600 
    157 H157       -3.1643  -15.2707  -43.9449 H         1 UNK         0.0600 
    158 H158       -1.9558  -16.1050  -42.9697 H         1 UNK         0.0600 
    159 H159       -0.9427  -15.8798  -45.2149 H         1 UNK         0.3000 
    160 H160        0.6100  -17.3160  -48.0086 H         1 UNK         0.0600 
    161 H161       -0.9524  -14.6898  -48.1174 H         1 UNK         0.0600 
    162 H162       -0.8792  -15.9334  -49.3528 H         1 UNK         0.0600 
    163 H163        0.5536  -14.9859  -48.9904 H         1 UNK         0.0600 
    164 H164        1.1471  -14.9014  -46.5648 H         1 UNK         0.3000 
    165 H165        1.9851  -15.2428  -44.0496 H         1 UNK         0.0600 
    166 H166        4.2011  -17.3278  -44.3908 H         1 UNK         0.0600 
    167 H167        4.1566  -16.0813  -43.1430 H         1 UNK         0.0600 
    168 H168        2.9318  -17.3384  -43.1738 H         1 UNK         0.0600 
    169 H169        3.2850  -13.8387  -45.1617 H         1 UNK         0.3000 
    170 H170        6.0446  -14.1881  -47.3772 H         1 UNK         0.0600 
    171 H171        3.4109  -12.6559  -47.6214 H         1 UNK         0.0600 
    172 H172        4.9227  -12.2423  -48.4265 H         1 UNK         0.0600 
    173 H173        4.0928  -13.7417  -48.8182 H         1 UNK         0.0600 
    174 H174        6.6189  -12.9031  -45.7148 H         1 UNK         0.3000 
    175 H175        6.6509  -11.7423  -43.8281 H         1 UNK         0.0600 
    176 H176        5.0267   -9.3080  -44.7644 H         1 UNK         0.0600 
    177 H177        6.5127   -9.2463  -43.8163 H         1 UNK         0.0600 
    178 H178        6.5446   -9.8597  -45.4626 H         1 UNK         0.0600 
    179 H179        4.2289  -10.4449  -42.7442 H         1 UNK         0.3000 
    180 H180        3.5516  -12.9873  -40.4033 H         1 UNK         0.0600 
    181 H181        5.2141  -11.5982  -39.1618 H         1 UNK         0.0600 
    182 H182        3.5709  -11.1072  -38.7829 H         1 UNK         0.0600 
    183 H183        4.5522  -10.1349  -39.8803 H         1 UNK         0.0600 
    184 H184        2.3652  -10.4343  -40.9888 H         1 UNK         0.3000 
    185 H185       -0.1218  -10.9785  -41.9288 H         1 UNK         0.0600 
    186 H186        0.2532   -9.1705  -43.6775 H         1 UNK         0.0600 
    187 H187        1.4807   -9.1282  -42.4292 H         1 UNK         0.0600 
    188 H188        1.8518   -9.8356  -44.0002 H         1 UNK         0.0600 
    189 H189        0.6057  -12.4210  -44.3727 H         1 UNK         0.3000 
    190 H190       -3.4458  -21.3245  -44.9311 H         1 UNK         0.3000 
    191 H191       -5.2755  -23.3001  -44.1328 H         1 UNK         0.0600 
    192 H192       -2.6409  -22.4707  -42.8062 H         1 UNK         0.0600 
    193 H193       -4.1962  -21.6699  -42.5904 H         1 UNK         0.0600 
    194 H194       -3.9667  -23.3169  -42.0213 H         1 UNK         0.0600 
    195 H195       -1.9070  -23.6607  -45.2336 H         1 UNK         0.3000 
    196 H196       -1.7719  -26.5326  -44.8279 H         1 UNK         0.0600 
    197 H197        0.2296  -25.0523  -44.6960 H         1 UNK         0.0600 
    198 H198        0.0355  -24.6214  -46.3936 H         1 UNK         0.0600 
    199 H199        0.4273  -26.2764  -45.9388 H         1 UNK         0.0600 
    200 H200       -4.0901  -26.0615  -46.1890 H         1 UNK         0.3000 
    201 H201       -5.3889  -26.6149  -47.9093 H         1 UNK         0.0600 
    202 H202       -4.8671  -28.7500  -49.0540 H         1 UNK         0.0600 
    203 H203       -4.4603  -28.8695  -47.3504 H         1 UNK         0.0600 
    204 H204       -3.1855  -28.6515  -48.5484 H         1 UNK         0.0600 
    205 H205       -4.0296  -24.3201  -48.4530 H         1 UNK         0.3000 
    206 H206       -3.3571  -22.8588  -50.0175 H         1 UNK         0.0600 
    207 H207       -5.4988  -23.2730  -51.0554 H         1 UNK         0.0600 
    208 H208       -4.9224  -24.7207  -51.8682 H         1 UNK         0.0600 
    209 H209       -4.3192  -23.1425  -52.3424 H         1 UNK         0.0600 
    210 H210       -1.4790  -24.8117  -49.2448 H         1 UNK         0.3000 
    211 H211        0.5001  -25.7048  -49.6129 H         1 UNK         0.0600 
    212 H212        1.1016  -23.3600  -50.3368 H         1 UNK         0.0600 
    213 H213        2.0914  -24.5945  -51.1025 H         1 UNK         0.0600 
    214 H214        0.8013  -23.8285  -52.0120 H         1 UNK         0.0600 
    215 H215       -1.5542  -27.1978  -50.4301 H         1 UNK         0.3000 
    216 H216       -2.3039  -28.9107  -51.6093 H         1 UNK         0.0600 
    217 H217       -0.7752  -30.3861  -52.8541 H         1 UNK         0.0600 
    218 H218        0.4766  -29.1539  -52.8795 H         1 UNK         0.0600 
    219 H219       -0.0125  -29.8875  -51.3528 H         1 UNK         0.0600 
    220 H220       -3.0515  -26.5338  -52.3990 H         1 UNK         0.3000 
    221 H221       -4.0748  -25.3024  -53.9024 H         1 UNK         0.0600 
    222 H222       -3.9440  -27.6838  -55.8146 H         1 UNK         0.0600 
    223 H223       -5.1531  -27.4656  -54.5493 H         1 UNK         0.0600 
    224 H224       -5.0682  -26.3360  -55.8890 H         1 UNK         0.0600 
    225 H225       -0.9364  -25.5958  -54.0969 H         1 UNK         0.3000 
    226 H226       -0.4173  -24.6123  -56.8021 H         1 UNK         0.0600 
    227 H227        1.1726  -26.1322  -55.5865 H         1 UNK         0.0600 
    228 H228        1.9235  -24.6244  -56.0897 H         1 UNK         0.0600 
    229 H229        1.4703  -24.8539  -54.4081 H         1 UNK         0.0600 
    230 H230       -0.8417  -23.1877  -53.5571 H         1 UNK         0.3000 
    231 H231        0.2944  -20.5852  -54.4269 H         1 UNK         0.0600 
    232 H232        0.0532  -20.0099  -52.0108 H         1 UNK         0.0600 
    233 H233        1.0199  -21.4537  -52.2461 H         1 UNK         0.0600 
    234 H234       -0.6526  -21.5857  -51.6935 H         1 UNK         0.0600 
    235 H235       -2.7910  -22.0921  -53.7555 H         1 UNK         0.3000 
    236 H236       -4.9284  -21.4632  -53.7714 H         1 UNK         0.0600 
    237 H237       -4.5703  -20.4458  -55.9900 H         1 UNK         0.0600 
    238 H238       -5.7321  -19.5196  -55.0588 H         1 UNK         0.0600 
    239 H239       -4.0920  -18.9182  -55.2643 H         1 UNK         0.0600 
    240 H240       -4.6972  -18.0695  -53.5034 H         1 UNK         0.3000 
    241 H241       -5.5609  -18.0140  -50.7863 H         1 UNK         0.0600 
    242 H242       -4.5493  -16.7968  -48.9573 H         1 UNK         0.3800 
    243 H243       -2.8473  -17.1133  -48.7196 H         1 UNK         0.3800 
    244 H244       -5.0458  -15.4146  -51.1381 H         1 UNK         0.0800 
    245 H245       -4.7401  -15.8576  -52.7874 H         1 UNK         0.0800 
    246 H246       -8.7889  -15.1971  -50.8302 H         1 UNK         0.0800 
    247 H247       -7.4079  -14.1377  -50.9535 H         1 UNK         0.0800 
@<TRIPOS>BOND
     1    1    2 1    
     2    1  127 1    
     3    1  128 1    
     4    1  129 1    
     5    2    3 2    
     6    2    4 am   BACKBONE|DICT|INTERRES
     7    4    5 1    
     8    4  130 1    
     9    5    6 1    
    10    5   65 1    
    11    5  131 1    
    12    6    7 1    
    13    6  132 1    
    14    6  133 1    
    15    7    8 1    
    16    8    9 1    
    17    8  134 1    
    18    8  135 1    
    19    9   10 ar   
    20    9   14 ar   
    21   10   11 ar   
    22   10  136 1    
    23   11   12 ar   
    24   11  126 1    
    25   12   13 ar   
    26   12  137 1    
    27   13   14 ar   
    28   13   15 1    
    29   14  138 1    
    30   15   16 1    
    31   15  139 1    
    32   15  140 1    
    33   16   17 1    
    34   17   18 1    
    35   17  141 1    
    36   17  142 1    
    37   18   19 1    
    38   18   67 1    
    39   18  143 1    
    40   19   20 am   BACKBONE|DICT|INTERRES
    41   19  144 1    
    42   20   21 2    
    43   20   22 1    
    44   22   23 1    
    45   22   24 1    
    46   22  145 1    
    47   23  146 1    
    48   23  147 1    
    49   23  148 1    
    50   24   25 am   BACKBONE|DICT|INTERRES
    51   24  149 1    
    52   25   26 2    
    53   25   27 1    
    54   27   28 1    
    55   27   29 1    
    56   27  150 1    
    57   28  151 1    
    58   28  152 1    
    59   28  153 1    
    60   29   30 am   BACKBONE|DICT|INTERRES
    61   29  154 1    
    62   30   31 2    
    63   30   32 1    
    64   32   33 1    
    65   32   34 1    
    66   32  155 1    
    67   33  156 1    
    68   33  157 1    
    69   33  158 1    
    70   34   35 am   BACKBONE|DICT|INTERRES
    71   34  159 1    
    72   35   36 2    
    73   35   37 1    
    74   37   38 1    
    75   37   39 1    
    76   37  160 1    
    77   38  161 1    
    78   38  162 1    
    79   38  163 1    
    80   39   40 am   BACKBONE|DICT|INTERRES
    81   39  164 1    
    82   40   41 2    
    83   40   42 1    
    84   42   43 1    
    85   42   44 1    
    86   42  165 1    
    87   43  166 1    
    88   43  167 1    
    89   43  168 1    
    90   44   45 am   BACKBONE|DICT|INTERRES
    91   44  169 1    
    92   45   46 2    
    93   45   47 1    
    94   47   48 1    
    95   47   49 1    
    96   47  170 1    
    97   48  171 1    
    98   48  172 1    
    99   48  173 1    
   100   49   50 am   BACKBONE|DICT|INTERRES
   101   49  174 1    
   102   50   51 2    
   103   50   52 1    
   104   52   53 1    
   105   52   54 1    
   106   52  175 1    
   107   53  176 1    
   108   53  177 1    
   109   53  178 1    
   110   54   55 am   BACKBONE|DICT|INTERRES
   111   54  179 1    
   112   55   56 2    
   113   55   57 1    
   114   57   58 1    
   115   57   59 1    
   116   57  180 1    
   117   58  181 1    
   118   58  182 1    
   119   58  183 1    
   120   59   60 am   BACKBONE|DICT|INTERRES
   121   59  184 1    
   122   60   61 2    
   123   60   62 1    
   124   62   63 1    
   125   62   64 1    
   126   62  185 1    
   127   63  186 1    
   128   63  187 1    
   129   63  188 1    
   130   64   65 am   BACKBONE|DICT|INTERRES
   131   64  189 1    
   132   65   66 2    
   133   67   68 2    
   134   67   69 am   BACKBONE|DICT|INTERRES
   135   69   70 1    
   136   69  190 1    
   137   70   71 1    
   138   70   72 1    
   139   70  191 1    
   140   71  192 1    
   141   71  193 1    
   142   71  194 1    
   143   72   73 2    
   144   72   74 am   BACKBONE|DICT|INTERRES
   145   74   75 1    
   146   74  195 1    
   147   75   76 1    
   148   75   77 1    
   149   75  196 1    
   150   76  197 1    
   151   76  198 1    
   152   76  199 1    
   153   77   78 2    
   154   77   79 am   BACKBONE|DICT|INTERRES
   155   79   80 1    
   156   79  200 1    
   157   80   81 1    
   158   80   82 1    
   159   80  201 1    
   160   81  202 1    
   161   81  203 1    
   162   81  204 1    
   163   82   83 2    
   164   82   84 am   BACKBONE|DICT|INTERRES
   165   84   85 1    
   166   84  205 1    
   167   85   86 1    
   168   85   87 1    
   169   85  206 1    
   170   86  207 1    
   171   86  208 1    
   172   86  209 1    
   173   87   88 2    
   174   87   89 am   BACKBONE|DICT|INTERRES
   175   89   90 1    
   176   89  210 1    
   177   90   91 1    
   178   90   92 1    
   179   90  211 1    
   180   91  212 1    
   181   91  213 1    
   182   91  214 1    
   183   92   93 2    
   184   92   94 am   BACKBONE|DICT|INTERRES
   185   94   95 1    
   186   94  215 1    
   187   95   96 1    
   188   95   97 1    
   189   95  216 1    
   190   96  217 1    
   191   96  218 1    
   192   96  219 1    
   193   97   98 2    
   194   97   99 am   BACKBONE|DICT|INTERRES
   195   99  100 1    
   196   99  220 1    
   197  100  101 1    
   198  100  102 1    
   199  100  221 1    
   200  101  222 1    
   201  101  223 1    
   202  101  224 1    
   203  102  103 2    
   204  102  104 am   BACKBONE|DICT|INTERRES
   205  104  105 1    
   206  104  225 1    
   207  105  106 1    
   208  105  107 1    
   209  105  226 1    
   210  106  227 1    
   211  106  228 1    
   212  106  229 1    
   213  107  108 2    
   214  107  109 am   BACKBONE|DICT|INTERRES
   215  109  110 1    
   216  109  230 1    
   217  110  111 1    
   218  110  112 1    
   219  110  231 1    
   220  111  232 1    
   221  111  233 1    
   222  111  234 1    
   223  112  113 2    
   224  112  114 am   BACKBONE|DICT|INTERRES
   225  114  115 1    
   226  114  235 1    
   227  115  116 1    
   228  115  117 1    
   229  115  236 1    
   230  116  237 1    
   231  116  238 1    
   232  116  239 1    
   233  117  118 2    
   234  117  119 am   BACKBONE|DICT|INTERRES
   235  119  120 1    
   236  119  240 1    
   237  120  121 1    
   238  120  124 1    
   239  120  241 1    
   240  121  122 am   BACKBONE|DICT|INTERRES
   241  121  123 2    
   242  122  242 1    
   243  122  243 1    
   244  124  125 1    
   245  124  244 1    
   246  124  245 1    
   247  125  126 1    
   248  126  246 1    
   249  126  247 1    
@<TRIPOS>SUBSTRUCTURE
     1 UNK         1 GROUP             0       ****    0 ROOT    
