@<TRIPOS>MOLECULE
3R540
247   249    1
SMALL
USER_CHARGES


@<TRIPOS>ATOM
      1 CA         -4.8886  -14.8871  -45.1905 C.3       0 UNK        -0.1800 
      2 C          -4.0036  -16.0489  -45.6385 C.2       0 UNK         0.5000 
      3 O          -4.1904  -17.1614  -45.1531 O.2       0 UNK        -0.5000 
      4 N          -3.0449  -15.8557  -46.5558 N.am      1 UNK        -0.5000 
      5 CA         -2.6056  -14.5846  -47.1407 C.3       1 UNK         0.1400 
      6 C6         -1.7361  -14.8072  -48.4011 C.3       23 UNK        -0.0398 
      7 S7         -2.7526  -15.3231  -49.8264 S.3       23 UNK        -0.2404 
      8 C8         -1.8191  -14.6206  -51.2224 C.3       23 UNK        -0.0205 
      9 C9         -0.7139  -15.5583  -51.6827 C.ar      23 UNK        -0.0193 
     10 C10        -0.9085  -16.3700  -52.8039 C.ar      23 UNK        -0.1150 
     11 C11         0.0978  -17.2376  -53.2372 C.ar      23 UNK        -0.0193 
     12 C12         1.3046  -17.2928  -52.5347 C.ar      23 UNK        -0.1150 
     13 C13         1.5113  -16.4886  -51.4098 C.ar      23 UNK        -0.0193 
     14 C14         0.5008  -15.6170  -50.9933 C.ar      23 UNK        -0.1150 
     15 C15         2.8333  -16.5479  -50.6584 C.3       23 UNK        -0.0205 
     16 S16         3.1509  -18.1844  -49.9248 S.3       23 UNK        -0.2404 
     17 C17         1.9394  -18.2481  -48.5617 C.3       23 UNK        -0.0398 
     18 CA          1.2524  -19.6365  -48.4549 C.3       11 UNK         0.1400 
     19 N           1.1304  -20.0827  -47.0646 N.am      11 UNK        -0.5000 
     20 C           0.9128  -21.3518  -46.6904 C.2       10 UNK         0.5000 
     21 O           0.8970  -22.2963  -47.4787 O.2       10 UNK        -0.5000 
     22 CA          0.6429  -21.6230  -45.1965 C.3       10 UNK         0.1400 
     23 CB          1.8654  -22.2872  -44.5463 C.3       10 UNK        -0.1800 
     24 N           0.2711  -20.4326  -44.4258 N.am      10 UNK        -0.5000 
     25 C          -0.8470  -19.7142  -44.6006 C.2       9 UNK         0.5000 
     26 O          -1.7078  -19.9963  -45.4347 O.2       9 UNK        -0.5000 
     27 CA         -0.9791  -18.4240  -43.7670 C.3       9 UNK         0.1400 
     28 CB         -1.4363  -18.7298  -42.3335 C.3       9 UNK        -0.1800 
     29 N           0.2637  -17.6504  -43.7304 N.am      9 UNK        -0.5000 
     30 C           0.8597  -17.1240  -44.8112 C.2       8 UNK         0.5000 
     31 O           0.4108  -17.2157  -45.9541 O.2       8 UNK        -0.5000 
     32 CA          2.2276  -16.4603  -44.5800 C.3       8 UNK         0.1400 
     33 CB          2.0815  -15.0589  -43.9631 C.3       8 UNK        -0.1800 
     34 N           3.0696  -17.2936  -43.7210 N.am      8 UNK        -0.5000 
     35 C           3.6658  -18.4265  -44.1222 C.2       7 UNK         0.5000 
     36 O           3.6087  -18.8559  -45.2739 O.2       7 UNK        -0.5000 
     37 CA          4.4406  -19.2277  -43.0575 C.3       7 UNK         0.1400 
     38 CB          5.9086  -18.7784  -43.0124 C.3       7 UNK        -0.1800 
     39 N           3.8659  -19.1175  -41.7160 N.am      7 UNK        -0.5000 
     40 C           2.6627  -19.5867  -41.3562 C.2       6 UNK         0.5000 
     41 O           1.9116  -20.1952  -42.1150 O.2       6 UNK        -0.5000 
     42 CA          2.1935  -19.2632  -39.9254 C.3       6 UNK         0.1400 
     43 CB          2.6609  -20.3486  -38.9449 C.3       6 UNK        -0.1800 
     44 N           2.6481  -17.9510  -39.4553 N.am      6 UNK        -0.5000 
     45 C           2.3355  -16.7891  -40.0419 C.2       5 UNK         0.5000 
     46 O           1.6175  -16.6986  -41.0451 O.2       5 UNK        -0.5000 
     47 CA          2.9757  -15.5297  -39.4445 C.3       5 UNK         0.1400 
     48 CB          4.4488  -15.4044  -39.8701 C.3       5 UNK        -0.1800 
     49 N           2.2283  -14.3861  -39.9388 N.am      5 UNK        -0.5000 
     50 C           2.0306  -13.2231  -39.3128 C.2       4 UNK         0.5000 
     51 O           2.5589  -12.9198  -38.2424 O.2       4 UNK        -0.5000 
     52 CA          1.0646  -12.2362  -39.9992 C.3       4 UNK         0.1400 
     53 CB          1.8483  -11.1420  -40.7404 C.3       4 UNK        -0.1800 
     54 N           0.1595  -12.8899  -40.9494 N.am      4 UNK        -0.5000 
     55 C          -0.8624  -13.6934  -40.6185 C.2       3 UNK         0.5000 
     56 O          -1.1777  -13.9457  -39.4546 O.2       3 UNK        -0.5000 
     57 CA         -1.6357  -14.3360  -41.7907 C.3       3 UNK         0.1400 
     58 CB         -3.0813  -14.7265  -41.4230 C.3       3 UNK        -0.1800 
     59 N          -1.6100  -13.5353  -43.0196 N.am      3 UNK        -0.5000 
     60 C          -2.0757  -12.2931  -43.2142 C.2       2 UNK         0.5000 
     61 O          -2.6166  -11.6150  -42.3409 O.2       2 UNK        -0.5000 
     62 CA         -1.9147  -11.7071  -44.6329 C.3       2 UNK         0.1400 
     63 CB         -0.4774  -11.1997  -44.8627 C.3       2 UNK        -0.1800 
     64 N          -2.3534  -12.6081  -45.7108 N.am      2 UNK        -0.5000 
     65 C          -1.8326  -13.7882  -46.0764 C.2       1 UNK         0.5000 
     66 O          -0.8202  -14.2775  -45.5759 O.2       1 UNK        -0.5000 
     67 C          -0.1074  -19.6841  -49.1895 C.2       11 UNK         0.5000 
     68 O          -0.1248  -19.8670  -50.4059 O.2       11 UNK        -0.5000 
     69 N          -1.2158  -19.5732  -48.4384 N.am      12 UNK        -0.5000 
     70 CA         -2.5667  -19.8422  -48.9279 C.3       12 UNK         0.1400 
     71 CB         -3.5682  -18.8754  -48.2844 C.3       12 UNK        -0.1800 
     72 C          -2.9731  -21.2970  -48.6546 C.2       12 UNK         0.5000 
     73 O          -3.4840  -21.9576  -49.5600 O.2       12 UNK        -0.5000 
     74 N          -2.7004  -21.7685  -47.4291 N.am      13 UNK        -0.5000 
     75 CA         -2.9864  -23.1015  -46.8903 C.3       13 UNK         0.1400 
     76 CB         -2.2691  -24.1953  -47.7109 C.3       13 UNK        -0.1800 
     77 C          -4.4934  -23.3948  -46.7311 C.2       13 UNK         0.5000 
     78 O          -5.3439  -22.5529  -47.0352 O.2       13 UNK        -0.5000 
     79 N          -4.7966  -24.5968  -46.2219 N.am      14 UNK        -0.5000 
     80 CA         -6.1516  -25.1157  -46.0352 C.3       14 UNK         0.1400 
     81 CB         -6.0772  -26.4877  -45.3487 C.3       14 UNK        -0.1800 
     82 C          -6.9045  -25.2188  -47.3727 C.2       14 UNK         0.5000 
     83 O          -6.3300  -25.6839  -48.3597 O.2       14 UNK        -0.5000 
     84 N          -8.1578  -24.7439  -47.3839 N.am      15 UNK        -0.5000 
     85 CA         -9.0623  -24.6679  -48.5407 C.3       15 UNK         0.1400 
     86 CB         -9.4843  -26.0845  -48.9848 C.3       15 UNK        -0.1800 
     87 C          -8.5173  -23.8228  -49.7171 C.2       15 UNK         0.5000 
     88 O          -8.9753  -23.9930  -50.8481 O.2       15 UNK        -0.5000 
     89 N          -7.5463  -22.9388  -49.4316 N.am      16 UNK        -0.5000 
     90 CA         -6.7890  -22.1113  -50.3763 C.3       16 UNK         0.1400 
     91 CB         -7.7094  -21.0731  -51.0539 C.3       16 UNK        -0.1800 
     92 C          -5.9671  -22.9396  -51.3912 C.2       16 UNK         0.5000 
     93 O          -5.7295  -22.4743  -52.5064 O.2       16 UNK        -0.5000 
     94 N          -5.5470  -24.1530  -51.0006 N.am      17 UNK        -0.5000 
     95 CA         -4.8623  -25.1164  -51.8649 C.3       17 UNK         0.1400 
     96 CB         -4.6867  -26.4422  -51.1103 C.3       17 UNK        -0.1800 
     97 C          -3.5106  -24.6284  -52.4173 C.2       17 UNK         0.5000 
     98 O          -3.2221  -24.8573  -53.5928 O.2       17 UNK        -0.5000 
     99 N          -2.7142  -23.9508  -51.5794 N.am      18 UNK        -0.5000 
    100 CA        -1.4280  -23.3827  -51.9842 C.3       18 UNK         0.1400 
    101 CB        -0.4942  -23.2431  -50.7742 C.3       18 UNK        -0.1800 
    102 C         -1.6055  -22.0492  -52.7282 C.2       18 UNK         0.5000 
    103 O         -0.8240  -21.7726  -53.6372 O.2       18 UNK        -0.5000 
    104 N         -2.6564  -21.2865  -52.3862 N.am      19 UNK        -0.5000 
    105 CA        -3.0662  -20.0703  -53.0946 C.3       19 UNK         0.1400 
    106 CB        -4.1651  -19.3238  -52.3168 C.3       19 UNK        -0.1800 
    107 C         -3.5071  -20.3508  -54.5430 C.2       19 UNK         0.5000 
    108 O         -3.1531  -19.5930  -55.4459 O.2       19 UNK        -0.5000 
    109 N         -4.2540  -21.4452  -54.7384 N.am      20 UNK        -0.5000 
    110 CA        -4.6972  -21.9275  -56.0454 C.3       20 UNK         0.1400 
    111 CB        -5.7364  -23.0412  -55.8452 C.3       20 UNK        -0.1800 
    112 C         -3.5364  -22.4204  -56.9304 C.2       20 UNK         0.5000 
    113 O         -3.5761  -22.2191  -58.1448 O.2       20 UNK        -0.5000 
    114 N         -2.5326  -23.0564  -56.3115 N.am      21 UNK        -0.5000 
    115 CA        -1.3383  -23.5659  -56.9813 C.3       21 UNK         0.1400 
    116 CB        -0.6903  -24.6545  -56.1087 C.3       21 UNK        -0.1800 
    117 C         -0.3426  -22.4394  -57.3129 C.2       21 UNK         0.5000 
    118 O         -0.0542  -22.2035  -58.4866 O.2       21 UNK        -0.5000 
    119 N          0.1625  -21.7733  -56.2669 N.am      22 UNK        -0.5000 
    120 CA         1.1546  -20.6860  -56.3028 C.3       22 UNK         0.1400 
    121 C          2.5384  -21.0445  -56.9310 C.2       22 UNK         0.5000 
    122 N          2.9229  -22.3141  -56.9854 N.am      22 UNK        -0.7600 
    123 O          3.2900  -20.1687  -57.3508 O.2       22 UNK        -0.5000 
    124 C124        0.5450  -19.3505  -56.8236 C.3       23 UNK        -0.0398 
    125 S125        1.0282  -17.9245  -55.7883 S.3       23 UNK        -0.2404 
    126 C126       -0.1479  -18.1603  -54.4205 C.3       23 UNK        -0.0205 
    127 H127       -4.3562  -14.2443  -44.4905 H         1 UNK         0.0600 
    128 H128       -5.7751  -15.2652  -44.6808 H         1 UNK         0.0600 
    129 H129       -5.2318  -14.2899  -46.0342 H         1 UNK         0.0600 
    130 H130       -2.4669  -16.6452  -46.8024 H         1 UNK         0.3000 
    131 H131       -3.4817  -14.0066  -47.4390 H         1 UNK         0.0600 
    132 H132       -0.9637  -15.5570  -48.2178 H         1 UNK         0.0800 
    133 H133       -1.2130  -13.8870  -48.6673 H         1 UNK         0.0800 
    134 H134       -1.4048  -13.6463  -50.9602 H         1 UNK         0.0800 
    135 H135       -2.5152  -14.4362  -52.0420 H         1 UNK         0.0800 
    136 H136       -1.8511  -16.3346  -53.3320 H         1 UNK         0.1150 
    137 H137        2.0802  -17.9737  -52.8564 H         1 UNK         0.1150 
    138 H138        0.6565  -14.9872  -50.1292 H         1 UNK         0.1150 
    139 H139        3.6404  -16.3144  -51.3540 H         1 UNK         0.0800 
    140 H140        2.8761  -15.7892  -49.8752 H         1 UNK         0.0800 
    141 H141        1.2104  -17.4406  -48.6530 H         1 UNK         0.0800 
    142 H142        2.5001  -18.0289  -47.6523 H         1 UNK         0.0800 
    143 H143        1.8913  -20.3718  -48.9496 H         1 UNK         0.0600 
    144 H144        1.1404  -19.3589  -46.3582 H         1 UNK         0.3000 
    145 H145       -0.1915  -22.3250  -45.1440 H         1 UNK         0.0600 
    146 H146        1.6599  -22.5682  -43.5133 H         1 UNK         0.0600 
    147 H147        2.1484  -23.1964  -45.0783 H         1 UNK         0.0600 
    148 H148        2.7291  -21.6222  -44.5496 H         1 UNK         0.0600 
    149 H149        0.9115  -20.1665  -43.6810 H         1 UNK         0.3000 
    150 H150       -1.7393  -17.8008  -44.2403 H         1 UNK         0.0600 
    151 H151       -2.3818  -19.2736  -42.3355 H         1 UNK         0.0600 
    152 H152       -1.5902  -17.8129  -41.7643 H         1 UNK         0.0600 
    153 H153       -0.7077  -19.3384  -41.7975 H         1 UNK         0.0600 
    154 H154        0.7104  -17.5377  -42.8279 H         1 UNK         0.3000 
    155 H155        2.7225  -16.3516  -45.5475 H         1 UNK         0.0600 
    156 H156        1.4489  -15.0622  -43.0762 H         1 UNK         0.0600 
    157 H157        1.6334  -14.3701  -44.6787 H         1 UNK         0.0600 
    158 H158        3.0503  -14.6443  -43.6840 H         1 UNK         0.0600 
    159 H159        3.1095  -17.0411  -42.7439 H         1 UNK         0.3000 
    160 H160        4.4144  -20.2793  -43.3497 H         1 UNK         0.0600 
    161 H161        6.0022  -17.7377  -42.6990 H         1 UNK         0.0600 
    162 H162        6.3750  -18.8690  -43.9944 H         1 UNK         0.0600 
    163 H163        6.4879  -19.3912  -42.3215 H         1 UNK         0.0600 
    164 H164        4.4150  -18.6284  -41.0250 H         1 UNK         0.3000 
    165 H165        1.1016  -19.2549  -39.9319 H         1 UNK         0.0600 
    166 H166        2.2628  -20.1750  -37.9450 H         1 UNK         0.0600 
    167 H167        2.3188  -21.3346  -39.2626 H         1 UNK         0.0600 
    168 H168        3.7486  -20.3860  -38.8724 H         1 UNK         0.0600 
    169 H169        3.2457  -17.9465  -38.6410 H         1 UNK         0.3000 
    170 H170        2.9004  -15.5810  -38.3563 H         1 UNK         0.0600 
    171 H171        5.0379  -16.2477  -39.5081 H         1 UNK         0.0600 
    172 H172        4.5524  -15.3704  -40.9555 H         1 UNK         0.0600 
    173 H173        4.8995  -14.4985  -39.4643 H         1 UNK         0.0600 
    174 H174        1.7045  -14.5798  -40.7819 H         1 UNK         0.3000 
    175 H175        0.4639  -11.7634  -39.2194 H         1 UNK         0.0600 
    176 H176        2.4624  -11.5582  -41.5401 H         1 UNK         0.0600 
    177 H177        1.1764  -10.4050  -41.1809 H         1 UNK         0.0600 
    178 H178        2.5130  -10.6085  -40.0597 H         1 UNK         0.0600 
    179 H179        0.3365  -12.7251  -41.9290 H         1 UNK         0.3000 
    180 H180       -1.1004  -15.2577  -42.0244 H         1 UNK         0.0600 
    181 H181       -3.5788  -15.2203  -42.2576 H         1 UNK         0.0600 
    182 H182       -3.6765  -13.8574  -41.1418 H         1 UNK         0.0600 
    183 H183       -3.0989  -15.4219  -40.5831 H         1 UNK         0.0600 
    184 H184       -1.1875  -13.9822  -43.8320 H         1 UNK         0.3000 
    185 H185       -2.5758  -10.8406  -44.6882 H         1 UNK         0.0600 
    186 H186       -0.2061  -10.4532  -44.1151 H         1 UNK         0.0600 
    187 H187        0.2594  -12.0008  -44.8008 H         1 UNK         0.0600 
    188 H188       -0.3784  -10.7297  -45.8411 H         1 UNK         0.0600 
    189 H189       -3.1989  -12.3072  -46.1759 H         1 UNK         0.3000 
    190 H190       -1.1142  -19.4629  -47.4372 H         1 UNK         0.3000 
    191 H191       -2.5946  -19.6890  -50.0046 H         1 UNK         0.0600 
    192 H192       -4.5816  -19.0729  -48.6363 H         1 UNK         0.0600 
    193 H193       -3.3334  -17.8450  -48.5404 H         1 UNK         0.0600 
    194 H194       -3.5758  -18.9608  -47.1975 H         1 UNK         0.0600 
    195 H195       -2.3386  -21.1080  -46.7450 H         1 UNK         0.3000 
    196 H196       -2.5627  -23.1049  -45.8852 H         1 UNK         0.0600 
    197 H197       -2.7385  -24.3495  -48.6821 H         1 UNK         0.0600 
    198 H198       -1.2235  -23.9401  -47.8791 H         1 UNK         0.0600 
    199 H199       -2.2799  -25.1539  -47.1921 H         1 UNK         0.0600 
    200 H200       -4.0463  -25.2387  -46.0142 H         1 UNK         0.3000 
    201 H201       -6.6843  -24.4266  -45.3765 H         1 UNK         0.0600 
    202 H202       -5.5307  -27.2115  -45.9549 H         1 UNK         0.0600 
    203 H203       -7.0755  -26.8920  -45.1762 H         1 UNK         0.0600 
    204 H204       -5.5833  -26.4191  -44.3793 H         1 UNK         0.0600 
    205 H205       -8.5303  -24.3628  -46.5249 H         1 UNK         0.3000 
    206 H206       -9.9579  -24.1515  -48.1927 H         1 UNK         0.0600 
    207 H207       -9.8705  -26.6626  -48.1454 H         1 UNK         0.0600 
    208 H208      -10.2733  -26.0424  -49.7365 H         1 UNK         0.0600 
    209 H209       -8.6504  -26.6378  -49.4181 H         1 UNK         0.0600 
    210 H210       -7.2207  -22.8925  -48.4742 H         1 UNK         0.3000 
    211 H211       -6.0655  -21.5594  -49.7763 H         1 UNK         0.0600 
    212 H212       -7.1354  -20.3564  -51.6405 H         1 UNK         0.0600 
    213 H213       -8.2731  -20.5045  -50.3144 H         1 UNK         0.0600 
    214 H214       -8.4225  -21.5434  -51.7311 H         1 UNK         0.0600 
    215 H215       -5.7879  -24.4758  -50.0703 H         1 UNK         0.3000 
    216 H216       -5.5132  -25.3012  -52.7220 H         1 UNK         0.0600 
    217 H217       -4.0979  -26.3120  -50.2013 H         1 UNK         0.0600 
    218 H218       -4.1793  -27.1831  -51.7296 H         1 UNK         0.0600 
    219 H219       -5.6513  -26.8632  -50.8259 H         1 UNK         0.0600 
    220 H220       -3.0594  -23.6975  -50.6608 H         1 UNK         0.3000 
    221 H221       -0.9446  -24.0760  -52.6758 H         1 UNK         0.0600 
    222 H222       -0.3222  -24.2066  -50.2948 H         1 UNK         0.0600 
    223 H223       -0.8909  -22.5631  -50.0245 H         1 UNK         0.0600 
    224 H224        0.4777  -22.8523  -51.0778 H         1 UNK         0.0600 
    225 H225       -3.2390  -21.5957  -51.6175 H         1 UNK         0.3000 
    226 H226       -2.2017  -19.4104  -53.1389 H         1 UNK         0.0600 
    227 H227       -4.8416  -20.0081  -51.8087 H         1 UNK         0.0600 
    228 H228       -3.7362  -18.6573  -51.5702 H         1 UNK         0.0600 
    229 H229       -4.7673  -18.6944  -52.9738 H         1 UNK         0.0600 
    230 H230       -4.5807  -21.9627  -53.9258 H         1 UNK         0.3000 
    231 H231       -5.1821  -21.0979  -56.5640 H         1 UNK         0.0600 
    232 H232       -5.3182  -23.8874  -55.2986 H         1 UNK         0.0600 
    233 H233       -6.1007  -23.4143  -56.8032 H         1 UNK         0.0600 
    234 H234       -6.5998  -22.6783  -55.2871 H         1 UNK         0.0600 
    235 H235       -2.5927  -23.1948  -55.3121 H         1 UNK         0.3000 
    236 H236       -1.6386  -24.0330  -57.9218 H         1 UNK         0.0600 
    237 H237       -1.3743  -25.4892  -55.9536 H         1 UNK         0.0600 
    238 H238        0.2067  -25.0537  -56.5835 H         1 UNK         0.0600 
    239 H239       -0.4042  -24.2766  -55.1269 H         1 UNK         0.0600 
    240 H240       -0.1823  -21.9933  -55.3346 H         1 UNK         0.3000 
    241 H241        1.3977  -20.5536  -55.2486 H         1 UNK         0.0600 
    242 H242        3.8198  -22.5440  -57.3840 H         1 UNK         0.3800 
    243 H243        2.3268  -23.0467  -56.6356 H         1 UNK         0.3800 
    244 H244       -0.5454  -19.3989  -56.8297 H         1 UNK         0.0800 
    245 H245        0.8279  -19.1591  -57.8599 H         1 UNK         0.0800 
    246 H246       -1.1552  -18.0171  -54.8117 H         1 UNK         0.0800 
    247 H247       -0.0898  -19.1891  -54.0654 H         1 UNK         0.0800 
@<TRIPOS>BOND
     1    1    2 1    
     2    1  127 1    
     3    1  128 1    
     4    1  129 1    
     5    2    3 2    
     6    2    4 am   BACKBONE|DICT|INTERRES
     7    4    5 1    
     8    4  130 1    
     9    5    6 1    
    10    5   65 1    
    11    5  131 1    
    12    6    7 1    
    13    6  132 1    
    14    6  133 1    
    15    7    8 1    
    16    8    9 1    
    17    8  134 1    
    18    8  135 1    
    19    9   10 ar   
    20    9   14 ar   
    21   10   11 ar   
    22   10  136 1    
    23   11   12 ar   
    24   11  126 1    
    25   12   13 ar   
    26   12  137 1    
    27   13   14 ar   
    28   13   15 1    
    29   14  138 1    
    30   15   16 1    
    31   15  139 1    
    32   15  140 1    
    33   16   17 1    
    34   17   18 1    
    35   17  141 1    
    36   17  142 1    
    37   18   19 1    
    38   18   67 1    
    39   18  143 1    
    40   19   20 am   BACKBONE|DICT|INTERRES
    41   19  144 1    
    42   20   21 2    
    43   20   22 1    
    44   22   23 1    
    45   22   24 1    
    46   22  145 1    
    47   23  146 1    
    48   23  147 1    
    49   23  148 1    
    50   24   25 am   BACKBONE|DICT|INTERRES
    51   24  149 1    
    52   25   26 2    
    53   25   27 1    
    54   27   28 1    
    55   27   29 1    
    56   27  150 1    
    57   28  151 1    
    58   28  152 1    
    59   28  153 1    
    60   29   30 am   BACKBONE|DICT|INTERRES
    61   29  154 1    
    62   30   31 2    
    63   30   32 1    
    64   32   33 1    
    65   32   34 1    
    66   32  155 1    
    67   33  156 1    
    68   33  157 1    
    69   33  158 1    
    70   34   35 am   BACKBONE|DICT|INTERRES
    71   34  159 1    
    72   35   36 2    
    73   35   37 1    
    74   37   38 1    
    75   37   39 1    
    76   37  160 1    
    77   38  161 1    
    78   38  162 1    
    79   38  163 1    
    80   39   40 am   BACKBONE|DICT|INTERRES
    81   39  164 1    
    82   40   41 2    
    83   40   42 1    
    84   42   43 1    
    85   42   44 1    
    86   42  165 1    
    87   43  166 1    
    88   43  167 1    
    89   43  168 1    
    90   44   45 am   BACKBONE|DICT|INTERRES
    91   44  169 1    
    92   45   46 2    
    93   45   47 1    
    94   47   48 1    
    95   47   49 1    
    96   47  170 1    
    97   48  171 1    
    98   48  172 1    
    99   48  173 1    
   100   49   50 am   BACKBONE|DICT|INTERRES
   101   49  174 1    
   102   50   51 2    
   103   50   52 1    
   104   52   53 1    
   105   52   54 1    
   106   52  175 1    
   107   53  176 1    
   108   53  177 1    
   109   53  178 1    
   110   54   55 am   BACKBONE|DICT|INTERRES
   111   54  179 1    
   112   55   56 2    
   113   55   57 1    
   114   57   58 1    
   115   57   59 1    
   116   57  180 1    
   117   58  181 1    
   118   58  182 1    
   119   58  183 1    
   120   59   60 am   BACKBONE|DICT|INTERRES
   121   59  184 1    
   122   60   61 2    
   123   60   62 1    
   124   62   63 1    
   125   62   64 1    
   126   62  185 1    
   127   63  186 1    
   128   63  187 1    
   129   63  188 1    
   130   64   65 am   BACKBONE|DICT|INTERRES
   131   64  189 1    
   132   65   66 2    
   133   67   68 2    
   134   67   69 am   BACKBONE|DICT|INTERRES
   135   69   70 1    
   136   69  190 1    
   137   70   71 1    
   138   70   72 1    
   139   70  191 1    
   140   71  192 1    
   141   71  193 1    
   142   71  194 1    
   143   72   73 2    
   144   72   74 am   BACKBONE|DICT|INTERRES
   145   74   75 1    
   146   74  195 1    
   147   75   76 1    
   148   75   77 1    
   149   75  196 1    
   150   76  197 1    
   151   76  198 1    
   152   76  199 1    
   153   77   78 2    
   154   77   79 am   BACKBONE|DICT|INTERRES
   155   79   80 1    
   156   79  200 1    
   157   80   81 1    
   158   80   82 1    
   159   80  201 1    
   160   81  202 1    
   161   81  203 1    
   162   81  204 1    
   163   82   83 2    
   164   82   84 am   BACKBONE|DICT|INTERRES
   165   84   85 1    
   166   84  205 1    
   167   85   86 1    
   168   85   87 1    
   169   85  206 1    
   170   86  207 1    
   171   86  208 1    
   172   86  209 1    
   173   87   88 2    
   174   87   89 am   BACKBONE|DICT|INTERRES
   175   89   90 1    
   176   89  210 1    
   177   90   91 1    
   178   90   92 1    
   179   90  211 1    
   180   91  212 1    
   181   91  213 1    
   182   91  214 1    
   183   92   93 2    
   184   92   94 am   BACKBONE|DICT|INTERRES
   185   94   95 1    
   186   94  215 1    
   187   95   96 1    
   188   95   97 1    
   189   95  216 1    
   190   96  217 1    
   191   96  218 1    
   192   96  219 1    
   193   97   98 2    
   194   97   99 am   BACKBONE|DICT|INTERRES
   195   99  100 1    
   196   99  220 1    
   197  100  101 1    
   198  100  102 1    
   199  100  221 1    
   200  101  222 1    
   201  101  223 1    
   202  101  224 1    
   203  102  103 2    
   204  102  104 am   BACKBONE|DICT|INTERRES
   205  104  105 1    
   206  104  225 1    
   207  105  106 1    
   208  105  107 1    
   209  105  226 1    
   210  106  227 1    
   211  106  228 1    
   212  106  229 1    
   213  107  108 2    
   214  107  109 am   BACKBONE|DICT|INTERRES
   215  109  110 1    
   216  109  230 1    
   217  110  111 1    
   218  110  112 1    
   219  110  231 1    
   220  111  232 1    
   221  111  233 1    
   222  111  234 1    
   223  112  113 2    
   224  112  114 am   BACKBONE|DICT|INTERRES
   225  114  115 1    
   226  114  235 1    
   227  115  116 1    
   228  115  117 1    
   229  115  236 1    
   230  116  237 1    
   231  116  238 1    
   232  116  239 1    
   233  117  118 2    
   234  117  119 am   BACKBONE|DICT|INTERRES
   235  119  120 1    
   236  119  240 1    
   237  120  121 1    
   238  120  124 1    
   239  120  241 1    
   240  121  122 am   BACKBONE|DICT|INTERRES
   241  121  123 2    
   242  122  242 1    
   243  122  243 1    
   244  124  125 1    
   245  124  244 1    
   246  124  245 1    
   247  125  126 1    
   248  126  246 1    
   249  126  247 1    
@<TRIPOS>SUBSTRUCTURE
     1 UNK         1 GROUP             0       ****    0 ROOT    
