@<TRIPOS>MOLECULE
3R540
247   249    1
SMALL
USER_CHARGES


@<TRIPOS>ATOM
      1 CA          2.0129  -10.1706  -50.9418 C.3       0 UNK        -0.1800 
      2 C           2.3267  -10.8280  -49.6058 C.2       0 UNK         0.5000 
      3 O           1.9526  -10.3000  -48.5582 O.2       0 UNK        -0.5000 
      4 N           2.9974  -11.9881  -49.6352 N.am      1 UNK        -0.5000 
      5 CA          3.3995  -12.7631  -48.4524 C.3       1 UNK         0.1400 
      6 C6          4.4190  -13.8785  -48.7976 C.3       23 UNK        -0.0398 
      7 S7          3.8028  -15.1018  -50.0073 S.3       23 UNK        -0.2404 
      8 C8          3.3133  -16.4570  -48.8951 C.3       23 UNK        -0.0205 
      9 C9          2.3935  -17.4386  -49.5971 C.ar      23 UNK        -0.0193 
     10 C10         1.0727  -17.0795  -49.8721 C.ar      23 UNK        -0.1150 
     11 C11         0.2164  -17.9618  -50.5355 C.ar      23 UNK        -0.0193 
     12 C12         0.6865  -19.2259  -50.9059 C.ar      23 UNK        -0.1150 
     13 C13         2.0025  -19.6037  -50.6145 C.ar      23 UNK        -0.0193 
     14 C14         2.8528  -18.7034  -49.9665 C.ar      23 UNK        -0.1150 
     15 C15         2.5148  -20.9856  -50.9900 C.3       23 UNK        -0.0205 
     16 S16         1.7366  -22.3068  -50.0097 S.3       23 UNK        -0.2404 
     17 C17         2.0753  -21.7869  -48.2858 C.3       23 UNK        -0.0398 
     18 CA          1.3741  -22.7044  -47.2514 C.3       11 UNK         0.1400 
     19 N           1.7493  -22.3852  -45.8756 N.am      11 UNK        -0.5000 
     20 C           2.0867  -23.3053  -44.9618 C.2       10 UNK         0.5000 
     21 O           2.1020  -24.5180  -45.1771 O.2       10 UNK        -0.5000 
     22 CA          2.4957  -22.7897  -43.5718 C.3       10 UNK         0.1400 
     23 CB          3.8899  -22.1450  -43.6193 C.3       10 UNK        -0.1800 
     24 N           1.5333  -21.8487  -43.0025 N.am      10 UNK        -0.5000 
     25 C           0.2968  -22.1766  -42.6015 C.2       9 UNK         0.5000 
     26 O          -0.1693  -23.3140  -42.6722 O.2       9 UNK        -0.5000 
     27 CA         -0.5661  -21.0426  -42.0176 C.3       9 UNK         0.1400 
     28 CB         -0.2255  -20.8099  -40.5379 C.3       9 UNK        -0.1800 
     29 N          -0.4308  -19.7888  -42.7590 N.am      9 UNK        -0.5000 
     30 C          -0.8487  -19.6141  -44.0199 C.2       8 UNK         0.5000 
     31 O          -1.4428  -20.4782  -44.6604 O.2       8 UNK        -0.5000 
     32 CA         -0.5128  -18.2727  -44.6978 C.3       8 UNK         0.1400 
     33 CB         -1.5168  -17.1827  -44.2980 C.3       8 UNK        -0.1800 
     34 N           0.8455  -17.8225  -44.4035 N.am      8 UNK        -0.5000 
     35 C           1.9567  -18.4771  -44.7701 C.2       7 UNK         0.5000 
     36 O           1.9591  -19.5041  -45.4523 O.2       7 UNK        -0.5000 
     37 CA          3.2836  -17.9134  -44.2351 C.3       7 UNK         0.1400 
     38 CB          3.7779  -16.7523  -45.1084 C.3       7 UNK        -0.1800 
     39 N           3.1640  -17.4686  -42.8456 N.am      7 UNK        -0.5000 
     40 C           3.0267  -18.2983  -41.8016 C.2       6 UNK         0.5000 
     41 O           2.9977  -19.5238  -41.9037 O.2       6 UNK        -0.5000 
     42 CA          2.8552  -17.6506  -40.4158 C.3       6 UNK         0.1400 
     43 CB          4.2161  -17.2332  -39.8390 C.3       6 UNK        -0.1800 
     44 N           1.9613  -16.4929  -40.4406 N.am      6 UNK        -0.5000 
     45 C           0.6514  -16.5536  -40.7183 C.2       5 UNK         0.5000 
     46 O           0.0516  -17.5996  -40.9581 O.2       5 UNK        -0.5000 
     47 CA         -0.1089  -15.2171  -40.7826 C.3       5 UNK         0.1400 
     48 CB         -0.6421  -14.8324  -39.3947 C.3       5 UNK        -0.1800 
     49 N           0.6909  -14.1132  -41.3189 N.am      5 UNK        -0.5000 
     50 C           1.2250  -14.0841  -42.5464 C.2       4 UNK         0.5000 
     51 O           1.1446  -15.0137  -43.3537 O.2       4 UNK        -0.5000 
     52 CA          1.9865  -12.8064  -42.9267 C.3       4 UNK         0.1400 
     53 CB          3.4494  -13.1156  -43.2835 C.3       4 UNK        -0.1800 
     54 N           1.3215  -12.1739  -44.0608 N.am      4 UNK        -0.5000 
     55 C           0.2640  -11.3554  -43.9495 C.2       3 UNK         0.5000 
     56 O          -0.1858  -10.9744  -42.8677 O.2       3 UNK        -0.5000 
     57 CA         -0.4159  -10.8765  -45.2494 C.3       3 UNK         0.1400 
     58 CB          0.0853   -9.4760  -45.6329 C.3       3 UNK        -0.1800 
     59 N          -0.2058  -11.7786  -46.3800 N.am      3 UNK        -0.5000 
     60 C          -0.7168  -13.0145  -46.4821 C.2       2 UNK         0.5000 
     61 O          -1.5293  -13.4824  -45.6846 O.2       2 UNK        -0.5000 
     62 CA         -0.2312  -13.8815  -47.6635 C.3       2 UNK         0.1400 
     63 CB         -1.3106  -13.9411  -48.7564 C.3       2 UNK        -0.1800 
     64 N           1.0265  -13.4281  -48.2678 N.am      2 UNK        -0.5000 
     65 C           2.2075  -13.3161  -47.6396 C.2       1 UNK         0.5000 
     66 O           2.3738  -13.6044  -46.4563 O.2       1 UNK        -0.5000 
     67 C          -0.1584  -22.7143  -47.3852 C.2       11 UNK         0.5000 
     68 O          -0.7445  -23.7947  -47.4302 O.2       11 UNK        -0.5000 
     69 N          -0.7685  -21.5253  -47.4970 N.am      12 UNK        -0.5000 
     70 CA         -2.1323  -21.3089  -47.9921 C.3       12 UNK         0.1400 
     71 CB         -2.4678  -19.8106  -47.9375 C.3       12 UNK        -0.1800 
     72 C          -3.2326  -22.1426  -47.3094 C.2       12 UNK         0.5000 
     73 O          -4.0811  -22.7076  -47.9999 O.2       12 UNK        -0.5000 
     74 N          -3.1771  -22.2340  -45.9762 N.am      13 UNK        -0.5000 
     75 CA         -4.1137  -22.9986  -45.1521 C.3       13 UNK         0.1400 
     76 CB         -3.8871  -22.6424  -43.6758 C.3       13 UNK        -0.1800 
     77 C          -4.0148  -24.5230  -45.3554 C.2       13 UNK         0.5000 
     78 O          -5.0231  -25.2150  -45.2097 O.2       13 UNK        -0.5000 
     79 N          -2.8152  -25.0180  -45.6859 N.am      14 UNK        -0.5000 
     80 CA         -2.5557  -26.4269  -45.9786 C.3       14 UNK         0.1400 
     81 CB         -1.1042  -26.7640  -45.6020 C.3       14 UNK        -0.1800 
     82 C          -2.8274  -26.7507  -47.4576 C.2       14 UNK         0.5000 
     83 O          -3.3658  -27.8166  -47.7586 O.2       14 UNK        -0.5000 
     84 N          -2.4516  -25.8240  -48.3491 N.am      15 UNK        -0.5000 
     85 CA         -2.6216  -25.9189  -49.7982 C.3       15 UNK         0.1400 
     86 CB         -1.8088  -24.7968  -50.4647 C.3       15 UNK        -0.1800 
     87 C          -4.0958  -25.8596  -50.2403 C.2       15 UNK         0.5000 
     88 O          -4.4648  -26.5561  -51.1867 O.2       15 UNK        -0.5000 
     89 N          -4.8935  -25.0409  -49.5363 N.am      16 UNK        -0.5000 
     90 CA         -6.3008  -24.7032  -49.7748 C.3       16 UNK         0.1400 
     91 CB         -7.1919  -25.9613  -49.8108 C.3       16 UNK        -0.1800 
     92 C          -6.4997  -23.8267  -51.0265 C.2       16 UNK         0.5000 
     93 O          -5.6161  -23.7349  -51.8807 O.2       16 UNK        -0.5000 
     94 N          -7.6738  -23.1870  -51.1172 N.am      17 UNK        -0.5000 
     95 CA         -8.0374  -22.1805  -52.1262 C.3       17 UNK         0.1400 
     96 CB         -9.4468  -21.6561  -51.8110 C.3       17 UNK        -0.1800 
     97 C          -7.9539  -22.6409  -53.5973 C.2       17 UNK         0.5000 
     98 O          -7.8696  -21.7970  -54.4898 O.2       17 UNK        -0.5000 
     99 N          -7.9620  -23.9606  -53.8281 N.am      18 UNK        -0.5000 
    100 CA        -7.7431  -24.5826  -55.1343 C.3       18 UNK         0.1400 
    101 CB        -8.0819  -26.0778  -55.0346 C.3       18 UNK        -0.1800 
    102 C         -6.3087  -24.3904  -55.6707 C.2       18 UNK         0.5000 
    103 O         -6.1230  -24.3742  -56.8883 O.2       18 UNK        -0.5000 
    104 N         -5.3316  -24.2498  -54.7646 N.am      19 UNK        -0.5000 
    105 CA        -3.9204  -24.0229  -55.0775 C.3       19 UNK         0.1400 
    106 CB        -3.0810  -25.1250  -54.4154 C.3       19 UNK        -0.1800 
    107 C         -3.4581  -22.6332  -54.6091 C.2       19 UNK         0.5000 
    108 O         -2.6761  -21.9866  -55.3079 O.2       19 UNK        -0.5000 
    109 N         -3.9528  -22.1842  -53.4483 N.am      20 UNK        -0.5000 
    110 CA        -3.6939  -20.8739  -52.8603 C.3       20 UNK         0.1400 
    111 CB        -3.9761  -20.9443  -51.3500 C.3       20 UNK        -0.1800 
    112 C         -4.5338  -19.7939  -53.5660 C.2       20 UNK         0.5000 
    113 O         -5.5696  -19.3712  -53.0518 O.2       20 UNK        -0.5000 
    114 N         -4.0679  -19.3791  -54.7493 N.am      21 UNK        -0.5000 
    115 CA        -4.7029  -18.3879  -55.6233 C.3       21 UNK         0.1400 
    116 CB        -4.1008  -18.5334  -57.0309 C.3       21 UNK        -0.1800 
    117 C         -4.5954  -16.9281  -55.1253 C.2       21 UNK         0.5000 
    118 O         -5.1196  -16.0311  -55.7877 O.2       21 UNK        -0.5000 
    119 N         -3.9066  -16.7123  -53.9969 N.am      22 UNK        -0.5000 
    120 CA        -3.7115  -15.4276  -53.3077 C.3       22 UNK         0.1400 
    121 C         -5.0362  -14.6681  -53.0075 C.2       22 UNK         0.5000 
    122 N         -5.0730  -13.3602  -53.2243 N.am      22 UNK        -0.7600 
    123 O         -6.0118  -15.2458  -52.5334 O.2       22 UNK        -0.5000 
    124 C124       -2.9181  -15.6186  -51.9900 C.3       23 UNK        -0.0398 
    125 S125       -1.2744  -16.3749  -52.2354 S.3       23 UNK        -0.2404 
    126 C126       -1.2123  -17.5375  -50.8362 C.3       23 UNK        -0.0205 
    127 H127        0.9350  -10.0626  -51.0623 H         1 UNK         0.0600 
    128 H128        2.3926  -10.7549  -51.7803 H         1 UNK         0.0600 
    129 H129        2.4632   -9.1790  -50.9861 H         1 UNK         0.0600 
    130 H130        3.2656  -12.3863  -50.5246 H         1 UNK         0.3000 
    131 H131        3.9111  -12.0654  -47.7858 H         1 UNK         0.0600 
    132 H132        5.3173  -13.4246  -49.2179 H         1 UNK         0.0800 
    133 H133        4.7529  -14.3893  -47.8922 H         1 UNK         0.0800 
    134 H134        2.7976  -16.0650  -48.0187 H         1 UNK         0.0800 
    135 H135        4.2108  -16.9584  -48.5303 H         1 UNK         0.0800 
    136 H136        0.7196  -16.1001  -49.5865 H         1 UNK         0.1150 
    137 H137        0.0301  -19.9205  -51.4112 H         1 UNK         0.1150 
    138 H138        3.8719  -18.9885  -49.7458 H         1 UNK         0.1150 
    139 H139        2.3164  -21.1660  -52.0473 H         1 UNK         0.0800 
    140 H140        3.5974  -21.0460  -50.8677 H         1 UNK         0.0800 
    141 H141        1.7822  -20.7464  -48.1419 H         1 UNK         0.0800 
    142 H142        3.1547  -21.8183  -48.1320 H         1 UNK         0.0800 
    143 H143        1.7045  -23.7191  -47.4852 H         1 UNK         0.0600 
    144 H144        1.7551  -21.4010  -45.6181 H         1 UNK         0.3000 
    145 H145        2.5520  -23.6520  -42.9041 H         1 UNK         0.0600 
    146 H146        4.2375  -21.8863  -42.6191 H         1 UNK         0.0600 
    147 H147        4.6230  -22.8282  -44.0499 H         1 UNK         0.0600 
    148 H148        3.8945  -21.2357  -44.2207 H         1 UNK         0.0600 
    149 H149        1.8623  -20.9012  -42.8496 H         1 UNK         0.3000 
    150 H150       -1.6104  -21.3540  -42.0742 H         1 UNK         0.0600 
    151 H151       -0.3211  -21.7328  -39.9645 H         1 UNK         0.0600 
    152 H152       -0.8983  -20.0785  -40.0900 H         1 UNK         0.0600 
    153 H153        0.7950  -20.4473  -40.4112 H         1 UNK         0.0600 
    154 H154       -0.0135  -19.0078  -42.2609 H         1 UNK         0.3000 
    155 H155       -0.5831  -18.4183  -45.7774 H         1 UNK         0.0600 
    156 H156       -1.3037  -16.2433  -44.8090 H         1 UNK         0.0600 
    157 H157       -2.5341  -17.4747  -44.5614 H         1 UNK         0.0600 
    158 H158       -1.4968  -16.9909  -43.2253 H         1 UNK         0.0600 
    159 H159        0.9399  -16.9586  -43.8782 H         1 UNK         0.3000 
    160 H160        4.0302  -18.7092  -44.2756 H         1 UNK         0.0600 
    161 H161        3.0343  -15.9585  -45.1860 H         1 UNK         0.0600 
    162 H162        3.9952  -17.1006  -46.1172 H         1 UNK         0.0600 
    163 H163        4.6954  -16.3174  -44.7118 H         1 UNK         0.0600 
    164 H164        3.1123  -16.4729  -42.6891 H         1 UNK         0.3000 
    165 H165        2.4189  -18.3997  -39.7515 H         1 UNK         0.0600 
    166 H166        4.1128  -16.8496  -38.8238 H         1 UNK         0.0600 
    167 H167        4.8984  -18.0832  -39.7960 H         1 UNK         0.0600 
    168 H168        4.6922  -16.4602  -40.4436 H         1 UNK         0.0600 
    169 H169        2.3730  -15.5901  -40.2565 H         1 UNK         0.3000 
    170 H170       -0.9631  -15.3575  -41.4479 H         1 UNK         0.0600 
    171 H171       -1.2600  -15.6298  -38.9794 H         1 UNK         0.0600 
    172 H172        0.1681  -14.6435  -38.6893 H         1 UNK         0.0600 
    173 H173       -1.2611  -13.9364  -39.4441 H         1 UNK         0.0600 
    174 H174        0.7924  -13.3035  -40.7239 H         1 UNK         0.3000 
    175 H175        1.9925  -12.1185  -42.0783 H         1 UNK         0.0600 
    176 H176        3.5289  -13.8223  -44.1088 H         1 UNK         0.0600 
    177 H177        3.9845  -12.2098  -43.5685 H         1 UNK         0.0600 
    178 H178        3.9737  -13.5497  -42.4315 H         1 UNK         0.0600 
    179 H179        1.5930  -12.5174  -44.9768 H         1 UNK         0.3000 
    180 H180       -1.4892  -10.8159  -45.0575 H         1 UNK         0.0600 
    181 H181        1.1545   -9.4780  -45.8497 H         1 UNK         0.0600 
    182 H182       -0.0854   -8.7638  -44.8245 H         1 UNK         0.0600 
    183 H183       -0.4337   -9.0982  -46.5140 H         1 UNK         0.0600 
    184 H184        0.4475  -11.4681  -47.0875 H         1 UNK         0.3000 
    185 H185       -0.0673  -14.8910  -47.2804 H         1 UNK         0.0600 
    186 H186       -2.2429  -14.3486  -48.3632 H         1 UNK         0.0600 
    187 H187       -1.5288  -12.9507  -49.1578 H         1 UNK         0.0600 
    188 H188       -1.0062  -14.5758  -49.5872 H         1 UNK         0.0600 
    189 H189        0.9871  -13.1575  -49.2395 H         1 UNK         0.3000 
    190 H190       -0.2113  -20.6934  -47.3770 H         1 UNK         0.3000 
    191 H191       -2.1128  -21.6050  -49.0405 H         1 UNK         0.0600 
    192 H192       -2.5158  -19.4446  -46.9122 H         1 UNK         0.0600 
    193 H193       -3.4362  -19.6111  -48.3975 H         1 UNK         0.0600 
    194 H194       -1.7247  -19.2188  -48.4706 H         1 UNK         0.0600 
    195 H195       -2.4549  -21.7054  -45.4874 H         1 UNK         0.3000 
    196 H196       -5.1256  -22.6930  -45.4260 H         1 UNK         0.0600 
    197 H197       -4.6150  -23.1428  -43.0361 H         1 UNK         0.0600 
    198 H198       -3.9853  -21.5699  -43.5065 H         1 UNK         0.0600 
    199 H199       -2.8942  -22.9463  -43.3438 H         1 UNK         0.0600 
    200 H200       -2.0523  -24.3735  -45.8557 H         1 UNK         0.3000 
    201 H201       -3.2125  -27.0521  -45.3699 H         1 UNK         0.0600 
    202 H202       -0.9174  -26.5723  -44.5451 H         1 UNK         0.0600 
    203 H203       -0.3870  -26.1772  -46.1771 H         1 UNK         0.0600 
    204 H204       -0.8885  -27.8171  -45.7856 H         1 UNK         0.0600 
    205 H205       -1.9570  -25.0030  -48.0059 H         1 UNK         0.3000 
    206 H206       -2.2123  -26.8778  -50.1226 H         1 UNK         0.0600 
    207 H207       -0.7576  -24.8467  -50.1799 H         1 UNK         0.0600 
    208 H208       -1.8519  -24.8695  -51.5507 H         1 UNK         0.0600 
    209 H209       -2.1825  -23.8115  -50.1858 H         1 UNK         0.0600 
    210 H210       -4.4484  -24.4611  -48.8312 H         1 UNK         0.3000 
    211 H211       -6.6012  -24.1024  -48.9151 H         1 UNK         0.0600 
    212 H212       -7.0296  -26.5535  -50.7116 H         1 UNK         0.0600 
    213 H213       -8.2487  -25.6936  -49.7883 H         1 UNK         0.0600 
    214 H214       -7.0033  -26.6020  -48.9492 H         1 UNK         0.0600 
    215 H215       -8.3548  -23.3338  -50.3861 H         1 UNK         0.3000 
    216 H216       -7.3369  -21.3502  -52.0194 H         1 UNK         0.0600 
    217 H217       -9.7436  -20.8793  -52.5171 H         1 UNK         0.0600 
    218 H218       -9.4921  -21.2180  -50.8138 H         1 UNK         0.0600 
    219 H219      -10.1918  -22.4509  -51.8648 H         1 UNK         0.0600 
    220 H220       -8.0378  -24.5806  -53.0355 H         1 UNK         0.3000 
    221 H221       -8.4284  -24.1223  -55.8492 H         1 UNK         0.0600 
    222 H222       -7.4391  -26.5886  -54.3162 H         1 UNK         0.0600 
    223 H223       -9.1169  -26.2289  -54.7275 H         1 UNK         0.0600 
    224 H224       -7.9546  -26.5723  -55.9986 H         1 UNK         0.0600 
    225 H225       -5.5778  -24.2480  -53.7797 H         1 UNK         0.3000 
    226 H226       -3.7497  -24.0724  -56.1548 H         1 UNK         0.0600 
    227 H227       -3.3115  -26.1013  -54.8418 H         1 UNK         0.0600 
    228 H228       -2.0136  -24.9500  -54.5565 H         1 UNK         0.0600 
    229 H229       -3.2722  -25.1794  -53.3441 H         1 UNK         0.0600 
    230 H230       -4.5850  -22.7816  -52.9183 H         1 UNK         0.3000 
    231 H231       -2.6371  -20.6296  -52.9891 H         1 UNK         0.0600 
    232 H232       -3.4144  -21.7546  -50.8887 H         1 UNK         0.0600 
    233 H233       -5.0307  -21.1181  -51.1367 H         1 UNK         0.0600 
    234 H234       -3.6919  -20.0159  -50.8555 H         1 UNK         0.0600 
    235 H235       -3.2425  -19.8374  -55.1164 H         1 UNK         0.3000 
    236 H236       -5.7672  -18.6246  -55.6841 H         1 UNK         0.0600 
    237 H237       -4.5848  -17.8596  -57.7390 H         1 UNK         0.0600 
    238 H238       -3.0343  -18.3049  -57.0359 H         1 UNK         0.0600 
    239 H239       -4.2292  -19.5468  -57.4121 H         1 UNK         0.0600 
    240 H240       -3.5071  -17.5154  -53.5380 H         1 UNK         0.3000 
    241 H241       -3.1128  -14.8074  -53.9773 H         1 UNK         0.0600 
    242 H242       -4.2829  -12.8633  -53.6065 H         1 UNK         0.3800 
    243 H243       -5.9206  -12.8541  -53.0186 H         1 UNK         0.3800 
    244 H244       -3.4975  -16.2255  -51.2915 H         1 UNK         0.0800 
    245 H245       -2.7625  -14.6565  -51.4984 H         1 UNK         0.0800 
    246 H246       -1.8354  -18.4044  -51.0584 H         1 UNK         0.0800 
    247 H247       -1.6360  -17.0683  -49.9469 H         1 UNK         0.0800 
@<TRIPOS>BOND
     1    1    2 1    
     2    1  127 1    
     3    1  128 1    
     4    1  129 1    
     5    2    3 2    
     6    2    4 am   BACKBONE|DICT|INTERRES
     7    4    5 1    
     8    4  130 1    
     9    5    6 1    
    10    5   65 1    
    11    5  131 1    
    12    6    7 1    
    13    6  132 1    
    14    6  133 1    
    15    7    8 1    
    16    8    9 1    
    17    8  134 1    
    18    8  135 1    
    19    9   10 ar   
    20    9   14 ar   
    21   10   11 ar   
    22   10  136 1    
    23   11   12 ar   
    24   11  126 1    
    25   12   13 ar   
    26   12  137 1    
    27   13   14 ar   
    28   13   15 1    
    29   14  138 1    
    30   15   16 1    
    31   15  139 1    
    32   15  140 1    
    33   16   17 1    
    34   17   18 1    
    35   17  141 1    
    36   17  142 1    
    37   18   19 1    
    38   18   67 1    
    39   18  143 1    
    40   19   20 am   BACKBONE|DICT|INTERRES
    41   19  144 1    
    42   20   21 2    
    43   20   22 1    
    44   22   23 1    
    45   22   24 1    
    46   22  145 1    
    47   23  146 1    
    48   23  147 1    
    49   23  148 1    
    50   24   25 am   BACKBONE|DICT|INTERRES
    51   24  149 1    
    52   25   26 2    
    53   25   27 1    
    54   27   28 1    
    55   27   29 1    
    56   27  150 1    
    57   28  151 1    
    58   28  152 1    
    59   28  153 1    
    60   29   30 am   BACKBONE|DICT|INTERRES
    61   29  154 1    
    62   30   31 2    
    63   30   32 1    
    64   32   33 1    
    65   32   34 1    
    66   32  155 1    
    67   33  156 1    
    68   33  157 1    
    69   33  158 1    
    70   34   35 am   BACKBONE|DICT|INTERRES
    71   34  159 1    
    72   35   36 2    
    73   35   37 1    
    74   37   38 1    
    75   37   39 1    
    76   37  160 1    
    77   38  161 1    
    78   38  162 1    
    79   38  163 1    
    80   39   40 am   BACKBONE|DICT|INTERRES
    81   39  164 1    
    82   40   41 2    
    83   40   42 1    
    84   42   43 1    
    85   42   44 1    
    86   42  165 1    
    87   43  166 1    
    88   43  167 1    
    89   43  168 1    
    90   44   45 am   BACKBONE|DICT|INTERRES
    91   44  169 1    
    92   45   46 2    
    93   45   47 1    
    94   47   48 1    
    95   47   49 1    
    96   47  170 1    
    97   48  171 1    
    98   48  172 1    
    99   48  173 1    
   100   49   50 am   BACKBONE|DICT|INTERRES
   101   49  174 1    
   102   50   51 2    
   103   50   52 1    
   104   52   53 1    
   105   52   54 1    
   106   52  175 1    
   107   53  176 1    
   108   53  177 1    
   109   53  178 1    
   110   54   55 am   BACKBONE|DICT|INTERRES
   111   54  179 1    
   112   55   56 2    
   113   55   57 1    
   114   57   58 1    
   115   57   59 1    
   116   57  180 1    
   117   58  181 1    
   118   58  182 1    
   119   58  183 1    
   120   59   60 am   BACKBONE|DICT|INTERRES
   121   59  184 1    
   122   60   61 2    
   123   60   62 1    
   124   62   63 1    
   125   62   64 1    
   126   62  185 1    
   127   63  186 1    
   128   63  187 1    
   129   63  188 1    
   130   64   65 am   BACKBONE|DICT|INTERRES
   131   64  189 1    
   132   65   66 2    
   133   67   68 2    
   134   67   69 am   BACKBONE|DICT|INTERRES
   135   69   70 1    
   136   69  190 1    
   137   70   71 1    
   138   70   72 1    
   139   70  191 1    
   140   71  192 1    
   141   71  193 1    
   142   71  194 1    
   143   72   73 2    
   144   72   74 am   BACKBONE|DICT|INTERRES
   145   74   75 1    
   146   74  195 1    
   147   75   76 1    
   148   75   77 1    
   149   75  196 1    
   150   76  197 1    
   151   76  198 1    
   152   76  199 1    
   153   77   78 2    
   154   77   79 am   BACKBONE|DICT|INTERRES
   155   79   80 1    
   156   79  200 1    
   157   80   81 1    
   158   80   82 1    
   159   80  201 1    
   160   81  202 1    
   161   81  203 1    
   162   81  204 1    
   163   82   83 2    
   164   82   84 am   BACKBONE|DICT|INTERRES
   165   84   85 1    
   166   84  205 1    
   167   85   86 1    
   168   85   87 1    
   169   85  206 1    
   170   86  207 1    
   171   86  208 1    
   172   86  209 1    
   173   87   88 2    
   174   87   89 am   BACKBONE|DICT|INTERRES
   175   89   90 1    
   176   89  210 1    
   177   90   91 1    
   178   90   92 1    
   179   90  211 1    
   180   91  212 1    
   181   91  213 1    
   182   91  214 1    
   183   92   93 2    
   184   92   94 am   BACKBONE|DICT|INTERRES
   185   94   95 1    
   186   94  215 1    
   187   95   96 1    
   188   95   97 1    
   189   95  216 1    
   190   96  217 1    
   191   96  218 1    
   192   96  219 1    
   193   97   98 2    
   194   97   99 am   BACKBONE|DICT|INTERRES
   195   99  100 1    
   196   99  220 1    
   197  100  101 1    
   198  100  102 1    
   199  100  221 1    
   200  101  222 1    
   201  101  223 1    
   202  101  224 1    
   203  102  103 2    
   204  102  104 am   BACKBONE|DICT|INTERRES
   205  104  105 1    
   206  104  225 1    
   207  105  106 1    
   208  105  107 1    
   209  105  226 1    
   210  106  227 1    
   211  106  228 1    
   212  106  229 1    
   213  107  108 2    
   214  107  109 am   BACKBONE|DICT|INTERRES
   215  109  110 1    
   216  109  230 1    
   217  110  111 1    
   218  110  112 1    
   219  110  231 1    
   220  111  232 1    
   221  111  233 1    
   222  111  234 1    
   223  112  113 2    
   224  112  114 am   BACKBONE|DICT|INTERRES
   225  114  115 1    
   226  114  235 1    
   227  115  116 1    
   228  115  117 1    
   229  115  236 1    
   230  116  237 1    
   231  116  238 1    
   232  116  239 1    
   233  117  118 2    
   234  117  119 am   BACKBONE|DICT|INTERRES
   235  119  120 1    
   236  119  240 1    
   237  120  121 1    
   238  120  124 1    
   239  120  241 1    
   240  121  122 am   BACKBONE|DICT|INTERRES
   241  121  123 2    
   242  122  242 1    
   243  122  243 1    
   244  124  125 1    
   245  124  244 1    
   246  124  245 1    
   247  125  126 1    
   248  126  246 1    
   249  126  247 1    
@<TRIPOS>SUBSTRUCTURE
     1 UNK         1 GROUP             0       ****    0 ROOT    
