@<TRIPOS>MOLECULE
3R540
247   249    1
SMALL
USER_CHARGES


@<TRIPOS>ATOM
      1 CA          5.3892  -12.0764  -47.7927 C.3       0 UNK        -0.1800 
      2 C           4.0404  -12.6299  -47.3569 C.2       0 UNK         0.5000 
      3 O           3.8359  -12.8850  -46.1706 O.2       0 UNK        -0.5000 
      4 N           3.1122  -12.8025  -48.3055 N.am      1 UNK        -0.5000 
      5 CA          1.7656  -13.3588  -48.1109 C.3       1 UNK         0.1400 
      6 C6          1.2141  -13.9890  -49.4164 C.3       23 UNK        -0.0398 
      7 S7          2.2779  -15.3252  -50.0641 S.3       23 UNK        -0.2404 
      8 C8          1.3082  -16.7875  -49.5936 C.3       23 UNK        -0.0205 
      9 C9          1.9535  -18.0702  -50.0944 C.ar      23 UNK        -0.0193 
     10 C10         1.5736  -18.6092  -51.3262 C.ar      23 UNK        -0.1150 
     11 C11         2.1661  -19.7826  -51.8008 C.ar      23 UNK        -0.0193 
     12 C12         3.1402  -20.4228  -51.0310 C.ar      23 UNK        -0.1150 
     13 C13         3.5258  -19.8975  -49.7947 C.ar      23 UNK        -0.0193 
     14 C14         2.9289  -18.7197  -49.3315 C.ar      23 UNK        -0.1150 
     15 C15         4.6132  -20.5880  -48.9832 C.3       23 UNK        -0.0205 
     16 S16         4.0276  -22.1208  -48.1914 S.3       23 UNK        -0.2404 
     17 C17         2.9335  -21.4554  -46.8934 C.3       23 UNK        -0.0398 
     18 CA          1.5858  -22.2008  -46.7495 C.3       11 UNK         0.1400 
     19 N           0.8889  -21.7844  -45.5288 N.am      11 UNK        -0.5000 
     20 C          -0.2194  -22.3514  -45.0327 C.2       10 UNK         0.5000 
     21 O          -0.7635  -23.3387  -45.5259 O.2       10 UNK        -0.5000 
     22 CA         -0.8468  -21.6770  -43.7981 C.3       10 UNK         0.1400 
     23 CB         -0.1320  -22.1199  -42.5130 C.3       10 UNK        -0.1800 
     24 N          -0.8399  -20.2153  -43.8883 N.am      10 UNK        -0.5000 
     25 C          -1.5214  -19.5083  -44.8018 C.2       9 UNK         0.5000 
     26 O          -2.2786  -20.0152  -45.6278 O.2       9 UNK        -0.5000 
     27 CA         -1.2693  -17.9889  -44.8443 C.3       9 UNK         0.1400 
     28 CB         -2.0675  -17.2616  -43.7528 C.3       9 UNK        -0.1800 
     29 N           0.1501  -17.6560  -44.7251 N.am      9 UNK        -0.5000 
     30 C           1.0922  -18.0364  -45.5989 C.2       8 UNK         0.5000 
     31 O           0.8523  -18.6595  -46.6315 O.2       8 UNK        -0.5000 
     32 CA          2.5510  -17.7239  -45.2281 C.3       8 UNK         0.1400 
     33 CB          2.9345  -16.2956  -45.6393 C.3       8 UNK        -0.1800 
     34 N           2.7957  -17.9212  -43.7992 N.am      8 UNK        -0.5000 
     35 C           2.8478  -19.1238  -43.2089 C.2       7 UNK         0.5000 
     36 O           2.7284  -20.1862  -43.8185 O.2       7 UNK        -0.5000 
     37 CA          3.0224  -19.1430  -41.6791 C.3       7 UNK         0.1400 
     38 CB          4.5009  -18.9731  -41.2999 C.3       7 UNK        -0.1800 
     39 N           2.2269  -18.1143  -41.0083 N.am      7 UNK        -0.5000 
     40 C           0.8870  -18.0988  -40.9724 C.2       6 UNK         0.5000 
     41 O           0.1819  -18.9793  -41.4636 O.2       6 UNK        -0.5000 
     42 CA          0.2212  -16.8701  -40.3226 C.3       6 UNK         0.1400 
     43 CB          0.0404  -17.0901  -38.8137 C.3       6 UNK        -0.1800 
     44 N           0.9395  -15.6112  -40.5446 N.am      6 UNK        -0.5000 
     45 C           1.2509  -15.0970  -41.7416 C.2       5 UNK         0.5000 
     46 O           0.9930  -15.6523  -42.8103 O.2       5 UNK        -0.5000 
     47 CA          1.9516  -13.7297  -41.7260 C.3       5 UNK         0.1400 
     48 CB          2.7369  -13.4527  -43.0197 C.3       5 UNK        -0.1800 
     49 N           0.9611  -12.6761  -41.5258 N.am      5 UNK        -0.5000 
     50 C           0.5200  -12.2598  -40.3302 C.2       4 UNK         0.5000 
     51 O           0.9235  -12.7254  -39.2632 O.2       4 UNK        -0.5000 
     52 CA         -0.5331  -11.1333  -40.3064 C.3       4 UNK         0.1400 
     53 CB          0.1224   -9.8003  -39.9125 C.3       4 UNK        -0.1800 
     54 N          -1.2178  -10.9555  -41.5869 N.am      4 UNK        -0.5000 
     55 C          -2.2227  -11.7217  -42.0331 C.2       3 UNK         0.5000 
     56 O          -2.7249  -12.6393  -41.3837 O.2       3 UNK        -0.5000 
     57 CA         -2.7372  -11.4211  -43.4566 C.3       3 UNK         0.1400 
     58 CB         -3.9304  -10.4548  -43.4053 C.3       3 UNK        -0.1800 
     59 N          -1.7068  -10.8679  -44.3446 N.am      3 UNK        -0.5000 
     60 C          -0.6147  -11.5372  -44.7347 C.2       2 UNK         0.5000 
     61 O          -0.3661  -12.6904  -44.3794 O.2       2 UNK        -0.5000 
     62 CA          0.3964  -10.7675  -45.6022 C.3       2 UNK         0.1400 
     63 CB          1.3343   -9.9362  -44.7122 C.3       2 UNK        -0.1800 
     64 N           1.2063  -11.6838  -46.4013 N.am      2 UNK        -0.5000 
     65 C           0.7917  -12.3203  -47.5021 C.2       1 UNK         0.5000 
     66 O          -0.2988  -12.1021  -48.0341 O.2       1 UNK        -0.5000 
     67 C           0.6877  -22.0730  -48.0019 C.2       11 UNK         0.5000 
     68 O           0.6574  -22.9946  -48.8178 O.2       11 UNK        -0.5000 
     69 N          -0.0737  -20.9734  -48.0979 N.am      12 UNK        -0.5000 
     70 CA         -1.0993  -20.7715  -49.1203 C.3       12 UNK         0.1400 
     71 CB         -1.6080  -19.3238  -49.0707 C.3       12 UNK        -0.1800 
     72 C          -2.2674  -21.7622  -48.9731 C.2       12 UNK         0.5000 
     73 O          -2.6234  -22.4260  -49.9452 O.2       12 UNK        -0.5000 
     74 N          -2.8202  -21.8715  -47.7550 N.am      13 UNK        -0.5000 
     75 CA         -3.9609  -22.7297  -47.4191 C.3       13 UNK         0.1400 
     76 CB         -4.3720  -22.4977  -45.9587 C.3       13 UNK        -0.1800 
     77 C          -3.7276  -24.2289  -47.6802 C.2       13 UNK         0.5000 
     78 O          -4.6799  -24.9396  -48.0044 O.2       13 UNK        -0.5000 
     79 N          -2.4668  -24.6753  -47.5918 N.am      14 UNK        -0.5000 
     80 CA         -2.0170  -26.0320  -47.9143 C.3       14 UNK         0.1400 
     81 CB         -0.5279  -26.1669  -47.5624 C.3       14 UNK        -0.1800 
     82 C          -2.2723  -26.4607  -49.3763 C.2       14 UNK         0.5000 
     83 O          -2.2793  -27.6609  -49.6520 O.2       14 UNK        -0.5000 
     84 N          -2.5152  -25.4973  -50.2791 N.am      15 UNK        -0.5000 
     85 CA         -2.9494  -25.7379  -51.6570 C.3       15 UNK         0.1400 
     86 CB         -2.6483  -24.4937  -52.5031 C.3       15 UNK        -0.1800 
     87 C          -4.4319  -26.1642  -51.7776 C.2       15 UNK         0.5000 
     88 O          -4.8559  -26.5183  -52.8787 O.2       15 UNK        -0.5000 
     89 N          -5.1825  -26.1502  -50.6623 N.am      16 UNK        -0.5000 
     90 CA         -6.5204  -26.7171  -50.4582 C.3       16 UNK         0.1400 
     91 CB         -6.4499  -28.2592  -50.4694 C.3       16 UNK        -0.1800 
     92 C          -7.5801  -26.1523  -51.4226 C.2       16 UNK         0.5000 
     93 O          -8.1533  -25.0997  -51.1446 O.2       16 UNK        -0.5000 
     94 N          -7.8112  -26.8387  -52.5496 N.am      17 UNK        -0.5000 
     95 CA         -8.7025  -26.4050  -53.6287 C.3       17 UNK         0.1400 
     96 CB         -8.8293  -27.5399  -54.6562 C.3       17 UNK        -0.1800 
     97 C          -8.2428  -25.1022  -54.3158 C.2       17 UNK         0.5000 
     98 O          -9.0756  -24.3890  -54.8763 O.2       17 UNK        -0.5000 
     99 N          -6.9386  -24.8090  -54.2388 N.am      18 UNK        -0.5000 
    100 CA        -6.3064  -23.5962  -54.7489 C.3       18 UNK         0.1400 
    101 CB        -5.2436  -23.9954  -55.7882 C.3       18 UNK        -0.1800 
    102 C         -5.7210  -22.7542  -53.5981 C.2       18 UNK         0.5000 
    103 O         -4.6976  -22.1011  -53.7880 O.2       18 UNK        -0.5000 
    104 N         -6.3684  -22.7656  -52.4205 N.am      19 UNK        -0.5000 
    105 CA        -5.9385  -22.0608  -51.2011 C.3       19 UNK         0.1400 
    106 CB        -6.9175  -22.3671  -50.0569 C.3       19 UNK        -0.1800 
    107 C         -5.7441  -20.5349  -51.3387 C.2       19 UNK         0.5000 
    108 O         -5.0355  -19.9391  -50.5258 O.2       19 UNK        -0.5000 
    109 N         -6.3588  -19.9271  -52.3616 N.am      20 UNK        -0.5000 
    110 CA        -6.1823  -18.5326  -52.7600 C.3       20 UNK         0.1400 
    111 CB        -7.3284  -18.1459  -53.7113 C.3       20 UNK        -0.1800 
    112 C         -4.7916  -18.3005  -53.3897 C.2       20 UNK         0.5000 
    113 O         -4.6705  -18.2154  -54.6139 O.2       20 UNK        -0.5000 
    114 N         -3.7646  -18.2387  -52.5299 N.am      21 UNK        -0.5000 
    115 CA        -2.3543  -17.9619  -52.8348 C.3       21 UNK         0.1400 
    116 CB        -2.1739  -16.4796  -53.2205 C.3       21 UNK        -0.1800 
    117 C         -1.7364  -18.9305  -53.8666 C.2       21 UNK         0.5000 
    118 O         -0.9297  -18.5141  -54.6996 O.2       21 UNK        -0.5000 
    119 N         -2.1374  -20.2051  -53.7880 N.am      22 UNK        -0.5000 
    120 CA        -1.7338  -21.3081  -54.6782 C.3       22 UNK         0.1400 
    121 C         -2.3344  -21.2267  -56.1162 C.2       22 UNK         0.5000 
    122 N         -3.2974  -20.3539  -56.3939 N.am      22 UNK        -0.7600 
    123 O         -1.9369  -21.9845  -56.9973 O.2       22 UNK        -0.5000 
    124 C124       -0.2036  -21.5941  -54.6926 C.3       23 UNK        -0.0398 
    125 S125        0.5441  -21.6656  -53.0244 S.3       23 UNK        -0.2404 
    126 C126        1.7773  -20.3343  -53.1609 C.3       23 UNK        -0.0205 
    127 H127        6.1821  -12.7792  -47.5369 H         1 UNK         0.0600 
    128 H128        5.5897  -11.1338  -47.2836 H         1 UNK         0.0600 
    129 H129        5.4263  -11.8980  -48.8676 H         1 UNK         0.0600 
    130 H130        3.3388  -12.5569  -49.2585 H         1 UNK         0.3000 
    131 H131        1.8341  -14.1608  -47.3746 H         1 UNK         0.0600 
    132 H132        1.1172  -13.2284  -50.1929 H         1 UNK         0.0800 
    133 H133        0.2090  -14.3838  -49.2576 H         1 UNK         0.0800 
    134 H134        0.3020  -16.6927  -50.0041 H         1 UNK         0.0800 
    135 H135        1.1995  -16.8189  -48.5096 H         1 UNK         0.0800 
    136 H136        0.8260  -18.1066  -51.9233 H         1 UNK         0.1150 
    137 H137        3.6021  -21.3294  -51.3963 H         1 UNK         0.1150 
    138 H138        3.2259  -18.3007  -48.3810 H         1 UNK         0.1150 
    139 H139        5.4475  -20.8321  -49.6423 H         1 UNK         0.0800 
    140 H140        5.0157  -19.9170  -48.2225 H         1 UNK         0.0800 
    141 H141        2.7594  -20.3946  -47.0614 H         1 UNK         0.0800 
    142 H142        3.4895  -21.5211  -45.9578 H         1 UNK         0.0800 
    143 H143        1.8097  -23.2628  -46.6273 H         1 UNK         0.0600 
    144 H144        1.2981  -21.0061  -45.0235 H         1 UNK         0.3000 
    145 H145       -1.8866  -22.0019  -43.7330 H         1 UNK         0.0600 
    146 H146       -0.6253  -21.7148  -41.6293 H         1 UNK         0.0600 
    147 H147        0.9073  -21.7911  -42.4949 H         1 UNK         0.0600 
    148 H148       -0.1356  -23.2065  -42.4184 H         1 UNK         0.0600 
    149 H149       -0.2842  -19.7195  -43.1973 H         1 UNK         0.3000 
    150 H150       -1.6115  -17.6225  -45.8144 H         1 UNK         0.0600 
    151 H151       -3.1380  -17.4262  -43.8804 H         1 UNK         0.0600 
    152 H152       -1.8951  -16.1854  -43.7871 H         1 UNK         0.0600 
    153 H153       -1.7999  -17.6122  -42.7568 H         1 UNK         0.0600 
    154 H154        0.4289  -17.0918  -43.9264 H         1 UNK         0.3000 
    155 H155        3.1957  -18.4114  -45.7788 H         1 UNK         0.0600 
    156 H156        2.8901  -16.1836  -46.7227 H         1 UNK         0.0600 
    157 H157        3.9517  -16.0515  -45.3330 H         1 UNK         0.0600 
    158 H158        2.2662  -15.5524  -45.2041 H         1 UNK         0.0600 
    159 H159        2.8160  -17.0914  -43.2243 H         1 UNK         0.3000 
    160 H160        2.6882  -20.1185  -41.3192 H         1 UNK         0.0600 
    161 H161        4.8892  -18.0020  -41.6093 H         1 UNK         0.0600 
    162 H162        5.1155  -19.7390  -41.7750 H         1 UNK         0.0600 
    163 H163        4.6446  -19.0649  -40.2231 H         1 UNK         0.0600 
    164 H164        2.7290  -17.3514  -40.5789 H         1 UNK         0.3000 
    165 H165       -0.7684  -16.7599  -40.7691 H         1 UNK         0.0600 
    166 H166       -0.5187  -16.2716  -38.3598 H         1 UNK         0.0600 
    167 H167       -0.5134  -18.0091  -38.6164 H         1 UNK         0.0600 
    168 H168        0.9996  -17.1676  -38.3002 H         1 UNK         0.0600 
    169 H169        1.1489  -15.0597  -39.7227 H         1 UNK         0.3000 
    170 H170        2.6696  -13.7243  -40.9030 H         1 UNK         0.0600 
    171 H171        3.4922  -14.2205  -43.1899 H         1 UNK         0.0600 
    172 H172        2.0907  -13.4347  -43.8968 H         1 UNK         0.0600 
    173 H173        3.2553  -12.4953  -42.9697 H         1 UNK         0.0600 
    174 H174        0.5091  -12.3323  -42.3628 H         1 UNK         0.3000 
    175 H175       -1.2710  -11.3889  -39.5429 H         1 UNK         0.0600 
    176 H176        0.8715   -9.4887  -40.6416 H         1 UNK         0.0600 
    177 H177       -0.6189   -9.0051  -39.8306 H         1 UNK         0.0600 
    178 H178        0.6194   -9.8794  -38.9446 H         1 UNK         0.0600 
    179 H179       -0.8785  -10.2160  -42.1838 H         1 UNK         0.3000 
    180 H180       -3.0801  -12.3648  -43.8863 H         1 UNK         0.0600 
    181 H181       -4.3551  -10.2988  -44.3971 H         1 UNK         0.0600 
    182 H182       -3.6440   -9.4816  -43.0046 H         1 UNK         0.0600 
    183 H183       -4.7256  -10.8496  -42.7714 H         1 UNK         0.0600 
    184 H184       -1.8473   -9.9199  -44.6642 H         1 UNK         0.3000 
    185 H185       -0.1467  -10.0963  -46.2708 H         1 UNK         0.0600 
    186 H186        1.8931  -10.5646  -44.0173 H         1 UNK         0.0600 
    187 H187        2.0551   -9.3802  -45.3122 H         1 UNK         0.0600 
    188 H188        0.7761   -9.2087  -44.1219 H         1 UNK         0.0600 
    189 H189        2.1070  -11.9556  -46.0197 H         1 UNK         0.3000 
    190 H190        0.0540  -20.2271  -47.4201 H         1 UNK         0.3000 
    191 H191       -0.6393  -20.9356  -50.0974 H         1 UNK         0.0600 
    192 H192       -0.8050  -18.6220  -49.2801 H         1 UNK         0.0600 
    193 H193       -2.0235  -19.0700  -48.0960 H         1 UNK         0.0600 
    194 H194       -2.3912  -19.1606  -49.8108 H         1 UNK         0.0600 
    195 H195       -2.4798  -21.2684  -47.0096 H         1 UNK         0.3000 
    196 H196       -4.7895  -22.4188  -48.0556 H         1 UNK         0.0600 
    197 H197       -4.6363  -21.4549  -45.7831 H         1 UNK         0.0600 
    198 H198       -3.5689  -22.7626  -45.2713 H         1 UNK         0.0600 
    199 H199       -5.2419  -23.1011  -45.6961 H         1 UNK         0.0600 
    200 H200       -1.7574  -24.0320  -47.2577 H         1 UNK         0.3000 
    201 H201       -2.5788  -26.7182  -47.2777 H         1 UNK         0.0600 
    202 H202       -0.3453  -25.9317  -46.5138 H         1 UNK         0.0600 
    203 H203        0.0887  -25.5033  -48.1682 H         1 UNK         0.0600 
    204 H204       -0.1764  -27.1854  -47.7319 H         1 UNK         0.0600 
    205 H205       -2.4811  -24.5265  -49.9842 H         1 UNK         0.3000 
    206 H206       -2.3543  -26.5592  -52.0612 H         1 UNK         0.0600 
    207 H207       -3.2283  -23.6350  -52.1707 H         1 UNK         0.0600 
    208 H208       -1.5938  -24.2225  -52.4483 H         1 UNK         0.0600 
    209 H209       -2.8844  -24.6643  -53.5532 H         1 UNK         0.0600 
    210 H210       -4.7648  -25.7678  -49.8198 H         1 UNK         0.3000 
    211 H211       -6.8286  -26.4132  -49.4566 H         1 UNK         0.0600 
    212 H212       -6.0521  -28.6511  -51.4059 H         1 UNK         0.0600 
    213 H213       -7.4364  -28.6990  -50.3170 H         1 UNK         0.0600 
    214 H214       -5.8086  -28.6218  -49.6658 H         1 UNK         0.0600 
    215 H215       -7.2633  -27.6695  -52.7218 H         1 UNK         0.3000 
    216 H216       -9.6880  -26.2190  -53.1969 H         1 UNK         0.0600 
    217 H217       -9.5089  -27.2625  -55.4632 H         1 UNK         0.0600 
    218 H218       -9.2248  -28.4461  -54.1971 H         1 UNK         0.0600 
    219 H219       -7.8661  -27.7830  -55.1068 H         1 UNK         0.0600 
    220 H220       -6.3254  -25.4569  -53.7516 H         1 UNK         0.3000 
    221 H221       -7.0396  -22.9611  -55.2495 H         1 UNK         0.0600 
    222 H222       -4.4539  -24.6011  -55.3439 H         1 UNK         0.0600 
    223 H223       -5.6870  -24.5706  -56.6010 H         1 UNK         0.0600 
    224 H224       -4.7770  -23.1167  -56.2345 H         1 UNK         0.0600 
    225 H225       -7.1907  -23.3484  -52.3282 H         1 UNK         0.3000 
    226 H226       -4.9683  -22.4707  -50.9241 H         1 UNK         0.0600 
    227 H227       -6.8035  -23.3942  -49.7115 H         1 UNK         0.0600 
    228 H228       -6.7426  -21.7238  -49.1937 H         1 UNK         0.0600 
    229 H229       -7.9540  -22.2228  -50.3634 H         1 UNK         0.0600 
    230 H230       -6.8987  -20.5041  -52.9886 H         1 UNK         0.3000 
    231 H231       -6.2583  -17.9011  -51.8722 H         1 UNK         0.0600 
    232 H232       -7.2333  -17.1086  -54.0349 H         1 UNK         0.0600 
    233 H233       -8.2972  -18.2448  -53.2213 H         1 UNK         0.0600 
    234 H234       -7.3404  -18.7698  -54.6060 H         1 UNK         0.0600 
    235 H235       -3.9761  -18.4374  -51.5580 H         1 UNK         0.3000 
    236 H236       -1.8017  -18.1251  -51.9093 H         1 UNK         0.0600 
    237 H237       -2.6646  -16.2474  -54.1663 H         1 UNK         0.0600 
    238 H238       -2.5869  -15.8205  -52.4570 H         1 UNK         0.0600 
    239 H239       -1.1181  -16.2270  -53.3269 H         1 UNK         0.0600 
    240 H240       -2.8472  -20.4479  -53.1114 H         1 UNK         0.3000 
    241 H241       -2.1946  -22.1939  -54.2445 H         1 UNK         0.0600 
    242 H242       -3.6790  -20.3178  -57.3250 H         1 UNK         0.3800 
    243 H243       -3.6519  -19.7259  -55.6820 H         1 UNK         0.3800 
    244 H244        0.3120  -20.8524  -55.3038 H         1 UNK         0.0800 
    245 H245       -0.0114  -22.5538  -55.1747 H         1 UNK         0.0800 
    246 H246        1.3899  -19.5238  -53.7790 H         1 UNK         0.0800 
    247 H247        2.6600  -20.7146  -53.6770 H         1 UNK         0.0800 
@<TRIPOS>BOND
     1    1    2 1    
     2    1  127 1    
     3    1  128 1    
     4    1  129 1    
     5    2    3 2    
     6    2    4 am   BACKBONE|DICT|INTERRES
     7    4    5 1    
     8    4  130 1    
     9    5    6 1    
    10    5   65 1    
    11    5  131 1    
    12    6    7 1    
    13    6  132 1    
    14    6  133 1    
    15    7    8 1    
    16    8    9 1    
    17    8  134 1    
    18    8  135 1    
    19    9   10 ar   
    20    9   14 ar   
    21   10   11 ar   
    22   10  136 1    
    23   11   12 ar   
    24   11  126 1    
    25   12   13 ar   
    26   12  137 1    
    27   13   14 ar   
    28   13   15 1    
    29   14  138 1    
    30   15   16 1    
    31   15  139 1    
    32   15  140 1    
    33   16   17 1    
    34   17   18 1    
    35   17  141 1    
    36   17  142 1    
    37   18   19 1    
    38   18   67 1    
    39   18  143 1    
    40   19   20 am   BACKBONE|DICT|INTERRES
    41   19  144 1    
    42   20   21 2    
    43   20   22 1    
    44   22   23 1    
    45   22   24 1    
    46   22  145 1    
    47   23  146 1    
    48   23  147 1    
    49   23  148 1    
    50   24   25 am   BACKBONE|DICT|INTERRES
    51   24  149 1    
    52   25   26 2    
    53   25   27 1    
    54   27   28 1    
    55   27   29 1    
    56   27  150 1    
    57   28  151 1    
    58   28  152 1    
    59   28  153 1    
    60   29   30 am   BACKBONE|DICT|INTERRES
    61   29  154 1    
    62   30   31 2    
    63   30   32 1    
    64   32   33 1    
    65   32   34 1    
    66   32  155 1    
    67   33  156 1    
    68   33  157 1    
    69   33  158 1    
    70   34   35 am   BACKBONE|DICT|INTERRES
    71   34  159 1    
    72   35   36 2    
    73   35   37 1    
    74   37   38 1    
    75   37   39 1    
    76   37  160 1    
    77   38  161 1    
    78   38  162 1    
    79   38  163 1    
    80   39   40 am   BACKBONE|DICT|INTERRES
    81   39  164 1    
    82   40   41 2    
    83   40   42 1    
    84   42   43 1    
    85   42   44 1    
    86   42  165 1    
    87   43  166 1    
    88   43  167 1    
    89   43  168 1    
    90   44   45 am   BACKBONE|DICT|INTERRES
    91   44  169 1    
    92   45   46 2    
    93   45   47 1    
    94   47   48 1    
    95   47   49 1    
    96   47  170 1    
    97   48  171 1    
    98   48  172 1    
    99   48  173 1    
   100   49   50 am   BACKBONE|DICT|INTERRES
   101   49  174 1    
   102   50   51 2    
   103   50   52 1    
   104   52   53 1    
   105   52   54 1    
   106   52  175 1    
   107   53  176 1    
   108   53  177 1    
   109   53  178 1    
   110   54   55 am   BACKBONE|DICT|INTERRES
   111   54  179 1    
   112   55   56 2    
   113   55   57 1    
   114   57   58 1    
   115   57   59 1    
   116   57  180 1    
   117   58  181 1    
   118   58  182 1    
   119   58  183 1    
   120   59   60 am   BACKBONE|DICT|INTERRES
   121   59  184 1    
   122   60   61 2    
   123   60   62 1    
   124   62   63 1    
   125   62   64 1    
   126   62  185 1    
   127   63  186 1    
   128   63  187 1    
   129   63  188 1    
   130   64   65 am   BACKBONE|DICT|INTERRES
   131   64  189 1    
   132   65   66 2    
   133   67   68 2    
   134   67   69 am   BACKBONE|DICT|INTERRES
   135   69   70 1    
   136   69  190 1    
   137   70   71 1    
   138   70   72 1    
   139   70  191 1    
   140   71  192 1    
   141   71  193 1    
   142   71  194 1    
   143   72   73 2    
   144   72   74 am   BACKBONE|DICT|INTERRES
   145   74   75 1    
   146   74  195 1    
   147   75   76 1    
   148   75   77 1    
   149   75  196 1    
   150   76  197 1    
   151   76  198 1    
   152   76  199 1    
   153   77   78 2    
   154   77   79 am   BACKBONE|DICT|INTERRES
   155   79   80 1    
   156   79  200 1    
   157   80   81 1    
   158   80   82 1    
   159   80  201 1    
   160   81  202 1    
   161   81  203 1    
   162   81  204 1    
   163   82   83 2    
   164   82   84 am   BACKBONE|DICT|INTERRES
   165   84   85 1    
   166   84  205 1    
   167   85   86 1    
   168   85   87 1    
   169   85  206 1    
   170   86  207 1    
   171   86  208 1    
   172   86  209 1    
   173   87   88 2    
   174   87   89 am   BACKBONE|DICT|INTERRES
   175   89   90 1    
   176   89  210 1    
   177   90   91 1    
   178   90   92 1    
   179   90  211 1    
   180   91  212 1    
   181   91  213 1    
   182   91  214 1    
   183   92   93 2    
   184   92   94 am   BACKBONE|DICT|INTERRES
   185   94   95 1    
   186   94  215 1    
   187   95   96 1    
   188   95   97 1    
   189   95  216 1    
   190   96  217 1    
   191   96  218 1    
   192   96  219 1    
   193   97   98 2    
   194   97   99 am   BACKBONE|DICT|INTERRES
   195   99  100 1    
   196   99  220 1    
   197  100  101 1    
   198  100  102 1    
   199  100  221 1    
   200  101  222 1    
   201  101  223 1    
   202  101  224 1    
   203  102  103 2    
   204  102  104 am   BACKBONE|DICT|INTERRES
   205  104  105 1    
   206  104  225 1    
   207  105  106 1    
   208  105  107 1    
   209  105  226 1    
   210  106  227 1    
   211  106  228 1    
   212  106  229 1    
   213  107  108 2    
   214  107  109 am   BACKBONE|DICT|INTERRES
   215  109  110 1    
   216  109  230 1    
   217  110  111 1    
   218  110  112 1    
   219  110  231 1    
   220  111  232 1    
   221  111  233 1    
   222  111  234 1    
   223  112  113 2    
   224  112  114 am   BACKBONE|DICT|INTERRES
   225  114  115 1    
   226  114  235 1    
   227  115  116 1    
   228  115  117 1    
   229  115  236 1    
   230  116  237 1    
   231  116  238 1    
   232  116  239 1    
   233  117  118 2    
   234  117  119 am   BACKBONE|DICT|INTERRES
   235  119  120 1    
   236  119  240 1    
   237  120  121 1    
   238  120  124 1    
   239  120  241 1    
   240  121  122 am   BACKBONE|DICT|INTERRES
   241  121  123 2    
   242  122  242 1    
   243  122  243 1    
   244  124  125 1    
   245  124  244 1    
   246  124  245 1    
   247  125  126 1    
   248  126  246 1    
   249  126  247 1    
@<TRIPOS>SUBSTRUCTURE
     1 UNK         1 GROUP             0       ****    0 ROOT    
