@<TRIPOS>MOLECULE
3R540
247   249    1
SMALL
USER_CHARGES


@<TRIPOS>ATOM
      1 CA          7.5888  -10.5564  -48.0000 C.3       0 UNK        -0.1800 
      2 C           6.5032  -11.5293  -47.5637 C.2       0 UNK         0.5000 
      3 O           5.5084  -11.1129  -46.9701 O.2       0 UNK        -0.5000 
      4 N           6.6802  -12.8225  -47.8682 N.am      1 UNK        -0.5000 
      5 CA          5.7527  -13.9119  -47.5278 C.3       1 UNK         0.1400 
      6 C6          6.3767  -15.3036  -47.8010 C.3       23 UNK        -0.0398 
      7 S7          6.7526  -15.6055  -49.5679 S.3       23 UNK        -0.2404 
      8 C8          6.3491  -17.3754  -49.7644 C.3       23 UNK        -0.0205 
      9 C9          4.9267  -17.7634  -49.3638 C.ar      23 UNK        -0.0193 
     10 C10         3.8245  -16.9647  -49.6885 C.ar      23 UNK        -0.1150 
     11 C11         2.5296  -17.3456  -49.3184 C.ar      23 UNK        -0.0193 
     12 C12         2.3379  -18.5496  -48.6321 C.ar      23 UNK        -0.1150 
     13 C13         3.4299  -19.3603  -48.3077 C.ar      23 UNK        -0.0193 
     14 C14         4.7173  -18.9593  -48.6725 C.ar      23 UNK        -0.1150 
     15 C15         3.2366  -20.6700  -47.5615 C.3       23 UNK        -0.0205 
     16 S16         3.1136  -22.0638  -48.7181 S.3       23 UNK        -0.2404 
     17 C17         3.5799  -23.4878  -47.6645 C.3       23 UNK        -0.0398 
     18 CA          2.4142  -24.2233  -46.9527 C.3       11 UNK         0.1400 
     19 N           1.9068  -23.4669  -45.7970 N.am      11 UNK        -0.5000 
     20 C           0.9961  -23.9079  -44.9192 C.2       10 UNK         0.5000 
     21 O           0.3450  -24.9376  -45.0892 O.2       10 UNK        -0.5000 
     22 CA          0.7573  -23.0928  -43.6311 C.3       10 UNK         0.1400 
     23 CB          1.6229  -23.6383  -42.4802 C.3       10 UNK        -0.1800 
     24 N           0.8961  -21.6350  -43.7437 N.am      10 UNK        -0.5000 
     25 C           1.9762  -20.8866  -44.0023 C.2       9 UNK         0.5000 
     26 O           3.0796  -21.3561  -44.2833 O.2       9 UNK        -0.5000 
     27 CA          1.7531  -19.3564  -43.9990 C.3       9 UNK         0.1400 
     28 CB          3.0367  -18.5622  -44.3031 C.3       9 UNK        -0.1800 
     29 N           0.7220  -18.9632  -44.9614 N.am      9 UNK        -0.5000 
     30 C          -0.5979  -19.1088  -44.7922 C.2       8 UNK         0.5000 
     31 O          -1.1128  -19.5514  -43.7620 O.2       8 UNK        -0.5000 
     32 CA         -1.4641  -18.8126  -46.0252 C.3       8 UNK         0.1400 
     33 CB         -1.5063  -20.0556  -46.9258 C.3       8 UNK        -0.1800 
     34 N          -2.8318  -18.4211  -45.6826 N.am      8 UNK        -0.5000 
     35 C          -3.1547  -17.2465  -45.1333 C.2       7 UNK         0.5000 
     36 O          -2.3319  -16.3897  -44.7976 O.2       7 UNK        -0.5000 
     37 CA         -4.6483  -16.9523  -44.9541 C.3       7 UNK         0.1400 
     38 CB         -5.1310  -17.3312  -43.5436 C.3       7 UNK        -0.1800 
     39 N          -4.8126  -15.5276  -45.1957 N.am      7 UNK        -0.5000 
     40 C          -5.9424  -14.8831  -45.4970 C.2       6 UNK         0.5000 
     41 O          -7.0579  -15.4038  -45.4992 O.2       6 UNK        -0.5000 
     42 CA         -5.7808  -13.4025  -45.8898 C.3       6 UNK         0.1400 
     43 CB         -5.7759  -12.5065  -44.6416 C.3       6 UNK        -0.1800 
     44 N          -4.5545  -13.1675  -46.6596 N.am      6 UNK        -0.5000 
     45 C          -4.3818  -13.5449  -47.9358 C.2       5 UNK         0.5000 
     46 O          -5.2613  -14.0780  -48.6105 O.2       5 UNK        -0.5000 
     47 CA         -3.0021  -13.2938  -48.5672 C.3       5 UNK         0.1400 
     48 CB         -2.9929  -11.9654  -49.3375 C.3       5 UNK        -0.1800 
     49 N          -1.9360  -13.2653  -47.5680 N.am      5 UNK        -0.5000 
     50 C          -1.1347  -14.2916  -47.2634 C.2       4 UNK         0.5000 
     51 O          -1.2018  -15.3880  -47.8189 O.2       4 UNK        -0.5000 
     52 CA         -0.0544  -14.0155  -46.1922 C.3       4 UNK         0.1400 
     53 CB          0.7911  -15.2588  -45.8579 C.3       4 UNK        -0.1800 
     54 N           0.8418  -12.9343  -46.6084 N.am      4 UNK        -0.5000 
     55 C           0.5367  -11.6267  -46.6257 C.2       3 UNK         0.5000 
     56 O          -0.5195  -11.1764  -46.1778 O.2       3 UNK        -0.5000 
     57 CA          1.5409  -10.6612  -47.2906 C.3       3 UNK         0.1400 
     58 CB          2.3822   -9.9451  -46.2242 C.3       3 UNK        -0.1800 
     59 N           2.4370  -11.3160  -48.2446 N.am      3 UNK        -0.5000 
     60 C           2.0526  -11.9331  -49.3730 C.2       2 UNK         0.5000 
     61 O           0.9026  -11.8958  -49.8100 O.2       2 UNK        -0.5000 
     62 CA          3.1134  -12.7655  -50.1234 C.3       2 UNK         0.1400 
     63 CB          3.5365  -12.0609  -51.4206 C.3       2 UNK        -0.1800 
     64 N           4.3140  -13.0747  -49.3421 N.am      2 UNK        -0.5000 
     65 C           4.3633  -13.7612  -48.1894 C.2       1 UNK         0.5000 
     66 O           3.3693  -14.2197  -47.6279 O.2       1 UNK        -0.5000 
     67 C           1.3263  -24.7042  -47.9416 C.2       11 UNK         0.5000 
     68 O           1.4305  -25.8068  -48.4814 O.2       11 UNK        -0.5000 
     69 N           0.2898  -23.8790  -48.1341 N.am      12 UNK        -0.5000 
     70 CA         -0.8215  -24.1337  -49.0483 C.3       12 UNK         0.1400 
     71 CB         -1.4419  -22.7885  -49.4461 C.3       12 UNK        -0.1800 
     72 C          -1.8881  -25.0865  -48.4754 C.2       12 UNK         0.5000 
     73 O          -2.7754  -25.5027  -49.2225 O.2       12 UNK        -0.5000 
     74 N          -1.8029  -25.4378  -47.1819 N.am      13 UNK        -0.5000 
     75 CA         -2.7294  -26.3654  -46.5235 C.3       13 UNK         0.1400 
     76 CB         -2.5274  -26.3226  -45.0024 C.3       13 UNK        -0.1800 
     77 C          -2.6013  -27.8064  -47.0487 C.2       13 UNK         0.5000 
     78 O          -3.5946  -28.5321  -47.0647 O.2       13 UNK        -0.5000 
     79 N          -1.4058  -28.1719  -47.5345 N.am      14 UNK        -0.5000 
     80 CA         -1.1253  -29.4430  -48.2077 C.3       14 UNK         0.1400 
     81 CB          0.3917  -29.5735  -48.4104 C.3       14 UNK        -0.1800 
     82 C          -1.8655  -29.5932  -49.5534 C.2       14 UNK         0.5000 
     83 O          -2.1675  -30.7160  -49.9581 O.2       14 UNK        -0.5000 
     84 N          -2.1631  -28.4605  -50.2042 N.am      15 UNK        -0.5000 
     85 CA         -2.9568  -28.3708  -51.4306 C.3       15 UNK         0.1400 
     86 CB         -2.3512  -27.2669  -52.3146 C.3       15 UNK        -0.1800 
     87 C          -4.4441  -28.0752  -51.1442 C.2       15 UNK         0.5000 
     88 O          -5.2309  -28.0054  -52.0889 O.2       15 UNK        -0.5000 
     89 N          -4.7958  -27.8756  -49.8627 N.am      16 UNK        -0.5000 
     90 CA         -6.0945  -27.4272  -49.3456 C.3       16 UNK         0.1400 
     91 CB         -7.1786  -28.5000  -49.5765 C.3       16 UNK        -0.1800 
     92 C          -6.5008  -26.0308  -49.8696 C.2       16 UNK         0.5000 
     93 O          -7.6897  -25.7563  -50.0415 O.2       16 UNK        -0.5000 
     94 N          -5.5003  -25.1751  -50.1171 N.am      17 UNK        -0.5000 
     95 CA         -5.6425  -23.8580  -50.7384 C.3       17 UNK         0.1400 
     96 CB         -4.7235  -23.8061  -51.9707 C.3       17 UNK        -0.1800 
     97 C          -5.3263  -22.7109  -49.7616 C.2       17 UNK         0.5000 
     98 O          -5.2848  -21.5550  -50.1844 O.2       17 UNK        -0.5000 
     99 N          -5.1137  -23.0252  -48.4750 N.am      18 UNK        -0.5000 
    100 CA        -4.7082  -22.0800  -47.4282 C.3       18 UNK         0.1400 
    101 CB        -4.3807  -22.8474  -46.1392 C.3       18 UNK        -0.1800 
    102 C         -5.7004  -20.9388  -47.1417 C.2       18 UNK         0.5000 
    103 O         -5.2782  -19.9052  -46.6230 O.2       18 UNK        -0.5000 
    104 N         -6.9784  -21.1366  -47.4892 N.am      19 UNK        -0.5000 
    105 CA        -8.0274  -20.1205  -47.4017 C.3       19 UNK         0.1400 
    106 CB        -9.3940  -20.8211  -47.3530 C.3       19 UNK        -0.1800 
    107 C         -7.9828  -19.1096  -48.5657 C.2       19 UNK         0.5000 
    108 O         -8.4413  -17.9801  -48.3944 O.2       19 UNK        -0.5000 
    109 N         -7.4492  -19.5263  -49.7232 N.am      20 UNK        -0.5000 
    110 CA        -7.2485  -18.6737  -50.8964 C.3       20 UNK         0.1400 
    111 CB        -7.3621  -19.5199  -52.1750 C.3       20 UNK        -0.1800 
    112 C         -5.8849  -17.9701  -50.8175 C.2       20 UNK         0.5000 
    113 O         -5.8085  -16.7576  -51.0239 O.2       20 UNK        -0.5000 
    114 N         -4.8481  -18.7493  -50.4738 N.am      21 UNK        -0.5000 
    115 CA        -3.4802  -18.3229  -50.1823 C.3       21 UNK         0.1400 
    116 CB        -3.4744  -17.5658  -48.8403 C.3       21 UNK        -0.1800 
    117 C         -2.8344  -17.5301  -51.3398 C.2       21 UNK         0.5000 
    118 O         -3.0353  -17.8811  -52.5047 O.2       21 UNK        -0.5000 
    119 N         -2.0828  -16.4761  -51.0022 N.am      22 UNK        -0.5000 
    120 CA        -1.5325  -15.4945  -51.9497 C.3       22 UNK         0.1400 
    121 C         -2.5444  -14.3776  -52.3553 C.2       22 UNK         0.5000 
    122 N         -3.8179  -14.4451  -51.9814 N.am      22 UNK        -0.7600 
    123 O         -2.1730  -13.4307  -53.0427 O.2       22 UNK        -0.5000 
    124 C124       -0.1889  -14.9117  -51.4382 C.3       23 UNK        -0.0398 
    125 S125        1.1364  -16.1685  -51.4163 S.3       23 UNK        -0.2404 
    126 C126        1.3456  -16.4403  -49.6307 C.3       23 UNK        -0.0205 
    127 H127        8.0056  -10.0464  -47.1315 H         1 UNK         0.0600 
    128 H128        7.1711   -9.8050  -48.6701 H         1 UNK         0.0600 
    129 H129        8.4020  -11.0627  -48.5204 H         1 UNK         0.0600 
    130 H130        7.5098  -13.1036  -48.3721 H         1 UNK         0.3000 
    131 H131        5.5812  -13.8457  -46.4513 H         1 UNK         0.0600 
    132 H132        5.7166  -16.0827  -47.4173 H         1 UNK         0.0800 
    133 H133        7.3039  -15.4078  -47.2362 H         1 UNK         0.0800 
    134 H134        6.4993  -17.6515  -50.8087 H         1 UNK         0.0800 
    135 H135        7.0754  -17.9508  -49.1881 H         1 UNK         0.0800 
    136 H136        3.9709  -16.0389  -50.2260 H         1 UNK         0.1150 
    137 H137        1.3405  -18.8565  -48.3522 H         1 UNK         0.1150 
    138 H138        5.5589  -19.5908  -48.4240 H         1 UNK         0.1150 
    139 H139        4.0693  -20.8225  -46.8731 H         1 UNK         0.0800 
    140 H140        2.3313  -20.6320  -46.9563 H         1 UNK         0.0800 
    141 H141        4.1039  -24.1965  -48.3080 H         1 UNK         0.0800 
    142 H142        4.3242  -23.1709  -46.9327 H         1 UNK         0.0800 
    143 H143        2.8413  -25.1340  -46.5272 H         1 UNK         0.0600 
    144 H144        2.4267  -22.6362  -45.5309 H         1 UNK         0.3000 
    145 H145       -0.2860  -23.2606  -43.3592 H         1 UNK         0.0600 
    146 H146        1.3949  -23.1331  -41.5417 H         1 UNK         0.0600 
    147 H147        1.4419  -24.7031  -42.3274 H         1 UNK         0.0600 
    148 H148        2.6881  -23.5150  -42.6780 H         1 UNK         0.0600 
    149 H149        0.0362  -21.1160  -43.5855 H         1 UNK         0.3000 
    150 H150        1.4231  -19.0806  -42.9953 H         1 UNK         0.0600 
    151 H151        3.8250  -18.8043  -43.5892 H         1 UNK         0.0600 
    152 H152        2.8595  -17.4885  -44.2366 H         1 UNK         0.0600 
    153 H153        3.4209  -18.7743  -45.3009 H         1 UNK         0.0600 
    154 H154        1.0621  -18.6105  -45.8431 H         1 UNK         0.3000 
    155 H155       -1.0058  -17.9929  -46.5829 H         1 UNK         0.0600 
    156 H156       -0.5063  -20.3366  -47.2584 H         1 UNK         0.0600 
    157 H157       -1.9276  -20.9128  -46.3992 H         1 UNK         0.0600 
    158 H158       -2.1031  -19.8796  -47.8189 H         1 UNK         0.0600 
    159 H159       -3.5757  -19.0689  -45.9211 H         1 UNK         0.3000 
    160 H160       -5.2210  -17.5002  -45.7037 H         1 UNK         0.0600 
    161 H161       -4.5873  -16.7829  -42.7732 H         1 UNK         0.0600 
    162 H162       -4.9839  -18.3958  -43.3578 H         1 UNK         0.0600 
    163 H163       -6.1935  -17.1239  -43.4171 H         1 UNK         0.0600 
    164 H164       -3.9340  -15.0260  -45.2252 H         1 UNK         0.3000 
    165 H165       -6.6381  -13.1234  -46.5063 H         1 UNK         0.0600 
    166 H166       -4.9300  -12.7262  -43.9890 H         1 UNK         0.0600 
    167 H167       -5.7258  -11.4520  -44.9136 H         1 UNK         0.0600 
    168 H168       -6.6863  -12.6477  -44.0575 H         1 UNK         0.0600 
    169 H169       -3.7872  -12.7267  -46.1752 H         1 UNK         0.3000 
    170 H170       -2.8180  -14.0975  -49.2815 H         1 UNK         0.0600 
    171 H171       -3.7700  -11.9520  -50.1027 H         1 UNK         0.0600 
    172 H172       -3.1631  -11.1137  -48.6779 H         1 UNK         0.0600 
    173 H173       -2.0387  -11.8136  -49.8431 H         1 UNK         0.0600 
    174 H174       -1.7547  -12.3792  -47.1066 H         1 UNK         0.3000 
    175 H175       -0.5708  -13.7124  -45.2792 H         1 UNK         0.0600 
    176 H176        1.2976  -15.6571  -46.7364 H         1 UNK         0.0600 
    177 H177        1.5513  -15.0307  -45.1109 H         1 UNK         0.0600 
    178 H178        0.1707  -16.0556  -45.4512 H         1 UNK         0.0600 
    179 H179        1.7254  -13.2313  -47.0110 H         1 UNK         0.3000 
    180 H180        0.9633   -9.9116  -47.8350 H         1 UNK         0.0600 
    181 H181        2.9892  -10.6492  -45.6533 H         1 UNK         0.0600 
    182 H182        1.7465   -9.4100  -45.5176 H         1 UNK         0.0600 
    183 H183        3.0536   -9.2143  -46.6755 H         1 UNK         0.0600 
    184 H184        3.4064  -11.3933  -47.9635 H         1 UNK         0.3000 
    185 H185        2.6452  -13.7138  -50.3896 H         1 UNK         0.0600 
    186 H186        4.2136  -12.6839  -52.0053 H         1 UNK         0.0600 
    187 H187        2.6714  -11.8465  -52.0498 H         1 UNK         0.0600 
    188 H188        4.0387  -11.1142  -51.2177 H         1 UNK         0.0600 
    189 H189        5.1876  -12.7303  -49.7127 H         1 UNK         0.3000 
    190 H190        0.2858  -22.9992  -47.6406 H         1 UNK         0.3000 
    191 H191       -0.4312  -24.6025  -49.9540 H         1 UNK         0.0600 
    192 H192       -2.2674  -22.9201  -50.1445 H         1 UNK         0.0600 
    193 H193       -0.7086  -22.1434  -49.9304 H         1 UNK         0.0600 
    194 H194       -1.8261  -22.2629  -48.5764 H         1 UNK         0.0600 
    195 H195       -1.0311  -25.0950  -46.6194 H         1 UNK         0.3000 
    196 H196       -3.7462  -26.0285  -46.7362 H         1 UNK         0.0600 
    197 H197       -3.2884  -26.9154  -44.4935 H         1 UNK         0.0600 
    198 H198       -2.5984  -25.3043  -44.6199 H         1 UNK         0.0600 
    199 H199       -1.5560  -26.7247  -44.7135 H         1 UNK         0.0600 
    200 H200       -0.6457  -27.5076  -47.4861 H         1 UNK         0.3000 
    201 H201       -1.4573  -30.2532  -47.5552 H         1 UNK         0.0600 
    202 H202        0.9207  -29.5469  -47.4576 H         1 UNK         0.0600 
    203 H203        0.7847  -28.7696  -49.0345 H         1 UNK         0.0600 
    204 H204        0.6422  -30.5185  -48.8942 H         1 UNK         0.0600 
    205 H205       -1.8971  -27.5788  -49.7874 H         1 UNK         0.3000 
    206 H206       -2.9082  -29.3136  -51.9791 H         1 UNK         0.0600 
    207 H207       -1.3054  -27.4739  -52.5424 H         1 UNK         0.0600 
    208 H208       -2.8799  -27.1904  -53.2655 H         1 UNK         0.0600 
    209 H209       -2.4024  -26.2900  -51.8327 H         1 UNK         0.0600 
    210 H210       -4.0779  -27.9943  -49.1605 H         1 UNK         0.3000 
    211 H211       -5.9678  -27.3171  -48.2678 H         1 UNK         0.0600 
    212 H212       -7.4139  -28.6191  -50.6344 H         1 UNK         0.0600 
    213 H213       -8.1047  -28.2371  -49.0640 H         1 UNK         0.0600 
    214 H214       -6.8609  -29.4692  -49.1918 H         1 UNK         0.0600 
    215 H215       -4.5466  -25.4644  -49.9112 H         1 UNK         0.3000 
    216 H216       -6.6679  -23.7016  -51.0783 H         1 UNK         0.0600 
    217 H217       -4.7926  -22.8437  -52.4796 H         1 UNK         0.0600 
    218 H218       -4.9987  -24.5741  -52.6939 H         1 UNK         0.0600 
    219 H219       -3.6792  -23.9656  -51.7026 H         1 UNK         0.0600 
    220 H220       -5.1819  -23.9965  -48.2113 H         1 UNK         0.3000 
    221 H221       -3.7985  -21.5943  -47.7754 H         1 UNK         0.0600 
    222 H222       -4.1167  -22.1657  -45.3293 H         1 UNK         0.0600 
    223 H223       -5.2258  -23.4479  -45.8012 H         1 UNK         0.0600 
    224 H224       -3.5298  -23.5095  -46.2835 H         1 UNK         0.0600 
    225 H225       -7.2358  -22.0276  -47.8871 H         1 UNK         0.3000 
    226 H226       -7.8990  -19.5609  -46.4724 H         1 UNK         0.0600 
    227 H227       -9.4628  -21.4921  -46.4966 H         1 UNK         0.0600 
    228 H228      -10.2022  -20.0943  -47.2607 H         1 UNK         0.0600 
    229 H229       -9.5798  -21.4059  -48.2548 H         1 UNK         0.0600 
    230 H230       -7.0293  -20.4458  -49.7625 H         1 UNK         0.3000 
    231 H231       -8.0253  -17.9068  -50.9324 H         1 UNK         0.0600 
    232 H232       -7.2272  -18.9008  -53.0627 H         1 UNK         0.0600 
    233 H233       -8.3440  -19.9872  -52.2503 H         1 UNK         0.0600 
    234 H234       -6.6122  -20.3106  -52.2108 H         1 UNK         0.0600 
    235 H235       -5.0163  -19.7487  -50.3838 H         1 UNK         0.3000 
    236 H236       -2.8955  -19.2359  -50.0639 H         1 UNK         0.0600 
    237 H237       -4.0588  -18.0987  -48.0935 H         1 UNK         0.0600 
    238 H238       -2.4622  -17.4740  -48.4533 H         1 UNK         0.0600 
    239 H239       -3.9003  -16.5655  -48.9254 H         1 UNK         0.0600 
    240 H240       -1.9592  -16.2596  -50.0220 H         1 UNK         0.3000 
    241 H241       -1.3147  -16.0130  -52.8853 H         1 UNK         0.0600 
    242 H242       -4.1852  -15.2406  -51.4758 H         1 UNK         0.3800 
    243 H243       -4.4489  -13.7153  -52.2705 H         1 UNK         0.3800 
    244 H244        0.1591  -14.1057  -52.0865 H         1 UNK         0.0800 
    245 H245       -0.3121  -14.4660  -50.4496 H         1 UNK         0.0800 
    246 H246        0.4240  -16.8661  -49.2329 H         1 UNK         0.0800 
    247 H247        1.4900  -15.4828  -49.1302 H         1 UNK         0.0800 
@<TRIPOS>BOND
     1    1    2 1    
     2    1  127 1    
     3    1  128 1    
     4    1  129 1    
     5    2    3 2    
     6    2    4 am   BACKBONE|DICT|INTERRES
     7    4    5 1    
     8    4  130 1    
     9    5    6 1    
    10    5   65 1    
    11    5  131 1    
    12    6    7 1    
    13    6  132 1    
    14    6  133 1    
    15    7    8 1    
    16    8    9 1    
    17    8  134 1    
    18    8  135 1    
    19    9   10 ar   
    20    9   14 ar   
    21   10   11 ar   
    22   10  136 1    
    23   11   12 ar   
    24   11  126 1    
    25   12   13 ar   
    26   12  137 1    
    27   13   14 ar   
    28   13   15 1    
    29   14  138 1    
    30   15   16 1    
    31   15  139 1    
    32   15  140 1    
    33   16   17 1    
    34   17   18 1    
    35   17  141 1    
    36   17  142 1    
    37   18   19 1    
    38   18   67 1    
    39   18  143 1    
    40   19   20 am   BACKBONE|DICT|INTERRES
    41   19  144 1    
    42   20   21 2    
    43   20   22 1    
    44   22   23 1    
    45   22   24 1    
    46   22  145 1    
    47   23  146 1    
    48   23  147 1    
    49   23  148 1    
    50   24   25 am   BACKBONE|DICT|INTERRES
    51   24  149 1    
    52   25   26 2    
    53   25   27 1    
    54   27   28 1    
    55   27   29 1    
    56   27  150 1    
    57   28  151 1    
    58   28  152 1    
    59   28  153 1    
    60   29   30 am   BACKBONE|DICT|INTERRES
    61   29  154 1    
    62   30   31 2    
    63   30   32 1    
    64   32   33 1    
    65   32   34 1    
    66   32  155 1    
    67   33  156 1    
    68   33  157 1    
    69   33  158 1    
    70   34   35 am   BACKBONE|DICT|INTERRES
    71   34  159 1    
    72   35   36 2    
    73   35   37 1    
    74   37   38 1    
    75   37   39 1    
    76   37  160 1    
    77   38  161 1    
    78   38  162 1    
    79   38  163 1    
    80   39   40 am   BACKBONE|DICT|INTERRES
    81   39  164 1    
    82   40   41 2    
    83   40   42 1    
    84   42   43 1    
    85   42   44 1    
    86   42  165 1    
    87   43  166 1    
    88   43  167 1    
    89   43  168 1    
    90   44   45 am   BACKBONE|DICT|INTERRES
    91   44  169 1    
    92   45   46 2    
    93   45   47 1    
    94   47   48 1    
    95   47   49 1    
    96   47  170 1    
    97   48  171 1    
    98   48  172 1    
    99   48  173 1    
   100   49   50 am   BACKBONE|DICT|INTERRES
   101   49  174 1    
   102   50   51 2    
   103   50   52 1    
   104   52   53 1    
   105   52   54 1    
   106   52  175 1    
   107   53  176 1    
   108   53  177 1    
   109   53  178 1    
   110   54   55 am   BACKBONE|DICT|INTERRES
   111   54  179 1    
   112   55   56 2    
   113   55   57 1    
   114   57   58 1    
   115   57   59 1    
   116   57  180 1    
   117   58  181 1    
   118   58  182 1    
   119   58  183 1    
   120   59   60 am   BACKBONE|DICT|INTERRES
   121   59  184 1    
   122   60   61 2    
   123   60   62 1    
   124   62   63 1    
   125   62   64 1    
   126   62  185 1    
   127   63  186 1    
   128   63  187 1    
   129   63  188 1    
   130   64   65 am   BACKBONE|DICT|INTERRES
   131   64  189 1    
   132   65   66 2    
   133   67   68 2    
   134   67   69 am   BACKBONE|DICT|INTERRES
   135   69   70 1    
   136   69  190 1    
   137   70   71 1    
   138   70   72 1    
   139   70  191 1    
   140   71  192 1    
   141   71  193 1    
   142   71  194 1    
   143   72   73 2    
   144   72   74 am   BACKBONE|DICT|INTERRES
   145   74   75 1    
   146   74  195 1    
   147   75   76 1    
   148   75   77 1    
   149   75  196 1    
   150   76  197 1    
   151   76  198 1    
   152   76  199 1    
   153   77   78 2    
   154   77   79 am   BACKBONE|DICT|INTERRES
   155   79   80 1    
   156   79  200 1    
   157   80   81 1    
   158   80   82 1    
   159   80  201 1    
   160   81  202 1    
   161   81  203 1    
   162   81  204 1    
   163   82   83 2    
   164   82   84 am   BACKBONE|DICT|INTERRES
   165   84   85 1    
   166   84  205 1    
   167   85   86 1    
   168   85   87 1    
   169   85  206 1    
   170   86  207 1    
   171   86  208 1    
   172   86  209 1    
   173   87   88 2    
   174   87   89 am   BACKBONE|DICT|INTERRES
   175   89   90 1    
   176   89  210 1    
   177   90   91 1    
   178   90   92 1    
   179   90  211 1    
   180   91  212 1    
   181   91  213 1    
   182   91  214 1    
   183   92   93 2    
   184   92   94 am   BACKBONE|DICT|INTERRES
   185   94   95 1    
   186   94  215 1    
   187   95   96 1    
   188   95   97 1    
   189   95  216 1    
   190   96  217 1    
   191   96  218 1    
   192   96  219 1    
   193   97   98 2    
   194   97   99 am   BACKBONE|DICT|INTERRES
   195   99  100 1    
   196   99  220 1    
   197  100  101 1    
   198  100  102 1    
   199  100  221 1    
   200  101  222 1    
   201  101  223 1    
   202  101  224 1    
   203  102  103 2    
   204  102  104 am   BACKBONE|DICT|INTERRES
   205  104  105 1    
   206  104  225 1    
   207  105  106 1    
   208  105  107 1    
   209  105  226 1    
   210  106  227 1    
   211  106  228 1    
   212  106  229 1    
   213  107  108 2    
   214  107  109 am   BACKBONE|DICT|INTERRES
   215  109  110 1    
   216  109  230 1    
   217  110  111 1    
   218  110  112 1    
   219  110  231 1    
   220  111  232 1    
   221  111  233 1    
   222  111  234 1    
   223  112  113 2    
   224  112  114 am   BACKBONE|DICT|INTERRES
   225  114  115 1    
   226  114  235 1    
   227  115  116 1    
   228  115  117 1    
   229  115  236 1    
   230  116  237 1    
   231  116  238 1    
   232  116  239 1    
   233  117  118 2    
   234  117  119 am   BACKBONE|DICT|INTERRES
   235  119  120 1    
   236  119  240 1    
   237  120  121 1    
   238  120  124 1    
   239  120  241 1    
   240  121  122 am   BACKBONE|DICT|INTERRES
   241  121  123 2    
   242  122  242 1    
   243  122  243 1    
   244  124  125 1    
   245  124  244 1    
   246  124  245 1    
   247  125  126 1    
   248  126  246 1    
   249  126  247 1    
@<TRIPOS>SUBSTRUCTURE
     1 UNK         1 GROUP             0       ****    0 ROOT    
