@<TRIPOS>MOLECULE
3R540
247   249    1
SMALL
USER_CHARGES


@<TRIPOS>ATOM
      1 CA         -2.3037  -11.2608  -51.2545 C.3       0 UNK        -0.1800 
      2 C          -1.3057  -11.8060  -50.2441 C.2       0 UNK         0.5000 
      3 O          -0.6846  -11.0322  -49.5173 O.2       0 UNK        -0.5000 
      4 N          -1.1627  -13.1364  -50.1768 N.am      1 UNK        -0.5000 
      5 CA         -0.2355  -13.8448  -49.2812 C.3       1 UNK         0.1400 
      6 C6         -0.1920  -15.3642  -49.5993 C.3       23 UNK        -0.0398 
      7 S7          1.4982  -16.0429  -49.5828 S.3       23 UNK        -0.2404 
      8 C8          1.2184  -17.7165  -50.2445 C.3       23 UNK        -0.0205 
      9 C9          0.6400  -18.6409  -49.1862 C.ar      23 UNK        -0.0193 
     10 C10        -0.7434  -18.7508  -49.0236 C.ar      23 UNK        -0.1150 
     11 C11        -1.2785  -19.5604  -48.0192 C.ar      23 UNK        -0.0193 
     12 C12        -0.4186  -20.3015  -47.2038 C.ar      23 UNK        -0.1150 
     13 C13         0.9675  -20.2057  -47.3621 C.ar      23 UNK        -0.0193 
     14 C14         1.4914  -19.3714  -48.3528 C.ar      23 UNK        -0.1150 
     15 C15         1.8971  -20.9539  -46.4241 C.3       23 UNK        -0.0205 
     16 S16         2.4497  -22.5250  -47.1465 S.3       23 UNK        -0.2404 
     17 C17         2.4765  -23.5966  -45.6647 C.3       23 UNK        -0.0398 
     18 CA          1.3108  -24.6169  -45.4569 C.3       11 UNK         0.1400 
     19 N           0.8758  -24.6519  -44.0576 N.am      11 UNK        -0.5000 
     20 C           0.4487  -25.7502  -43.4202 C.2       10 UNK         0.5000 
     21 O           0.3802  -26.8637  -43.9407 O.2       10 UNK        -0.5000 
     22 CA          0.0140  -25.5675  -41.9544 C.3       10 UNK         0.1400 
     23 CB          1.2291  -25.6432  -41.0173 C.3       10 UNK        -0.1800 
     24 N          -0.6916  -24.3052  -41.7286 N.am      10 UNK        -0.5000 
     25 C          -1.9180  -24.0359  -42.1958 C.2       9 UNK         0.5000 
     26 O          -2.5912  -24.8360  -42.8457 O.2       9 UNK        -0.5000 
     27 CA         -2.4824  -22.6323  -41.9024 C.3       9 UNK         0.1400 
     28 CB         -3.2969  -22.6464  -40.6001 C.3       9 UNK        -0.1800 
     29 N          -1.4734  -21.5693  -41.8256 N.am      9 UNK        -0.5000 
     30 C          -0.6713  -21.1964  -42.8304 C.2       8 UNK         0.5000 
     31 O          -0.5963  -21.7908  -43.9082 O.2       8 UNK        -0.5000 
     32 CA          0.2104  -19.9656  -42.5938 C.3       8 UNK         0.1400 
     33 CB          1.6483  -20.3827  -42.2405 C.3       8 UNK        -0.1800 
     34 N           0.2034  -19.1635  -43.8127 N.am      8 UNK        -0.5000 
     35 C           0.4339  -17.8486  -43.8803 C.2       7 UNK         0.5000 
     36 O           0.6902  -17.1450  -42.9000 O.2       7 UNK        -0.5000 
     37 CA          0.3144  -17.2068  -45.2767 C.3       7 UNK         0.1400 
     38 CB         -1.1231  -16.7285  -45.5311 C.3       7 UNK        -0.1800 
     39 N           1.2402  -16.0907  -45.4605 N.am      7 UNK        -0.5000 
     40 C           2.5756  -16.2076  -45.5103 C.2       6 UNK         0.5000 
     41 O           3.1684  -17.2867  -45.4672 O.2       6 UNK        -0.5000 
     42 CA          3.3946  -14.9075  -45.6164 C.3       6 UNK         0.1400 
     43 CB          3.8861  -14.6785  -47.0535 C.3       6 UNK        -0.1800 
     44 N           2.6227  -13.7389  -45.2023 N.am      6 UNK        -0.5000 
     45 C           2.6224  -13.2047  -43.9755 C.2       5 UNK         0.5000 
     46 O           3.3099  -13.6304  -43.0456 O.2       5 UNK        -0.5000 
     47 CA          1.6869  -11.9951  -43.7604 C.3       5 UNK         0.1400 
     48 CB          2.1226  -11.0909  -42.5887 C.3       5 UNK        -0.1800 
     49 N           1.4729  -11.2102  -44.9817 N.am      5 UNK        -0.5000 
     50 C           2.3811  -10.5203  -45.6904 C.2       4 UNK         0.5000 
     51 O           3.5638  -10.4066  -45.3667 O.2       4 UNK        -0.5000 
     52 CA          1.8971   -9.8616  -47.0004 C.3       4 UNK         0.1400 
     53 CB          2.4737  -10.6091  -48.2137 C.3       4 UNK        -0.1800 
     54 N           0.4395   -9.8230  -47.1301 N.am      4 UNK        -0.5000 
     55 C          -0.3825   -9.0278  -46.4321 C.2       3 UNK         0.5000 
     56 O           0.0031   -8.1526  -45.6568 O.2       3 UNK        -0.5000 
     57 CA         -1.8897   -9.3020  -46.5892 C.3       3 UNK         0.1400 
     58 CB         -2.4688   -8.5326  -47.7865 C.3       3 UNK        -0.1800 
     59 N          -2.1758  -10.7326  -46.7371 N.am      3 UNK        -0.5000 
     60 C          -2.0613  -11.6343  -45.7508 C.2       2 UNK         0.5000 
     61 O          -1.7339  -11.3473  -44.6001 O.2       2 UNK        -0.5000 
     62 CA         -2.3100  -13.1085  -46.1152 C.3       2 UNK         0.1400 
     63 CB         -3.8020  -13.4553  -46.0071 C.3       2 UNK        -0.1800 
     64 N          -1.8295  -13.4449  -47.4550 N.am      2 UNK        -0.5000 
     65 C          -0.5380  -13.5889  -47.7860 C.2       1 UNK         0.5000 
     66 O           0.3849  -13.4986  -46.9748 O.2       1 UNK        -0.5000 
     67 C           0.0913  -24.4900  -46.4012 C.2       11 UNK         0.5000 
     68 O           0.1124  -25.0696  -47.4872 O.2       11 UNK        -0.5000 
     69 N          -0.9742  -23.8055  -45.9523 N.am      12 UNK        -0.5000 
     70 CA         -2.2440  -23.6191  -46.6675 C.3       12 UNK         0.1400 
     71 CB         -3.1952  -22.7878  -45.7924 C.3       12 UNK        -0.1800 
     72 C          -2.9481  -24.9277  -47.0787 C.2       12 UNK         0.5000 
     73 O          -3.7061  -24.9306  -48.0471 O.2       12 UNK        -0.5000 
     74 N          -2.6851  -26.0122  -46.3383 N.am      13 UNK        -0.5000 
     75 CA         -3.1743  -27.3607  -46.6192 C.3       13 UNK         0.1400 
     76 CB         -3.0026  -28.2102  -45.3500 C.3       13 UNK        -0.1800 
     77 C          -2.4785  -28.0384  -47.8199 C.2       13 UNK         0.5000 
     78 O          -3.0058  -29.0280  -48.3309 O.2       13 UNK        -0.5000 
     79 N          -1.3108  -27.5263  -48.2321 N.am      14 UNK        -0.5000 
     80 CA         -0.5091  -28.0343  -49.3432 C.3       14 UNK         0.1400 
     81 CB          0.9747  -28.0173  -48.9222 C.3       14 UNK        -0.1800 
     82 C          -0.7807  -27.2295  -50.6327 C.2       14 UNK         0.5000 
     83 O          -1.8614  -26.6589  -50.7989 O.2       14 UNK        -0.5000 
     84 N           0.2105  -27.1970  -51.5358 N.am      15 UNK        -0.5000 
     85 CA          0.1645  -26.5578  -52.8570 C.3       15 UNK         0.1400 
     86 CB          1.4635  -26.8869  -53.6087 C.3       15 UNK        -0.1800 
     87 C          -0.0753  -25.0335  -52.8416 C.2       15 UNK         0.5000 
     88 O          -0.4603  -24.4736  -53.8692 O.2       15 UNK        -0.5000 
     89 N           0.1152  -24.3905  -51.6804 N.am      16 UNK        -0.5000 
     90 CA         -0.1789  -22.9767  -51.4372 C.3       16 UNK         0.1400 
     91 CB          0.2962  -22.5976  -50.0333 C.3       16 UNK        -0.1800 
     92 C          -1.6623  -22.6017  -51.6219 C.2       16 UNK         0.5000 
     93 O          -1.9506  -21.4341  -51.8745 O.2       16 UNK        -0.5000 
     94 N          -2.5658  -23.5941  -51.5813 N.am      17 UNK        -0.5000 
     95 CA         -3.9947  -23.4703  -51.8899 C.3       17 UNK         0.1400 
     96 CB         -4.6701  -24.8263  -51.6354 C.3       17 UNK        -0.1800 
     97 C          -4.3125  -22.9730  -53.3207 C.2       17 UNK         0.5000 
     98 O          -5.4648  -22.6409  -53.6016 O.2       17 UNK        -0.5000 
     99 N          -3.3049  -22.9232  -54.2036 N.am      18 UNK        -0.5000 
    100 CA        -3.3733  -22.2663  -55.5070 C.3       18 UNK         0.1400 
    101 CB        -2.1836  -22.7355  -56.3582 C.3       18 UNK        -0.1800 
    102 C         -3.3940  -20.7239  -55.4146 C.2       18 UNK         0.5000 
    103 O         -3.8679  -20.0803  -56.3524 O.2       18 UNK        -0.5000 
    104 N         -2.8783  -20.1492  -54.3164 N.am      19 UNK        -0.5000 
    105 CA        -2.8784  -18.7081  -54.0627 C.3       19 UNK         0.1400 
    106 CB        -1.7971  -18.3706  -53.0228 C.3       19 UNK        -0.1800 
    107 C         -4.2543  -18.2430  -53.5607 C.2       19 UNK         0.5000 
    108 O         -4.9121  -18.9680  -52.8126 O.2       19 UNK        -0.5000 
    109 N         -4.6446  -17.0147  -53.9245 N.am      20 UNK        -0.5000 
    110 CA        -5.9429  -16.4056  -53.6017 C.3       20 UNK         0.1400 
    111 CB        -6.0395  -15.0479  -54.3153 C.3       20 UNK        -0.1800 
    112 C         -6.2358  -16.2405  -52.0940 C.2       20 UNK         0.5000 
    113 O         -7.3966  -16.0748  -51.7177 O.2       20 UNK        -0.5000 
    114 N         -5.1872  -16.2922  -51.2627 N.am      21 UNK        -0.5000 
    115 CA        -5.2617  -16.2256  -49.8049 C.3       21 UNK         0.1400 
    116 CB        -3.8554  -15.9364  -49.2580 C.3       21 UNK        -0.1800 
    117 C         -5.8542  -17.4882  -49.1435 C.2       21 UNK         0.5000 
    118 O         -6.3227  -17.3899  -48.0086 O.2       21 UNK        -0.5000 
    119 N         -5.8221  -18.6402  -49.8284 N.am      22 UNK        -0.5000 
    120 CA        -6.3131  -19.9238  -49.2918 C.3       22 UNK         0.1400 
    121 C         -6.7950  -20.9573  -50.3479 C.2       22 UNK         0.5000 
    122 N         -6.6196  -20.7421  -51.6422 N.am      22 UNK        -0.7600 
    123 O         -7.3717  -21.9783  -49.9834 O.2       22 UNK        -0.5000 
    124 C124       -5.3525  -20.5552  -48.2451 C.3       23 UNK        -0.0398 
    125 S125       -3.6360  -20.7785  -48.8357 S.3       23 UNK        -0.2404 
    126 C126       -2.7780  -19.5797  -47.7752 C.3       23 UNK        -0.0205 
    127 H127       -3.0630  -10.6661  -50.7469 H         1 UNK         0.0600 
    128 H128       -2.8054  -12.0591  -51.8019 H         1 UNK         0.0600 
    129 H129       -1.7939  -10.6211  -51.9747 H         1 UNK         0.0600 
    130 H130       -1.6924  -13.7134  -50.8133 H         1 UNK         0.3000 
    131 H131        0.7497  -13.4155  -49.4768 H         1 UNK         0.0600 
    132 H132       -0.5940  -15.5576  -50.5948 H         1 UNK         0.0800 
    133 H133       -0.8160  -15.9401  -48.9152 H         1 UNK         0.0800 
    134 H134        2.1691  -18.1161  -50.6005 H         1 UNK         0.0800 
    135 H135        0.5635  -17.6732  -51.1158 H         1 UNK         0.0800 
    136 H136       -1.4044  -18.1889  -49.6655 H         1 UNK         0.1150 
    137 H137       -0.8256  -20.9338  -46.4295 H         1 UNK         0.1150 
    138 H138        2.5627  -19.2802  -48.4645 H         1 UNK         0.1150 
    139 H139        2.7654  -20.3385  -46.1831 H         1 UNK         0.0800 
    140 H140        1.3855  -21.1391  -45.4816 H         1 UNK         0.0800 
    141 H141        2.5843  -22.9560  -44.7885 H         1 UNK         0.0800 
    142 H142        3.4159  -24.1500  -45.6998 H         1 UNK         0.0800 
    143 H143        1.7351  -25.5960  -45.6924 H         1 UNK         0.0600 
    144 H144        0.8407  -23.7678  -43.5710 H         1 UNK         0.3000 
    145 H145       -0.6616  -26.3880  -41.7028 H         1 UNK         0.0600 
    146 H146        0.9243  -25.5907  -39.9719 H         1 UNK         0.0600 
    147 H147        1.7667  -26.5830  -41.1509 H         1 UNK         0.0600 
    148 H148        1.9344  -24.8322  -41.2029 H         1 UNK         0.0600 
    149 H149       -0.2116  -23.5960  -41.1945 H         1 UNK         0.3000 
    150 H150       -3.1605  -22.3780  -42.7189 H         1 UNK         0.0600 
    151 H151       -2.6679  -22.8568  -39.7342 H         1 UNK         0.0600 
    152 H152       -4.0754  -23.4100  -40.6337 H         1 UNK         0.0600 
    153 H153       -3.7912  -21.6893  -40.4327 H         1 UNK         0.0600 
    154 H154       -1.4547  -21.0391  -40.9662 H         1 UNK         0.3000 
    155 H155       -0.2115  -19.3813  -41.7733 H         1 UNK         0.0600 
    156 H156        2.1098  -20.9592  -43.0430 H         1 UNK         0.0600 
    157 H157        1.6678  -20.9971  -41.3396 H         1 UNK         0.0600 
    158 H158        2.2769  -19.5122  -42.0526 H         1 UNK         0.0600 
    159 H159       -0.0546  -19.6769  -44.6446 H         1 UNK         0.3000 
    160 H160        0.5642  -17.9524  -46.0271 H         1 UNK         0.0600 
    161 H161       -1.4287  -15.9755  -44.8047 H         1 UNK         0.0600 
    162 H162       -1.8280  -17.5575  -45.4578 H         1 UNK         0.0600 
    163 H163       -1.2304  -16.3048  -46.5287 H         1 UNK         0.0600 
    164 H164        0.8395  -15.1657  -45.5245 H         1 UNK         0.3000 
    165 H165        4.2712  -15.0223  -44.9754 H         1 UNK         0.0600 
    166 H166        4.5912  -13.8483  -47.0970 H         1 UNK         0.0600 
    167 H167        4.3945  -15.5605  -47.4450 H         1 UNK         0.0600 
    168 H168        3.0607  -14.4449  -47.7254 H         1 UNK         0.0600 
    169 H169        1.9784  -13.3637  -45.8926 H         1 UNK         0.3000 
    170 H170        0.7139  -12.4154  -43.5024 H         1 UNK         0.0600 
    171 H171        2.1255  -11.6438  -41.6487 H         1 UNK         0.0600 
    172 H172        3.1264  -10.6915  -42.7346 H         1 UNK         0.0600 
    173 H173        1.4403  -10.2497  -42.4665 H         1 UNK         0.0600 
    174 H174        0.5302  -11.2350  -45.3448 H         1 UNK         0.3000 
    175 H175        2.2731   -8.8366  -47.0143 H         1 UNK         0.0600 
    176 H176        2.1728  -10.1363  -49.1488 H         1 UNK         0.0600 
    177 H177        3.5641  -10.6165  -48.1890 H         1 UNK         0.0600 
    178 H178        2.1396  -11.6468  -48.2411 H         1 UNK         0.0600 
    179 H179        0.0302  -10.4531  -47.8146 H         1 UNK         0.3000 
    180 H180       -2.3888   -8.9456  -45.6854 H         1 UNK         0.0600 
    181 H181       -2.0076   -8.8354  -48.7267 H         1 UNK         0.0600 
    182 H182       -2.3058   -7.4601  -47.6739 H         1 UNK         0.0600 
    183 H183       -3.5439   -8.6900  -47.8739 H         1 UNK         0.0600 
    184 H184       -2.3982  -11.0536  -47.6673 H         1 UNK         0.3000 
    185 H185       -1.7678  -13.7167  -45.3892 H         1 UNK         0.0600 
    186 H186       -4.1916  -13.2005  -45.0205 H         1 UNK         0.0600 
    187 H187       -4.3978  -12.9166  -46.7449 H         1 UNK         0.0600 
    188 H188       -3.9691  -14.5224  -46.1526 H         1 UNK         0.0600 
    189 H189       -2.5236  -13.5123  -48.1835 H         1 UNK         0.3000 
    190 H190       -0.8895  -23.3124  -45.0692 H         1 UNK         0.3000 
    191 H191       -2.0270  -23.0589  -47.5785 H         1 UNK         0.0600 
    192 H192       -2.7504  -21.8415  -45.4908 H         1 UNK         0.0600 
    193 H193       -4.1150  -22.5571  -46.3294 H         1 UNK         0.0600 
    194 H194       -3.4790  -23.3280  -44.8903 H         1 UNK         0.0600 
    195 H195       -2.0672  -25.9087  -45.5459 H         1 UNK         0.3000 
    196 H196       -4.2399  -27.2995  -46.8493 H         1 UNK         0.0600 
    197 H197       -3.3921  -29.2184  -45.4967 H         1 UNK         0.0600 
    198 H198       -3.5397  -27.7741  -44.5072 H         1 UNK         0.0600 
    199 H199       -1.9527  -28.3007  -45.0673 H         1 UNK         0.0600 
    200 H200       -0.9733  -26.6672  -47.8088 H         1 UNK         0.3000 
    201 H201       -0.7817  -29.0705  -49.5518 H         1 UNK         0.0600 
    202 H202        1.5988  -28.5587  -49.6336 H         1 UNK         0.0600 
    203 H203        1.3637  -27.0015  -48.8431 H         1 UNK         0.0600 
    204 H204        1.1124  -28.4991  -47.9538 H         1 UNK         0.0600 
    205 H205        1.0685  -27.6804  -51.3128 H         1 UNK         0.3000 
    206 H206       -0.6685  -27.0024  -53.4051 H         1 UNK         0.0600 
    207 H207        1.5948  -27.9634  -53.7195 H         1 UNK         0.0600 
    208 H208        1.4556  -26.4585  -54.6120 H         1 UNK         0.0600 
    209 H209        2.3381  -26.4919  -53.0903 H         1 UNK         0.0600 
    210 H210        0.4175  -24.9301  -50.8828 H         1 UNK         0.3000 
    211 H211        0.3946  -22.3923  -52.1594 H         1 UNK         0.0600 
    212 H212       -0.2491  -23.1412  -49.2629 H         1 UNK         0.0600 
    213 H213        0.1429  -21.5345  -49.8521 H         1 UNK         0.0600 
    214 H214        1.3594  -22.7995  -49.9074 H         1 UNK         0.0600 
    215 H215       -2.2414  -24.5280  -51.3584 H         1 UNK         0.3000 
    216 H216       -4.4145  -22.7407  -51.1955 H         1 UNK         0.0600 
    217 H217       -5.7468  -24.7659  -51.7989 H         1 UNK         0.0600 
    218 H218       -4.5182  -25.1567  -50.6081 H         1 UNK         0.0600 
    219 H219       -4.2768  -25.5998  -52.2961 H         1 UNK         0.0600 
    220 H220       -2.3945  -23.2600  -53.9164 H         1 UNK         0.3000 
    221 H221       -4.2934  -22.5803  -56.0042 H         1 UNK         0.0600 
    222 H222       -1.2314  -22.4578  -55.9041 H         1 UNK         0.0600 
    223 H223       -2.1905  -23.8185  -56.4831 H         1 UNK         0.0600 
    224 H224       -2.2154  -22.2926  -57.3545 H         1 UNK         0.0600 
    225 H225       -2.5691  -20.7327  -53.5434 H         1 UNK         0.3000 
    226 H226       -2.6392  -18.1864  -54.9918 H         1 UNK         0.0600 
    227 H227       -1.7044  -17.2923  -52.8898 H         1 UNK         0.0600 
    228 H228       -2.0276  -18.8003  -52.0472 H         1 UNK         0.0600 
    229 H229       -0.8209  -18.7458  -53.3301 H         1 UNK         0.0600 
    230 H230       -4.0371  -16.4691  -54.5189 H         1 UNK         0.3000 
    231 H231       -6.7189  -17.0591  -54.0051 H         1 UNK         0.0600 
    232 H232       -5.2662  -14.3588  -53.9735 H         1 UNK         0.0600 
    233 H233       -7.0052  -14.5751  -54.1307 H         1 UNK         0.0600 
    234 H234       -5.9377  -15.1603  -55.3949 H         1 UNK         0.0600 
    235 H235       -4.2752  -16.4393  -51.6666 H         1 UNK         0.3000 
    236 H236       -5.9084  -15.3880  -49.5347 H         1 UNK         0.0600 
    237 H237       -3.4910  -14.9724  -49.6103 H         1 UNK         0.0600 
    238 H238       -3.8513  -15.9099  -48.1678 H         1 UNK         0.0600 
    239 H239       -3.1450  -16.7001  -49.5709 H         1 UNK         0.0600 
    240 H240       -5.4240  -18.6615  -50.7588 H         1 UNK         0.3000 
    241 H241       -7.2365  -19.6919  -48.7572 H         1 UNK         0.0600 
    242 H242       -6.0588  -19.9718  -52.0015 H         1 UNK         0.3800 
    243 H243       -6.8997  -21.4599  -52.2938 H         1 UNK         0.3800 
    244 H244       -5.7264  -21.5246  -47.9120 H         1 UNK         0.0800 
    245 H245       -5.3463  -19.9359  -47.3477 H         1 UNK         0.0800 
    246 H246       -3.1908  -18.5860  -47.9497 H         1 UNK         0.0800 
    247 H247       -2.9803  -19.8100  -46.7288 H         1 UNK         0.0800 
@<TRIPOS>BOND
     1    1    2 1    
     2    1  127 1    
     3    1  128 1    
     4    1  129 1    
     5    2    3 2    
     6    2    4 am   BACKBONE|DICT|INTERRES
     7    4    5 1    
     8    4  130 1    
     9    5    6 1    
    10    5   65 1    
    11    5  131 1    
    12    6    7 1    
    13    6  132 1    
    14    6  133 1    
    15    7    8 1    
    16    8    9 1    
    17    8  134 1    
    18    8  135 1    
    19    9   10 ar   
    20    9   14 ar   
    21   10   11 ar   
    22   10  136 1    
    23   11   12 ar   
    24   11  126 1    
    25   12   13 ar   
    26   12  137 1    
    27   13   14 ar   
    28   13   15 1    
    29   14  138 1    
    30   15   16 1    
    31   15  139 1    
    32   15  140 1    
    33   16   17 1    
    34   17   18 1    
    35   17  141 1    
    36   17  142 1    
    37   18   19 1    
    38   18   67 1    
    39   18  143 1    
    40   19   20 am   BACKBONE|DICT|INTERRES
    41   19  144 1    
    42   20   21 2    
    43   20   22 1    
    44   22   23 1    
    45   22   24 1    
    46   22  145 1    
    47   23  146 1    
    48   23  147 1    
    49   23  148 1    
    50   24   25 am   BACKBONE|DICT|INTERRES
    51   24  149 1    
    52   25   26 2    
    53   25   27 1    
    54   27   28 1    
    55   27   29 1    
    56   27  150 1    
    57   28  151 1    
    58   28  152 1    
    59   28  153 1    
    60   29   30 am   BACKBONE|DICT|INTERRES
    61   29  154 1    
    62   30   31 2    
    63   30   32 1    
    64   32   33 1    
    65   32   34 1    
    66   32  155 1    
    67   33  156 1    
    68   33  157 1    
    69   33  158 1    
    70   34   35 am   BACKBONE|DICT|INTERRES
    71   34  159 1    
    72   35   36 2    
    73   35   37 1    
    74   37   38 1    
    75   37   39 1    
    76   37  160 1    
    77   38  161 1    
    78   38  162 1    
    79   38  163 1    
    80   39   40 am   BACKBONE|DICT|INTERRES
    81   39  164 1    
    82   40   41 2    
    83   40   42 1    
    84   42   43 1    
    85   42   44 1    
    86   42  165 1    
    87   43  166 1    
    88   43  167 1    
    89   43  168 1    
    90   44   45 am   BACKBONE|DICT|INTERRES
    91   44  169 1    
    92   45   46 2    
    93   45   47 1    
    94   47   48 1    
    95   47   49 1    
    96   47  170 1    
    97   48  171 1    
    98   48  172 1    
    99   48  173 1    
   100   49   50 am   BACKBONE|DICT|INTERRES
   101   49  174 1    
   102   50   51 2    
   103   50   52 1    
   104   52   53 1    
   105   52   54 1    
   106   52  175 1    
   107   53  176 1    
   108   53  177 1    
   109   53  178 1    
   110   54   55 am   BACKBONE|DICT|INTERRES
   111   54  179 1    
   112   55   56 2    
   113   55   57 1    
   114   57   58 1    
   115   57   59 1    
   116   57  180 1    
   117   58  181 1    
   118   58  182 1    
   119   58  183 1    
   120   59   60 am   BACKBONE|DICT|INTERRES
   121   59  184 1    
   122   60   61 2    
   123   60   62 1    
   124   62   63 1    
   125   62   64 1    
   126   62  185 1    
   127   63  186 1    
   128   63  187 1    
   129   63  188 1    
   130   64   65 am   BACKBONE|DICT|INTERRES
   131   64  189 1    
   132   65   66 2    
   133   67   68 2    
   134   67   69 am   BACKBONE|DICT|INTERRES
   135   69   70 1    
   136   69  190 1    
   137   70   71 1    
   138   70   72 1    
   139   70  191 1    
   140   71  192 1    
   141   71  193 1    
   142   71  194 1    
   143   72   73 2    
   144   72   74 am   BACKBONE|DICT|INTERRES
   145   74   75 1    
   146   74  195 1    
   147   75   76 1    
   148   75   77 1    
   149   75  196 1    
   150   76  197 1    
   151   76  198 1    
   152   76  199 1    
   153   77   78 2    
   154   77   79 am   BACKBONE|DICT|INTERRES
   155   79   80 1    
   156   79  200 1    
   157   80   81 1    
   158   80   82 1    
   159   80  201 1    
   160   81  202 1    
   161   81  203 1    
   162   81  204 1    
   163   82   83 2    
   164   82   84 am   BACKBONE|DICT|INTERRES
   165   84   85 1    
   166   84  205 1    
   167   85   86 1    
   168   85   87 1    
   169   85  206 1    
   170   86  207 1    
   171   86  208 1    
   172   86  209 1    
   173   87   88 2    
   174   87   89 am   BACKBONE|DICT|INTERRES
   175   89   90 1    
   176   89  210 1    
   177   90   91 1    
   178   90   92 1    
   179   90  211 1    
   180   91  212 1    
   181   91  213 1    
   182   91  214 1    
   183   92   93 2    
   184   92   94 am   BACKBONE|DICT|INTERRES
   185   94   95 1    
   186   94  215 1    
   187   95   96 1    
   188   95   97 1    
   189   95  216 1    
   190   96  217 1    
   191   96  218 1    
   192   96  219 1    
   193   97   98 2    
   194   97   99 am   BACKBONE|DICT|INTERRES
   195   99  100 1    
   196   99  220 1    
   197  100  101 1    
   198  100  102 1    
   199  100  221 1    
   200  101  222 1    
   201  101  223 1    
   202  101  224 1    
   203  102  103 2    
   204  102  104 am   BACKBONE|DICT|INTERRES
   205  104  105 1    
   206  104  225 1    
   207  105  106 1    
   208  105  107 1    
   209  105  226 1    
   210  106  227 1    
   211  106  228 1    
   212  106  229 1    
   213  107  108 2    
   214  107  109 am   BACKBONE|DICT|INTERRES
   215  109  110 1    
   216  109  230 1    
   217  110  111 1    
   218  110  112 1    
   219  110  231 1    
   220  111  232 1    
   221  111  233 1    
   222  111  234 1    
   223  112  113 2    
   224  112  114 am   BACKBONE|DICT|INTERRES
   225  114  115 1    
   226  114  235 1    
   227  115  116 1    
   228  115  117 1    
   229  115  236 1    
   230  116  237 1    
   231  116  238 1    
   232  116  239 1    
   233  117  118 2    
   234  117  119 am   BACKBONE|DICT|INTERRES
   235  119  120 1    
   236  119  240 1    
   237  120  121 1    
   238  120  124 1    
   239  120  241 1    
   240  121  122 am   BACKBONE|DICT|INTERRES
   241  121  123 2    
   242  122  242 1    
   243  122  243 1    
   244  124  125 1    
   245  124  244 1    
   246  124  245 1    
   247  125  126 1    
   248  126  246 1    
   249  126  247 1    
@<TRIPOS>SUBSTRUCTURE
     1 UNK         1 GROUP             0       ****    0 ROOT    
