@<TRIPOS>MOLECULE
3R540
247   249    1
SMALL
USER_CHARGES


@<TRIPOS>ATOM
      1 CA          0.7994  -12.3069  -45.9500 C.3       0 UNK        -0.1800 
      2 C           1.8853  -11.7130  -46.8339 C.2       0 UNK         0.5000 
      3 O           1.8738  -10.5115  -47.1010 O.2       0 UNK        -0.5000 
      4 N           2.8493  -12.5387  -47.2609 N.am      1 UNK        -0.5000 
      5 CA          3.9747  -12.1747  -48.1379 C.3       1 UNK         0.1400 
      6 C6          4.5004  -13.3925  -48.9478 C.3       23 UNK        -0.0398 
      7 S7          3.2077  -14.2943  -49.8740 S.3       23 UNK        -0.2404 
      8 C8          2.9911  -15.7299  -48.7757 C.3       23 UNK        -0.0205 
      9 C9          2.0035  -16.7546  -49.3118 C.ar      23 UNK        -0.0193 
     10 C10         0.6530  -16.4270  -49.4713 C.ar      23 UNK        -0.1150 
     11 C11        -0.2747  -17.4044  -49.8439 C.ar      23 UNK        -0.0193 
     12 C12         0.1574  -18.7198  -50.0343 C.ar      23 UNK        -0.1150 
     13 C13         1.5097  -19.0502  -49.9308 C.ar      23 UNK        -0.0193 
     14 C14         2.4298  -18.0593  -49.5769 C.ar      23 UNK        -0.1150 
     15 C15         1.9583  -20.4863  -50.1775 C.3       23 UNK        -0.0205 
     16 S16         2.9457  -21.1873  -48.8112 S.3       23 UNK        -0.2404 
     17 C17         1.9143  -20.8194  -47.3505 C.3       23 UNK        -0.0398 
     18 CA          1.0683  -22.0097  -46.8533 C.3       11 UNK         0.1400 
     19 N           0.5585  -21.7513  -45.5076 N.am      11 UNK        -0.5000 
     20 C          -0.0426  -22.6533  -44.7229 C.2       10 UNK         0.5000 
     21 O          -0.1999  -23.8343  -45.0329 O.2       10 UNK        -0.5000 
     22 CA         -0.5996  -22.1305  -43.3860 C.3       10 UNK         0.1400 
     23 CB          0.5177  -22.0075  -42.3395 C.3       10 UNK        -0.1800 
     24 N          -1.2828  -20.8424  -43.5287 N.am      10 UNK        -0.5000 
     25 C          -2.3955  -20.6577  -44.2543 C.2       9 UNK         0.5000 
     26 O          -2.9823  -21.5635  -44.8459 O.2       9 UNK        -0.5000 
     27 CA         -2.9194  -19.2163  -44.3774 C.3       9 UNK         0.1400 
     28 CB         -3.6760  -18.8001  -43.1073 C.3       9 UNK        -0.1800 
     29 N          -1.8590  -18.2489  -44.6607 N.am      9 UNK        -0.5000 
     30 C          -1.1031  -18.2478  -45.7674 C.2       8 UNK         0.5000 
     31 O          -1.2373  -19.0518  -46.6871 O.2       8 UNK        -0.5000 
     32 CA          0.0292  -17.2094  -45.8390 C.3       8 UNK         0.1400 
     33 CB         -0.5081  -15.8322  -46.2510 C.3       8 UNK        -0.1800 
     34 N           0.7721  -17.0984  -44.5837 N.am      8 UNK        -0.5000 
     35 C           1.4741  -18.0986  -44.0314 C.2       7 UNK         0.5000 
     36 O           1.6061  -19.2104  -44.5417 O.2       7 UNK        -0.5000 
     37 CA          2.0845  -17.8248  -42.6491 C.3       7 UNK         0.1400 
     38 CB          3.3847  -17.0193  -42.7772 C.3       7 UNK        -0.1800 
     39 N           1.1458  -17.1202  -41.7767 N.am      7 UNK        -0.5000 
     40 C           0.0332  -17.6742  -41.2723 C.2       6 UNK         0.5000 
     41 O          -0.2982  -18.8440  -41.4684 O.2       6 UNK        -0.5000 
     42 CA         -0.8851  -16.7550  -40.4456 C.3       6 UNK         0.1400 
     43 CB         -0.3973  -16.6671  -38.9919 C.3       6 UNK        -0.1800 
     44 N          -0.9929  -15.4056  -41.0027 N.am      6 UNK        -0.5000 
     45 C          -1.5161  -15.1182  -42.2027 C.2       5 UNK         0.5000 
     46 O          -1.9915  -15.9636  -42.9585 O.2       5 UNK        -0.5000 
     47 CA         -1.4735  -13.6473  -42.6548 C.3       5 UNK         0.1400 
     48 CB         -2.7916  -12.9410  -42.3055 C.3       5 UNK        -0.1800 
     49 N          -0.3543  -12.8797  -42.1016 N.am      5 UNK        -0.5000 
     50 C           0.9410  -13.1396  -42.3220 C.2       4 UNK         0.5000 
     51 O           1.3379  -14.1154  -42.9648 O.2       4 UNK        -0.5000 
     52 CA          1.9290  -12.1161  -41.7292 C.3       4 UNK         0.1400 
     53 CB          2.0153  -12.2335  -40.1933 C.3       4 UNK        -0.1800 
     54 N           3.2507  -12.1649  -42.3658 N.am      4 UNK        -0.5000 
     55 C           4.2172  -13.0873  -42.2346 C.2       3 UNK         0.5000 
     56 O           4.1866  -14.0114  -41.4216 O.2       3 UNK        -0.5000 
     57 CA          5.4292  -12.9606  -43.1814 C.3       3 UNK         0.1400 
     58 CB          5.6958  -14.2890  -43.9119 C.3       3 UNK        -0.1800 
     59 N           5.2350  -11.9190  -44.1941 N.am      3 UNK        -0.5000 
     60 C           5.9002  -10.7591  -44.2807 C.2       2 UNK         0.5000 
     61 O           6.7499  -10.4004  -43.4643 O.2       2 UNK        -0.5000 
     62 CA          5.5344   -9.8333  -45.4670 C.3       2 UNK         0.1400 
     63 CB          6.7669   -9.1244  -46.0660 C.3       2 UNK        -0.1800 
     64 N           4.7370  -10.4972  -46.5106 N.am      2 UNK        -0.5000 
     65 C           5.1057  -11.5019  -47.3204 C.2       1 UNK         0.5000 
     66 O           6.2546  -11.9431  -47.3739 O.2       1 UNK        -0.5000 
     67 C          -0.0668  -22.3799  -47.8325 C.2       11 UNK         0.5000 
     68 O           0.0653  -23.3609  -48.5631 O.2       11 UNK        -0.5000 
     69 N          -1.1809  -21.6335  -47.7982 N.am      12 UNK        -0.5000 
     70 CA         -2.3851  -21.9101  -48.5825 C.3       12 UNK         0.1400 
     71 CB         -3.4014  -20.7738  -48.4089 C.3       12 UNK        -0.1800 
     72 C          -3.0280  -23.2602  -48.2269 C.2       12 UNK         0.5000 
     73 O          -3.4408  -23.9822  -49.1323 O.2       12 UNK        -0.5000 
     74 N          -3.0699  -23.5974  -46.9301 N.am      13 UNK        -0.5000 
     75 CA         -3.5413  -24.8889  -46.4293 C.3       13 UNK         0.1400 
     76 CB         -3.6409  -24.8535  -44.8971 C.3       13 UNK        -0.1800 
     77 C          -2.6605  -26.0598  -46.9021 C.2       13 UNK         0.5000 
     78 O          -3.1971  -27.0776  -47.3396 O.2       13 UNK        -0.5000 
     79 N          -1.3321  -25.8779  -46.8639 N.am      14 UNK        -0.5000 
     80 CA         -0.3468  -26.8313  -47.3835 C.3       14 UNK         0.1400 
     81 CB          1.0648  -26.3897  -46.9683 C.3       14 UNK        -0.1800 
     82 C          -0.4388  -27.0197  -48.9117 C.2       14 UNK         0.5000 
     83 O          -0.2751  -28.1390  -49.3980 O.2       14 UNK        -0.5000 
     84 N          -0.7426  -25.9331  -49.6341 N.am      15 UNK        -0.5000 
     85 CA         -1.0066  -25.9148  -51.0753 C.3       15 UNK         0.1400 
     86 CB         -0.8280  -24.4768  -51.5900 C.3       15 UNK        -0.1800 
     87 C          -2.4011  -26.4570  -51.4609 C.2       15 UNK         0.5000 
     88 O          -2.6782  -26.5931  -52.6533 O.2       15 UNK        -0.5000 
     89 N          -3.2521  -26.7412  -50.4628 N.am      16 UNK        -0.5000 
     90 CA         -4.6385  -27.2066  -50.5671 C.3       16 UNK         0.1400 
     91 CB         -4.7057  -28.6084  -51.2085 C.3       16 UNK        -0.1800 
     92 C          -5.5723  -26.1803  -51.2438 C.2       16 UNK         0.5000 
     93 O          -6.4819  -26.5643  -51.9805 O.2       16 UNK        -0.5000 
     94 N          -5.3215  -24.8886  -50.9836 N.am      17 UNK        -0.5000 
     95 CA         -6.0513  -23.6811  -51.3959 C.3       17 UNK         0.1400 
     96 CB         -7.4810  -23.6912  -50.8261 C.3       17 UNK        -0.1800 
     97 C          -6.0676  -23.3734  -52.9077 C.2       17 UNK         0.5000 
     98 O          -6.1760  -22.1987  -53.2719 O.2       17 UNK        -0.5000 
     99 N          -5.9474  -24.4013  -53.7570 N.am      18 UNK        -0.5000 
    100 CA        -6.0439  -24.3720  -55.2176 C.3       18 UNK         0.1400 
    101 CB        -4.8708  -23.5752  -55.8342 C.3       18 UNK        -0.1800 
    102 C         -7.4451  -23.8923  -55.6477 C.2       18 UNK         0.5000 
    103 O         -8.4359  -24.5141  -55.2617 O.2       18 UNK        -0.5000 
    104 N         -7.5192  -22.7791  -56.3859 N.am      19 UNK        -0.5000 
    105 CA        -8.7576  -22.1077  -56.7914 C.3       19 UNK         0.1400 
    106 CB        -8.5164  -21.4296  -58.1524 C.3       19 UNK        -0.1800 
    107 C         -9.2598  -21.1065  -55.7242 C.2       19 UNK         0.5000 
    108 O         -9.8849  -20.1059  -56.0787 O.2       19 UNK        -0.5000 
    109 N         -8.9490  -21.3741  -54.4452 N.am      20 UNK        -0.5000 
    110 CA        -9.1177  -20.4997  -53.2780 C.3       20 UNK         0.1400 
    111 CB       -10.6084  -20.2356  -52.9808 C.3       20 UNK        -0.1800 
    112 C         -8.2767  -19.2160  -53.4251 C.2       20 UNK         0.5000 
    113 O         -8.7780  -18.1077  -53.2252 O.2       20 UNK        -0.5000 
    114 N         -7.0128  -19.4031  -53.8223 N.am      21 UNK        -0.5000 
    115 CA        -6.0979  -18.3452  -54.2329 C.3       21 UNK         0.1400 
    116 CB        -6.4041  -17.9308  -55.6872 C.3       21 UNK        -0.1800 
    117 C         -4.6498  -18.8141  -54.0326 C.2       21 UNK         0.5000 
    118 O         -3.9131  -18.9802  -55.0060 O.2       21 UNK        -0.5000 
    119 N         -4.2763  -19.0307  -52.7645 N.am      22 UNK        -0.5000 
    120 CA        -2.9105  -19.3618  -52.3105 C.3       22 UNK         0.1400 
    121 C         -2.3820  -20.7698  -52.7250 C.2       22 UNK         0.5000 
    122 N         -3.2147  -21.6814  -53.2072 N.am      22 UNK        -0.7600 
    123 O         -1.2009  -21.0620  -52.5652 O.2       22 UNK        -0.5000 
    124 C124       -1.8837  -18.2291  -52.6189 C.3       23 UNK        -0.0398 
    125 S125       -2.2206  -16.6695  -51.7254 S.3       23 UNK        -0.2404 
    126 C126       -1.7483  -17.0541  -50.0027 C.3       23 UNK        -0.0205 
    127 H127        1.1285  -13.2388  -45.4924 H         1 UNK         0.0600 
    128 H128       -0.0980  -12.5053  -46.5357 H         1 UNK         0.0600 
    129 H129        0.5401  -11.6143  -45.1493 H         1 UNK         0.0600 
    130 H130        2.8118  -13.5101  -46.9927 H         1 UNK         0.3000 
    131 H131        3.6235  -11.4335  -48.8590 H         1 UNK         0.0600 
    132 H132        5.2444  -13.0588  -49.6732 H         1 UNK         0.0800 
    133 H133        5.0221  -14.0930  -48.2931 H         1 UNK         0.0800 
    134 H134        3.9631  -16.1972  -48.6095 H         1 UNK         0.0800 
    135 H135        2.6425  -15.3933  -47.7992 H         1 UNK         0.0800 
    136 H136        0.3228  -15.4152  -49.2821 H         1 UNK         0.1150 
    137 H137       -0.5608  -19.4881  -50.2828 H         1 UNK         0.1150 
    138 H138        3.4731  -18.3192  -49.4656 H         1 UNK         0.1150 
    139 H139        1.0982  -21.1347  -50.3545 H         1 UNK         0.0800 
    140 H140        2.5525  -20.5153  -51.0914 H         1 UNK         0.0800 
    141 H141        1.2878  -19.9420  -47.5081 H         1 UNK         0.0800 
    142 H142        2.6161  -20.5304  -46.5676 H         1 UNK         0.0800 
    143 H143        1.7262  -22.8781  -46.7778 H         1 UNK         0.0600 
    144 H144        0.6834  -20.8064  -45.1553 H         1 UNK         0.3000 
    145 H145       -1.3279  -22.8583  -43.0227 H         1 UNK         0.0600 
    146 H146        0.1161  -21.7187  -41.3680 H         1 UNK         0.0600 
    147 H147        1.0370  -22.9576  -42.2081 H         1 UNK         0.0600 
    148 H148        1.2602  -21.2626  -42.6275 H         1 UNK         0.0600 
    149 H149       -0.8748  -20.0520  -43.0404 H         1 UNK         0.3000 
    150 H150       -3.6216  -19.1905  -45.2131 H         1 UNK         0.0600 
    151 H151       -4.4782  -19.5038  -42.8814 H         1 UNK         0.0600 
    152 H152       -4.1301  -17.8161  -43.2249 H         1 UNK         0.0600 
    153 H153       -3.0169  -18.7618  -42.2396 H         1 UNK         0.0600 
    154 H154       -1.7226  -17.5125  -43.9726 H         1 UNK         0.3000 
    155 H155        0.7256  -17.5439  -46.6107 H         1 UNK         0.0600 
    156 H156       -1.1561  -15.9087  -47.1238 H         1 UNK         0.0600 
    157 H157       -1.0890  -15.3661  -45.4561 H         1 UNK         0.0600 
    158 H158        0.3086  -15.1629  -46.5153 H         1 UNK         0.0600 
    159 H159        0.7112  -16.2204  -44.0855 H         1 UNK         0.3000 
    160 H160        2.3242  -18.7864  -42.1903 H         1 UNK         0.0600 
    161 H161        3.2106  -16.0431  -43.2298 H         1 UNK         0.0600 
    162 H162        4.1104  -17.5443  -43.3995 H         1 UNK         0.0600 
    163 H163        3.8470  -16.8576  -41.8034 H         1 UNK         0.0600 
    164 H164        1.3203  -16.1362  -41.6231 H         1 UNK         0.3000 
    165 H165       -1.8832  -17.1982  -40.4451 H         1 UNK         0.0600 
    166 H166       -1.0875  -16.0876  -38.3786 H         1 UNK         0.0600 
    167 H167       -0.3220  -17.6595  -38.5453 H         1 UNK         0.0600 
    168 H168        0.5864  -16.2006  -38.9237 H         1 UNK         0.0600 
    169 H169       -0.6214  -14.6491  -40.4479 H         1 UNK         0.3000 
    170 H170       -1.3662  -13.6452  -43.7412 H         1 UNK         0.0600 
    171 H171       -2.9417  -12.8791  -41.2270 H         1 UNK         0.0600 
    172 H172       -2.8157  -11.9281  -42.7079 H         1 UNK         0.0600 
    173 H173       -3.6447  -13.4757  -42.7257 H         1 UNK         0.0600 
    174 H174       -0.6018  -12.0640  -41.5600 H         1 UNK         0.3000 
    175 H175        1.5362  -11.1252  -41.9626 H         1 UNK         0.0600 
    176 H176        2.7650  -11.5549  -39.7863 H         1 UNK         0.0600 
    177 H177        2.2663  -13.2445  -39.8716 H         1 UNK         0.0600 
    178 H178        1.0630  -11.9776  -39.7279 H         1 UNK         0.0600 
    179 H179        3.4097  -11.4518  -43.0615 H         1 UNK         0.3000 
    180 H180        6.2969  -12.7316  -42.5599 H         1 UNK         0.0600 
    181 H181        4.8441  -14.5895  -44.5234 H         1 UNK         0.0600 
    182 H182        5.8956  -15.0958  -43.2056 H         1 UNK         0.0600 
    183 H183        6.5647  -14.2101  -44.5655 H         1 UNK         0.0600 
    184 H184        4.5634  -12.1254  -44.9182 H         1 UNK         0.3000 
    185 H185        4.8878   -9.0605  -45.0492 H         1 UNK         0.0600 
    186 H186        7.2504   -8.4886  -45.3234 H         1 UNK         0.0600 
    187 H187        7.5149   -9.8344  -46.4192 H         1 UNK         0.0600 
    188 H188        6.4867   -8.4859  -46.9037 H         1 UNK         0.0600 
    189 H189        3.7606  -10.2189  -46.5596 H         1 UNK         0.3000 
    190 H190       -1.2068  -20.8034  -47.2091 H         1 UNK         0.3000 
    191 H191       -2.0922  -21.9446  -49.6337 H         1 UNK         0.0600 
    192 H192       -2.9715  -19.8172  -48.6963 H         1 UNK         0.0600 
    193 H193       -4.2820  -20.9375  -49.0313 H         1 UNK         0.0600 
    194 H194       -3.7380  -20.6880  -47.3754 H         1 UNK         0.0600 
    195 H195       -2.7690  -22.9196  -46.2355 H         1 UNK         0.3000 
    196 H196       -4.5454  -25.0502  -46.8270 H         1 UNK         0.0600 
    197 H197       -4.0148  -25.8015  -44.5085 H         1 UNK         0.0600 
    198 H198       -4.3261  -24.0731  -44.5657 H         1 UNK         0.0600 
    199 H199       -2.6734  -24.6669  -44.4318 H         1 UNK         0.0600 
    200 H200       -0.9673  -25.0257  -46.4490 H         1 UNK         0.3000 
    201 H201       -0.5470  -27.7996  -46.9201 H         1 UNK         0.0600 
    202 H202        1.1520  -26.3177  -45.8840 H         1 UNK         0.0600 
    203 H203        1.3249  -25.4184  -47.3888 H         1 UNK         0.0600 
    204 H204        1.8135  -27.1058  -47.3089 H         1 UNK         0.0600 
    205 H205       -0.7764  -25.0347  -49.1605 H         1 UNK         0.3000 
    206 H206       -0.2654  -26.5462  -51.5691 H         1 UNK         0.0600 
    207 H207        0.1632  -24.0900  -51.3522 H         1 UNK         0.0600 
    208 H208       -0.9424  -24.4282  -52.6734 H         1 UNK         0.0600 
    209 H209       -1.5625  -23.7996  -51.1543 H         1 UNK         0.0600 
    210 H210       -2.9303  -26.5725  -49.5182 H         1 UNK         0.3000 
    211 H211       -4.9979  -27.3018  -49.5417 H         1 UNK         0.0600 
    212 H212       -4.4272  -28.5878  -52.2624 H         1 UNK         0.0600 
    213 H213       -5.7144  -29.0181  -51.1463 H         1 UNK         0.0600 
    214 H214       -4.0415  -29.3064  -50.6989 H         1 UNK         0.0600 
    215 H215       -4.5301  -24.6929  -50.3707 H         1 UNK         0.3000 
    216 H216       -5.5183  -22.8523  -50.9274 H         1 UNK         0.0600 
    217 H217       -7.9774  -22.7367  -50.9979 H         1 UNK         0.0600 
    218 H218       -7.4744  -23.8607  -49.7494 H         1 UNK         0.0600 
    219 H219       -8.0957  -24.4663  -51.2849 H         1 UNK         0.0600 
    220 H220       -5.9539  -25.3260  -53.3372 H         1 UNK         0.3000 
    221 H221       -5.9558  -25.4058  -55.5544 H         1 UNK         0.0600 
    222 H222       -4.8908  -22.5190  -55.5643 H         1 UNK         0.0600 
    223 H223       -3.9141  -23.9792  -55.5032 H         1 UNK         0.0600 
    224 H224       -4.8833  -23.6399  -56.9228 H         1 UNK         0.0600 
    225 H225       -6.6585  -22.3101  -56.6288 H         1 UNK         0.3000 
    226 H226       -9.5454  -22.8517  -56.9257 H         1 UNK         0.0600 
    227 H227       -8.1652  -22.1474  -58.8940 H         1 UNK         0.0600 
    228 H228       -9.4349  -20.9896  -58.5428 H         1 UNK         0.0600 
    229 H229       -7.7749  -20.6331  -58.0780 H         1 UNK         0.0600 
    230 H230       -8.4150  -22.2149  -54.2745 H         1 UNK         0.3000 
    231 H231       -8.7048  -21.0374  -52.4250 H         1 UNK         0.0600 
    232 H232      -11.0839  -19.6428  -53.7624 H         1 UNK         0.0600 
    233 H233      -10.7259  -19.6906  -52.0435 H         1 UNK         0.0600 
    234 H234      -11.1618  -21.1697  -52.8844 H         1 UNK         0.0600 
    235 H235       -6.6630  -20.3547  -53.8899 H         1 UNK         0.3000 
    236 H236       -6.2386  -17.4729  -53.5910 H         1 UNK         0.0600 
    237 H237       -5.7166  -17.1554  -56.0270 H         1 UNK         0.0600 
    238 H238       -6.3162  -18.7756  -56.3716 H         1 UNK         0.0600 
    239 H239       -7.4138  -17.5310  -55.7816 H         1 UNK         0.0600 
    240 H240       -4.9631  -18.9052  -52.0350 H         1 UNK         0.3000 
    241 H241       -2.9891  -19.4411  -51.2273 H         1 UNK         0.0600 
    242 H242       -4.1978  -21.4827  -53.3313 H         1 UNK         0.3800 
    243 H243       -2.8467  -22.5808  -53.4676 H         1 UNK         0.3800 
    244 H244       -0.8600  -18.5322  -52.4100 H         1 UNK         0.0800 
    245 H245       -1.8791  -18.0057  -53.6857 H         1 UNK         0.0800 
    246 H246       -1.9877  -16.1870  -49.3861 H         1 UNK         0.0800 
    247 H247       -2.3691  -17.8621  -49.6211 H         1 UNK         0.0800 
@<TRIPOS>BOND
     1    1    2 1    
     2    1  127 1    
     3    1  128 1    
     4    1  129 1    
     5    2    3 2    
     6    2    4 am   BACKBONE|DICT|INTERRES
     7    4    5 1    
     8    4  130 1    
     9    5    6 1    
    10    5   65 1    
    11    5  131 1    
    12    6    7 1    
    13    6  132 1    
    14    6  133 1    
    15    7    8 1    
    16    8    9 1    
    17    8  134 1    
    18    8  135 1    
    19    9   10 ar   
    20    9   14 ar   
    21   10   11 ar   
    22   10  136 1    
    23   11   12 ar   
    24   11  126 1    
    25   12   13 ar   
    26   12  137 1    
    27   13   14 ar   
    28   13   15 1    
    29   14  138 1    
    30   15   16 1    
    31   15  139 1    
    32   15  140 1    
    33   16   17 1    
    34   17   18 1    
    35   17  141 1    
    36   17  142 1    
    37   18   19 1    
    38   18   67 1    
    39   18  143 1    
    40   19   20 am   BACKBONE|DICT|INTERRES
    41   19  144 1    
    42   20   21 2    
    43   20   22 1    
    44   22   23 1    
    45   22   24 1    
    46   22  145 1    
    47   23  146 1    
    48   23  147 1    
    49   23  148 1    
    50   24   25 am   BACKBONE|DICT|INTERRES
    51   24  149 1    
    52   25   26 2    
    53   25   27 1    
    54   27   28 1    
    55   27   29 1    
    56   27  150 1    
    57   28  151 1    
    58   28  152 1    
    59   28  153 1    
    60   29   30 am   BACKBONE|DICT|INTERRES
    61   29  154 1    
    62   30   31 2    
    63   30   32 1    
    64   32   33 1    
    65   32   34 1    
    66   32  155 1    
    67   33  156 1    
    68   33  157 1    
    69   33  158 1    
    70   34   35 am   BACKBONE|DICT|INTERRES
    71   34  159 1    
    72   35   36 2    
    73   35   37 1    
    74   37   38 1    
    75   37   39 1    
    76   37  160 1    
    77   38  161 1    
    78   38  162 1    
    79   38  163 1    
    80   39   40 am   BACKBONE|DICT|INTERRES
    81   39  164 1    
    82   40   41 2    
    83   40   42 1    
    84   42   43 1    
    85   42   44 1    
    86   42  165 1    
    87   43  166 1    
    88   43  167 1    
    89   43  168 1    
    90   44   45 am   BACKBONE|DICT|INTERRES
    91   44  169 1    
    92   45   46 2    
    93   45   47 1    
    94   47   48 1    
    95   47   49 1    
    96   47  170 1    
    97   48  171 1    
    98   48  172 1    
    99   48  173 1    
   100   49   50 am   BACKBONE|DICT|INTERRES
   101   49  174 1    
   102   50   51 2    
   103   50   52 1    
   104   52   53 1    
   105   52   54 1    
   106   52  175 1    
   107   53  176 1    
   108   53  177 1    
   109   53  178 1    
   110   54   55 am   BACKBONE|DICT|INTERRES
   111   54  179 1    
   112   55   56 2    
   113   55   57 1    
   114   57   58 1    
   115   57   59 1    
   116   57  180 1    
   117   58  181 1    
   118   58  182 1    
   119   58  183 1    
   120   59   60 am   BACKBONE|DICT|INTERRES
   121   59  184 1    
   122   60   61 2    
   123   60   62 1    
   124   62   63 1    
   125   62   64 1    
   126   62  185 1    
   127   63  186 1    
   128   63  187 1    
   129   63  188 1    
   130   64   65 am   BACKBONE|DICT|INTERRES
   131   64  189 1    
   132   65   66 2    
   133   67   68 2    
   134   67   69 am   BACKBONE|DICT|INTERRES
   135   69   70 1    
   136   69  190 1    
   137   70   71 1    
   138   70   72 1    
   139   70  191 1    
   140   71  192 1    
   141   71  193 1    
   142   71  194 1    
   143   72   73 2    
   144   72   74 am   BACKBONE|DICT|INTERRES
   145   74   75 1    
   146   74  195 1    
   147   75   76 1    
   148   75   77 1    
   149   75  196 1    
   150   76  197 1    
   151   76  198 1    
   152   76  199 1    
   153   77   78 2    
   154   77   79 am   BACKBONE|DICT|INTERRES
   155   79   80 1    
   156   79  200 1    
   157   80   81 1    
   158   80   82 1    
   159   80  201 1    
   160   81  202 1    
   161   81  203 1    
   162   81  204 1    
   163   82   83 2    
   164   82   84 am   BACKBONE|DICT|INTERRES
   165   84   85 1    
   166   84  205 1    
   167   85   86 1    
   168   85   87 1    
   169   85  206 1    
   170   86  207 1    
   171   86  208 1    
   172   86  209 1    
   173   87   88 2    
   174   87   89 am   BACKBONE|DICT|INTERRES
   175   89   90 1    
   176   89  210 1    
   177   90   91 1    
   178   90   92 1    
   179   90  211 1    
   180   91  212 1    
   181   91  213 1    
   182   91  214 1    
   183   92   93 2    
   184   92   94 am   BACKBONE|DICT|INTERRES
   185   94   95 1    
   186   94  215 1    
   187   95   96 1    
   188   95   97 1    
   189   95  216 1    
   190   96  217 1    
   191   96  218 1    
   192   96  219 1    
   193   97   98 2    
   194   97   99 am   BACKBONE|DICT|INTERRES
   195   99  100 1    
   196   99  220 1    
   197  100  101 1    
   198  100  102 1    
   199  100  221 1    
   200  101  222 1    
   201  101  223 1    
   202  101  224 1    
   203  102  103 2    
   204  102  104 am   BACKBONE|DICT|INTERRES
   205  104  105 1    
   206  104  225 1    
   207  105  106 1    
   208  105  107 1    
   209  105  226 1    
   210  106  227 1    
   211  106  228 1    
   212  106  229 1    
   213  107  108 2    
   214  107  109 am   BACKBONE|DICT|INTERRES
   215  109  110 1    
   216  109  230 1    
   217  110  111 1    
   218  110  112 1    
   219  110  231 1    
   220  111  232 1    
   221  111  233 1    
   222  111  234 1    
   223  112  113 2    
   224  112  114 am   BACKBONE|DICT|INTERRES
   225  114  115 1    
   226  114  235 1    
   227  115  116 1    
   228  115  117 1    
   229  115  236 1    
   230  116  237 1    
   231  116  238 1    
   232  116  239 1    
   233  117  118 2    
   234  117  119 am   BACKBONE|DICT|INTERRES
   235  119  120 1    
   236  119  240 1    
   237  120  121 1    
   238  120  124 1    
   239  120  241 1    
   240  121  122 am   BACKBONE|DICT|INTERRES
   241  121  123 2    
   242  122  242 1    
   243  122  243 1    
   244  124  125 1    
   245  124  244 1    
   246  124  245 1    
   247  125  126 1    
   248  126  246 1    
   249  126  247 1    
@<TRIPOS>SUBSTRUCTURE
     1 UNK         1 GROUP             0       ****    0 ROOT    
