@<TRIPOS>MOLECULE
3R540
247   249    1
SMALL
USER_CHARGES


@<TRIPOS>ATOM
      1 CA          3.2972  -13.4877  -46.3026 C.3       0 UNK        -0.1800 
      2 C           1.9989  -14.0507  -45.7436 C.2       0 UNK         0.5000 
      3 O           1.9979  -14.6619  -44.6775 O.2       0 UNK        -0.5000 
      4 N           0.8889  -13.8440  -46.4608 N.am      1 UNK        -0.5000 
      5 CA         -0.4584  -14.2526  -46.0404 C.3       1 UNK         0.1400 
      6 C6         -1.3939  -14.4712  -47.2557 C.3       23 UNK        -0.0398 
      7 S7         -1.0589  -16.0528  -48.0994 S.3       23 UNK        -0.2404 
      8 C8         -0.1843  -15.5443  -49.6117 C.3       23 UNK        -0.0205 
      9 C9         -0.3112  -16.6204  -50.6810 C.ar      23 UNK        -0.0193 
     10 C10        -1.1714  -16.4395  -51.7682 C.ar      23 UNK        -0.1150 
     11 C11        -1.3428  -17.4425  -52.7286 C.ar      23 UNK        -0.0193 
     12 C12        -0.6428  -18.6479  -52.5761 C.ar      23 UNK        -0.1150 
     13 C13         0.2255  -18.8400  -51.4987 C.ar      23 UNK        -0.0193 
     14 C14         0.4038  -17.8145  -50.5661 C.ar      23 UNK        -0.1150 
     15 C15         0.9553  -20.1653  -51.3396 C.3       23 UNK        -0.0205 
     16 S16        -0.0703  -21.4017  -50.4782 S.3       23 UNK        -0.2404 
     17 C17         0.0103  -20.7654  -48.7769 C.3       23 UNK        -0.0398 
     18 CA         -0.8890  -21.5272  -47.7780 C.3       11 UNK         0.1400 
     19 N          -0.4272  -21.3305  -46.4038 N.am      11 UNK        -0.5000 
     20 C          -0.8162  -22.0533  -45.3439 C.2       10 UNK         0.5000 
     21 O          -1.5571  -23.0315  -45.4275 O.2       10 UNK        -0.5000 
     22 CA         -0.3302  -21.5852  -43.9539 C.3       10 UNK         0.1400 
     23 CB          0.9441  -22.3403  -43.5506 C.3       10 UNK        -0.1800 
     24 N          -0.0754  -20.1438  -43.8851 N.am      10 UNK        -0.5000 
     25 C          -1.0085  -19.1973  -44.0736 C.2       9 UNK         0.5000 
     26 O          -2.2077  -19.4511  -44.1857 O.2       9 UNK        -0.5000 
     27 CA         -0.5284  -17.7391  -44.2454 C.3       9 UNK         0.1400 
     28 CB         -0.7446  -16.9393  -42.9538 C.3       9 UNK        -0.1800 
     29 N           0.8742  -17.6142  -44.6562 N.am      9 UNK        -0.5000 
     30 C           1.4092  -18.1461  -45.7646 C.2       8 UNK         0.5000 
     31 O           0.7379  -18.7054  -46.6280 O.2       8 UNK        -0.5000 
     32 CA          2.9448  -18.1608  -45.8956 C.3       8 UNK         0.1400 
     33 CB          3.4308  -17.2825  -47.0559 C.3       8 UNK        -0.1800 
     34 N           3.6675  -17.8298  -44.6623 N.am      8 UNK        -0.5000 
     35 C           3.6771  -18.5942  -43.5626 C.2       7 UNK         0.5000 
     36 O           2.9904  -19.6111  -43.4468 O.2       7 UNK        -0.5000 
     37 CA          4.5860  -18.1743  -42.3934 C.3       7 UNK         0.1400 
     38 CB          6.0174  -18.7056  -42.5942 C.3       7 UNK        -0.1800 
     39 N           4.5939  -16.7445  -42.0594 N.am      7 UNK        -0.5000 
     40 C           5.0731  -15.6999  -42.7538 C.2       6 UNK         0.5000 
     41 O           5.4952  -15.7858  -43.9079 O.2       6 UNK        -0.5000 
     42 CA          5.1267  -14.3360  -42.0279 C.3       6 UNK         0.1400 
     43 CB          4.4359  -13.2185  -42.8235 C.3       6 UNK        -0.1800 
     44 N           4.5415  -14.3883  -40.6867 N.am      6 UNK        -0.5000 
     45 C           5.2264  -14.6279  -39.5588 C.2       5 UNK         0.5000 
     46 O           6.4487  -14.7710  -39.5207 O.2       5 UNK        -0.5000 
     47 CA          4.4144  -14.7515  -38.2519 C.3       5 UNK         0.1400 
     48 CB          4.4496  -13.4276  -37.4731 C.3       5 UNK        -0.1800 
     49 N           3.0172  -15.1392  -38.4584 N.am      5 UNK        -0.5000 
     50 C           2.6017  -16.3048  -38.9746 C.2       4 UNK         0.5000 
     51 O           3.3619  -17.2187  -39.2930 O.2       4 UNK        -0.5000 
     52 CA          1.0895  -16.4481  -39.2370 C.3       4 UNK         0.1400 
     53 CB          0.4028  -17.1609  -38.0629 C.3       4 UNK        -0.1800 
     54 N           0.4125  -15.1703  -39.4893 N.am      4 UNK        -0.5000 
     55 C           0.6827  -14.3489  -40.5127 C.2       3 UNK         0.5000 
     56 O           1.5357  -14.5822  -41.3709 O.2       3 UNK        -0.5000 
     57 CA         -0.0711  -13.0155  -40.5318 C.3       3 UNK         0.1400 
     58 CB          0.6273  -12.0018  -39.6038 C.3       3 UNK        -0.1800 
     59 N          -0.1159  -12.4996  -41.8970 N.am      3 UNK        -0.5000 
     60 C          -0.9547  -11.5489  -42.3274 C.2       2 UNK         0.5000 
     61 O          -1.7977  -11.0095  -41.6087 O.2       2 UNK        -0.5000 
     62 CA         -0.8431  -11.1117  -43.8013 C.3       2 UNK         0.1400 
     63 CB          0.1071   -9.9108  -43.9300 C.3       2 UNK        -0.1800 
     64 N          -0.3971  -12.1653  -44.7137 N.am      2 UNK        -0.5000 
     65 C          -1.0814  -13.2798  -45.0106 C.2       1 UNK         0.5000 
     66 O          -2.1721  -13.5541  -44.5091 O.2       1 UNK        -0.5000 
     67 C          -2.3666  -21.1114  -47.9192 C.2       11 UNK         0.5000 
     68 O          -3.1533  -21.8541  -48.5046 O.2       11 UNK        -0.5000 
     69 N          -2.7324  -19.9620  -47.3299 N.am      12 UNK        -0.5000 
     70 CA         -4.1093  -19.4657  -47.2725 C.3       12 UNK         0.1400 
     71 CB         -4.1304  -18.0202  -46.7553 C.3       12 UNK        -0.1800 
     72 C          -5.0261  -20.3699  -46.4304 C.2       12 UNK         0.5000 
     73 O          -6.1701  -20.5991  -46.8216 O.2       12 UNK        -0.5000 
     74 N          -4.4940  -20.9262  -45.3323 N.am      13 UNK        -0.5000 
     75 CA         -5.1605  -21.9395  -44.5074 C.3       13 UNK         0.1400 
     76 CB         -4.3360  -22.1873  -43.2360 C.3       13 UNK        -0.1800 
     77 C          -5.4163  -23.2628  -45.2613 C.2       13 UNK         0.5000 
     78 O          -6.4092  -23.9360  -44.9850 O.2       13 UNK        -0.5000 
     79 N          -4.5461  -23.5851  -46.2284 N.am      14 UNK        -0.5000 
     80 CA         -4.6848  -24.7014  -47.1671 C.3       14 UNK         0.1400 
     81 CB         -3.2821  -25.1863  -47.5722 C.3       14 UNK        -0.1800 
     82 C          -5.5368  -24.3481  -48.4084 C.2       14 UNK         0.5000 
     83 O          -5.6513  -25.1783  -49.3094 O.2       14 UNK        -0.5000 
     84 N          -6.1184  -23.1393  -48.4367 N.am      15 UNK        -0.5000 
     85 CA         -6.9977  -22.5745  -49.4658 C.3       15 UNK         0.1400 
     86 CB         -8.2398  -23.4587  -49.7005 C.3       15 UNK        -0.1800 
     87 C          -6.2871  -22.1556  -50.7708 C.2       15 UNK         0.5000 
     88 O          -6.9715  -21.8861  -51.7592 O.2       15 UNK        -0.5000 
     89 N          -4.9496  -22.0440  -50.7318 N.am      16 UNK        -0.5000 
     90 CA         -4.0433  -21.4434  -51.7178 C.3       16 UNK         0.1400 
     91 CB         -4.0013  -19.9179  -51.4982 C.3       16 UNK        -0.1800 
     92 C          -4.3258  -21.8347  -53.1838 C.2       16 UNK         0.5000 
     93 O          -3.8699  -22.8861  -53.6361 O.2       16 UNK        -0.5000 
     94 N          -5.0803  -20.9915  -53.9015 N.am      17 UNK        -0.5000 
     95 CA         -5.4828  -21.1828  -55.2948 C.3       17 UNK         0.1400 
     96 CB         -6.2407  -19.9374  -55.7767 C.3       17 UNK        -0.1800 
     97 C          -6.3268  -22.4499  -55.5285 C.2       17 UNK         0.5000 
     98 O          -6.2134  -23.0552  -56.5939 O.2       17 UNK        -0.5000 
     99 N          -7.1132  -22.8666  -54.5249 N.am      18 UNK        -0.5000 
    100 CA        -7.8984  -24.1046  -54.5586 C.3       18 UNK         0.1400 
    101 CB        -8.9599  -24.0674  -53.4517 C.3       18 UNK        -0.1800 
    102 C         -7.0259  -25.3702  -54.4341 C.2       18 UNK         0.5000 
    103 O         -7.4376  -26.4353  -54.8942 O.2       18 UNK        -0.5000 
    104 N         -5.8272  -25.2254  -53.8524 N.am      19 UNK        -0.5000 
    105 CA        -4.7836  -26.2509  -53.7984 C.3       19 UNK         0.1400 
    106 CB        -4.0380  -26.1262  -52.4587 C.3       19 UNK        -0.1800 
    107 C         -3.8083  -26.1456  -54.9913 C.2       19 UNK         0.5000 
    108 O         -2.8384  -26.9027  -55.0428 O.2       19 UNK        -0.5000 
    109 N         -4.0724  -25.2085  -55.9169 N.am      20 UNK        -0.5000 
    110 CA        -3.2899  -24.8659  -57.1078 C.3       20 UNK         0.1400 
    111 CB        -3.2349  -26.0504  -58.0952 C.3       20 UNK        -0.1800 
    112 C         -1.8973  -24.2830  -56.7865 C.2       20 UNK         0.5000 
    113 O         -0.9924  -24.3737  -57.6177 O.2       20 UNK        -0.5000 
    114 N         -1.7454  -23.6695  -55.6032 N.am      21 UNK        -0.5000 
    115 CA        -0.4840  -23.0863  -55.1369 C.3       21 UNK         0.1400 
    116 CB        -0.5352  -22.9480  -53.6106 C.3       21 UNK        -0.1800 
    117 C         -0.1565  -21.7291  -55.7920 C.2       21 UNK         0.5000 
    118 O          1.0027  -21.3138  -55.7763 O.2       21 UNK        -0.5000 
    119 N         -1.1734  -21.0680  -56.3537 N.am      22 UNK        -0.5000 
    120 CA        -1.0831  -19.7688  -57.0378 C.3       22 UNK         0.1400 
    121 C         -2.0566  -19.6479  -58.2474 C.2       22 UNK         0.5000 
    122 N         -2.5695  -20.7460  -58.7915 N.am      22 UNK        -0.7600 
    123 O         -2.3382  -18.5504  -58.7207 O.2       22 UNK        -0.5000 
    124 C124       -1.1496  -18.5721  -56.0496 C.3       23 UNK        -0.0398 
    125 S125       -2.6544  -18.5627  -55.0141 S.3       23 UNK        -0.2404 
    126 C126       -2.3077  -17.1677  -53.8867 C.3       23 UNK        -0.0205 
    127 H127        4.1326  -14.1451  -46.0606 H         1 UNK         0.0600 
    128 H128        3.4979  -12.5085  -45.8685 H         1 UNK         0.0600 
    129 H129        3.2526  -13.3824  -47.3867 H         1 UNK         0.0600 
    130 H130        0.9468  -13.3428  -47.3357 H         1 UNK         0.3000 
    131 H131       -0.3735  -15.2021  -45.5145 H         1 UNK         0.0600 
    132 H132       -2.4386  -14.5202  -46.9429 H         1 UNK         0.0800 
    133 H133       -1.3338  -13.6367  -47.9555 H         1 UNK         0.0800 
    134 H134        0.8672  -15.3673  -49.3812 H         1 UNK         0.0800 
    135 H135       -0.5900  -14.6006  -49.9786 H         1 UNK         0.0800 
    136 H136       -1.7246  -15.5152  -51.8607 H         1 UNK         0.1150 
    137 H137       -0.7720  -19.4561  -53.2800 H         1 UNK         0.1150 
    138 H138        1.0663  -17.9585  -49.7240 H         1 UNK         0.1150 
    139 H139        1.2267  -20.5510  -52.3232 H         1 UNK         0.0800 
    140 H140        1.8936  -20.0244  -50.8007 H         1 UNK         0.0800 
    141 H141       -0.2395  -19.7051  -48.7773 H         1 UNK         0.0800 
    142 H142        1.0536  -20.8306  -48.4643 H         1 UNK         0.0800 
    143 H143       -0.8181  -22.5955  -47.9944 H         1 UNK         0.0600 
    144 H144        0.1447  -20.5054  -46.2533 H         1 UNK         0.3000 
    145 H145       -1.1120  -21.8216  -43.2301 H         1 UNK         0.0600 
    146 H146        0.7789  -23.4185  -43.5575 H         1 UNK         0.0600 
    147 H147        1.2635  -22.0662  -42.5450 H         1 UNK         0.0600 
    148 H148        1.7689  -22.1286  -44.2324 H         1 UNK         0.0600 
    149 H149        0.8940  -19.8619  -43.7863 H         1 UNK         0.3000 
    150 H150       -1.1445  -17.3001  -45.0317 H         1 UNK         0.0600 
    151 H151       -0.1539  -17.3450  -42.1334 H         1 UNK         0.0600 
    152 H152       -1.7917  -16.9612  -42.6493 H         1 UNK         0.0600 
    153 H153       -0.4656  -15.8933  -43.0830 H         1 UNK         0.0600 
    154 H154        1.4937  -17.1263  -44.0239 H         1 UNK         0.3000 
    155 H155        3.2097  -19.1896  -46.1483 H         1 UNK         0.0600 
    156 H156        4.5043  -17.3917  -47.2102 H         1 UNK         0.0600 
    157 H157        3.2243  -16.2319  -46.8812 H         1 UNK         0.0600 
    158 H158        2.9384  -17.5595  -47.9890 H         1 UNK         0.0600 
    159 H159        4.2502  -16.9965  -44.6634 H         1 UNK         0.3000 
    160 H160        4.1843  -18.6694  -41.5080 H         1 UNK         0.0600 
    161 H161        6.4976  -18.2650  -43.4684 H         1 UNK         0.0600 
    162 H162        6.0144  -19.7870  -42.7360 H         1 UNK         0.0600 
    163 H163        6.6413  -18.4940  -41.7258 H         1 UNK         0.0600 
    164 H164        4.2450  -16.5472  -41.1294 H         1 UNK         0.3000 
    165 H165        6.1834  -14.0713  -41.9549 H         1 UNK         0.0600 
    166 H166        4.5822  -12.2503  -42.3449 H         1 UNK         0.0600 
    167 H167        4.8433  -13.1441  -43.8315 H         1 UNK         0.0600 
    168 H168        3.3635  -13.3861  -42.9061 H         1 UNK         0.0600 
    169 H169        3.5308  -14.3206  -40.6486 H         1 UNK         0.3000 
    170 H170        4.8899  -15.5228  -37.6425 H         1 UNK         0.0600 
    171 H171        3.9495  -13.5229  -36.5091 H         1 UNK         0.0600 
    172 H172        3.9641  -12.6226  -38.0265 H         1 UNK         0.0600 
    173 H173        5.4765  -13.1173  -37.2751 H         1 UNK         0.0600 
    174 H174        2.3197  -14.4485  -38.2256 H         1 UNK         0.3000 
    175 H175        0.9768  -17.0701  -40.1261 H         1 UNK         0.0600 
    176 H176        0.8700  -18.1267  -37.8649 H         1 UNK         0.0600 
    177 H177        0.4608  -16.5738  -37.1456 H         1 UNK         0.0600 
    178 H178       -0.6495  -17.3491  -38.2766 H         1 UNK         0.0600 
    179 H179       -0.2927  -14.8999  -38.8185 H         1 UNK         0.3000 
    180 H180       -1.0912  -13.1924  -40.1844 H         1 UNK         0.0600 
    181 H181        1.6446  -11.7903  -39.9364 H         1 UNK         0.0600 
    182 H182        0.6868  -12.3771  -38.5816 H         1 UNK         0.0600 
    183 H183        0.0868  -11.0561  -39.5645 H         1 UNK         0.0600 
    184 H184        0.5324  -12.9397  -42.5391 H         1 UNK         0.3000 
    185 H185       -1.8373  -10.7941  -44.1227 H         1 UNK         0.0600 
    186 H186        0.1251   -9.5281  -44.9506 H         1 UNK         0.0600 
    187 H187       -0.2087   -9.0912  -43.2830 H         1 UNK         0.0600 
    188 H188        1.1281  -10.1743  -43.6506 H         1 UNK         0.0600 
    189 H189        0.4946  -12.0252  -45.1645 H         1 UNK         0.3000 
    190 H190       -2.0318  -19.4168  -46.8489 H         1 UNK         0.3000 
    191 H191       -4.5055  -19.4618  -48.2899 H         1 UNK         0.0600 
    192 H192       -3.5913  -17.3566  -47.4295 H         1 UNK         0.0600 
    193 H193       -5.1526  -17.6458  -46.6875 H         1 UNK         0.0600 
    194 H194       -3.6840  -17.9318  -45.7653 H         1 UNK         0.0600 
    195 H195       -3.5713  -20.6235  -45.0357 H         1 UNK         0.3000 
    196 H196       -6.1305  -21.5364  -44.2093 H         1 UNK         0.0600 
    197 H197       -4.8621  -22.8597  -42.5574 H         1 UNK         0.0600 
    198 H198       -4.1496  -21.2586  -42.6961 H         1 UNK         0.0600 
    199 H199       -3.3733  -22.6434  -43.4637 H         1 UNK         0.0600 
    200 H200       -3.7413  -22.9883  -46.3696 H         1 UNK         0.3000 
    201 H201       -5.1882  -25.5276  -46.6613 H         1 UNK         0.0600 
    202 H202       -3.3400  -26.0739  -48.2032 H         1 UNK         0.0600 
    203 H203       -2.6886  -25.4503  -46.6967 H         1 UNK         0.0600 
    204 H204       -2.7346  -24.4261  -48.1287 H         1 UNK         0.0600 
    205 H205       -5.9408  -22.5168  -47.6575 H         1 UNK         0.3000 
    206 H206       -7.3626  -21.6391  -49.0402 H         1 UNK         0.0600 
    207 H207       -8.7390  -23.6920  -48.7602 H         1 UNK         0.0600 
    208 H208       -8.9688  -22.9501  -50.3323 H         1 UNK         0.0600 
    209 H209       -7.9847  -24.4002  -50.1863 H         1 UNK         0.0600 
    210 H210       -4.4936  -22.2818  -49.8553 H         1 UNK         0.3000 
    211 H211       -3.0488  -21.8309  -51.4923 H         1 UNK         0.0600 
    212 H212       -4.9938  -19.4678  -51.5294 H         1 UNK         0.0600 
    213 H213       -3.3899  -19.4294  -52.2545 H         1 UNK         0.0600 
    214 H214       -3.5572  -19.6772  -50.5327 H         1 UNK         0.0600 
    215 H215       -5.4377  -20.1677  -53.4411 H         1 UNK         0.3000 
    216 H216       -4.5725  -21.2796  -55.8898 H         1 UNK         0.0600 
    217 H217       -6.5297  -20.0372  -56.8238 H         1 UNK         0.0600 
    218 H218       -5.6239  -19.0424  -55.6966 H         1 UNK         0.0600 
    219 H219       -7.1504  -19.7718  -55.1981 H         1 UNK         0.0600 
    220 H220       -7.1183  -22.3462  -53.6508 H         1 UNK         0.3000 
    221 H221       -8.4160  -24.1542  -55.5190 H         1 UNK         0.0600 
    222 H222       -8.5005  -24.0710  -52.4653 H         1 UNK         0.0600 
    223 H223       -9.5857  -23.1783  -53.5297 H         1 UNK         0.0600 
    224 H224       -9.6162  -24.9364  -53.5103 H         1 UNK         0.0600 
    225 H225       -5.5498  -24.3054  -53.5332 H         1 UNK         0.3000 
    226 H226       -5.2378  -27.2429  -53.8389 H         1 UNK         0.0600 
    227 H227       -3.2829  -26.9061  -52.3542 H         1 UNK         0.0600 
    228 H228       -3.5315  -25.1659  -52.3605 H         1 UNK         0.0600 
    229 H229       -4.7243  -26.2291  -51.6187 H         1 UNK         0.0600 
    230 H230       -4.8996  -24.6422  -55.7809 H         1 UNK         0.3000 
    231 H231       -3.8374  -24.0617  -57.6007 H         1 UNK         0.0600 
    232 H232       -2.6292  -26.8719  -57.7119 H         1 UNK         0.0600 
    233 H233       -2.8026  -25.7454  -59.0489 H         1 UNK         0.0600 
    234 H234       -4.2327  -26.4367  -58.3031 H         1 UNK         0.0600 
    235 H235       -2.5343  -23.6122  -54.9659 H         1 UNK         0.3000 
    236 H236        0.3253  -23.7767  -55.3838 H         1 UNK         0.0600 
    237 H237       -1.2325  -22.1699  -53.2997 H         1 UNK         0.0600 
    238 H238       -0.8359  -23.8807  -53.1329 H         1 UNK         0.0600 
    239 H239        0.4469  -22.6853  -53.2180 H         1 UNK         0.0600 
    240 H240       -2.0980  -21.4658  -56.2920 H         1 UNK         0.3000 
    241 H241       -0.1010  -19.7213  -57.5117 H         1 UNK         0.0600 
    242 H242       -3.1905  -20.6546  -59.5804 H         1 UNK         0.3800 
    243 H243       -2.2681  -21.6603  -58.4983 H         1 UNK         0.3800 
    244 H244       -1.0837  -17.6235  -56.5845 H         1 UNK         0.0800 
    245 H245       -0.2749  -18.5976  -55.3999 H         1 UNK         0.0800 
    246 H246       -3.2616  -16.8472  -53.4654 H         1 UNK         0.0800 
    247 H247       -1.9333  -16.3256  -54.4703 H         1 UNK         0.0800 
@<TRIPOS>BOND
     1    1    2 1    
     2    1  127 1    
     3    1  128 1    
     4    1  129 1    
     5    2    3 2    
     6    2    4 am   BACKBONE|DICT|INTERRES
     7    4    5 1    
     8    4  130 1    
     9    5    6 1    
    10    5   65 1    
    11    5  131 1    
    12    6    7 1    
    13    6  132 1    
    14    6  133 1    
    15    7    8 1    
    16    8    9 1    
    17    8  134 1    
    18    8  135 1    
    19    9   10 ar   
    20    9   14 ar   
    21   10   11 ar   
    22   10  136 1    
    23   11   12 ar   
    24   11  126 1    
    25   12   13 ar   
    26   12  137 1    
    27   13   14 ar   
    28   13   15 1    
    29   14  138 1    
    30   15   16 1    
    31   15  139 1    
    32   15  140 1    
    33   16   17 1    
    34   17   18 1    
    35   17  141 1    
    36   17  142 1    
    37   18   19 1    
    38   18   67 1    
    39   18  143 1    
    40   19   20 am   BACKBONE|DICT|INTERRES
    41   19  144 1    
    42   20   21 2    
    43   20   22 1    
    44   22   23 1    
    45   22   24 1    
    46   22  145 1    
    47   23  146 1    
    48   23  147 1    
    49   23  148 1    
    50   24   25 am   BACKBONE|DICT|INTERRES
    51   24  149 1    
    52   25   26 2    
    53   25   27 1    
    54   27   28 1    
    55   27   29 1    
    56   27  150 1    
    57   28  151 1    
    58   28  152 1    
    59   28  153 1    
    60   29   30 am   BACKBONE|DICT|INTERRES
    61   29  154 1    
    62   30   31 2    
    63   30   32 1    
    64   32   33 1    
    65   32   34 1    
    66   32  155 1    
    67   33  156 1    
    68   33  157 1    
    69   33  158 1    
    70   34   35 am   BACKBONE|DICT|INTERRES
    71   34  159 1    
    72   35   36 2    
    73   35   37 1    
    74   37   38 1    
    75   37   39 1    
    76   37  160 1    
    77   38  161 1    
    78   38  162 1    
    79   38  163 1    
    80   39   40 am   BACKBONE|DICT|INTERRES
    81   39  164 1    
    82   40   41 2    
    83   40   42 1    
    84   42   43 1    
    85   42   44 1    
    86   42  165 1    
    87   43  166 1    
    88   43  167 1    
    89   43  168 1    
    90   44   45 am   BACKBONE|DICT|INTERRES
    91   44  169 1    
    92   45   46 2    
    93   45   47 1    
    94   47   48 1    
    95   47   49 1    
    96   47  170 1    
    97   48  171 1    
    98   48  172 1    
    99   48  173 1    
   100   49   50 am   BACKBONE|DICT|INTERRES
   101   49  174 1    
   102   50   51 2    
   103   50   52 1    
   104   52   53 1    
   105   52   54 1    
   106   52  175 1    
   107   53  176 1    
   108   53  177 1    
   109   53  178 1    
   110   54   55 am   BACKBONE|DICT|INTERRES
   111   54  179 1    
   112   55   56 2    
   113   55   57 1    
   114   57   58 1    
   115   57   59 1    
   116   57  180 1    
   117   58  181 1    
   118   58  182 1    
   119   58  183 1    
   120   59   60 am   BACKBONE|DICT|INTERRES
   121   59  184 1    
   122   60   61 2    
   123   60   62 1    
   124   62   63 1    
   125   62   64 1    
   126   62  185 1    
   127   63  186 1    
   128   63  187 1    
   129   63  188 1    
   130   64   65 am   BACKBONE|DICT|INTERRES
   131   64  189 1    
   132   65   66 2    
   133   67   68 2    
   134   67   69 am   BACKBONE|DICT|INTERRES
   135   69   70 1    
   136   69  190 1    
   137   70   71 1    
   138   70   72 1    
   139   70  191 1    
   140   71  192 1    
   141   71  193 1    
   142   71  194 1    
   143   72   73 2    
   144   72   74 am   BACKBONE|DICT|INTERRES
   145   74   75 1    
   146   74  195 1    
   147   75   76 1    
   148   75   77 1    
   149   75  196 1    
   150   76  197 1    
   151   76  198 1    
   152   76  199 1    
   153   77   78 2    
   154   77   79 am   BACKBONE|DICT|INTERRES
   155   79   80 1    
   156   79  200 1    
   157   80   81 1    
   158   80   82 1    
   159   80  201 1    
   160   81  202 1    
   161   81  203 1    
   162   81  204 1    
   163   82   83 2    
   164   82   84 am   BACKBONE|DICT|INTERRES
   165   84   85 1    
   166   84  205 1    
   167   85   86 1    
   168   85   87 1    
   169   85  206 1    
   170   86  207 1    
   171   86  208 1    
   172   86  209 1    
   173   87   88 2    
   174   87   89 am   BACKBONE|DICT|INTERRES
   175   89   90 1    
   176   89  210 1    
   177   90   91 1    
   178   90   92 1    
   179   90  211 1    
   180   91  212 1    
   181   91  213 1    
   182   91  214 1    
   183   92   93 2    
   184   92   94 am   BACKBONE|DICT|INTERRES
   185   94   95 1    
   186   94  215 1    
   187   95   96 1    
   188   95   97 1    
   189   95  216 1    
   190   96  217 1    
   191   96  218 1    
   192   96  219 1    
   193   97   98 2    
   194   97   99 am   BACKBONE|DICT|INTERRES
   195   99  100 1    
   196   99  220 1    
   197  100  101 1    
   198  100  102 1    
   199  100  221 1    
   200  101  222 1    
   201  101  223 1    
   202  101  224 1    
   203  102  103 2    
   204  102  104 am   BACKBONE|DICT|INTERRES
   205  104  105 1    
   206  104  225 1    
   207  105  106 1    
   208  105  107 1    
   209  105  226 1    
   210  106  227 1    
   211  106  228 1    
   212  106  229 1    
   213  107  108 2    
   214  107  109 am   BACKBONE|DICT|INTERRES
   215  109  110 1    
   216  109  230 1    
   217  110  111 1    
   218  110  112 1    
   219  110  231 1    
   220  111  232 1    
   221  111  233 1    
   222  111  234 1    
   223  112  113 2    
   224  112  114 am   BACKBONE|DICT|INTERRES
   225  114  115 1    
   226  114  235 1    
   227  115  116 1    
   228  115  117 1    
   229  115  236 1    
   230  116  237 1    
   231  116  238 1    
   232  116  239 1    
   233  117  118 2    
   234  117  119 am   BACKBONE|DICT|INTERRES
   235  119  120 1    
   236  119  240 1    
   237  120  121 1    
   238  120  124 1    
   239  120  241 1    
   240  121  122 am   BACKBONE|DICT|INTERRES
   241  121  123 2    
   242  122  242 1    
   243  122  243 1    
   244  124  125 1    
   245  124  244 1    
   246  124  245 1    
   247  125  126 1    
   248  126  246 1    
   249  126  247 1    
@<TRIPOS>SUBSTRUCTURE
     1 UNK         1 GROUP             0       ****    0 ROOT    
