@<TRIPOS>MOLECULE
3R540
247   249    1
SMALL
USER_CHARGES


@<TRIPOS>ATOM
      1 CA         -0.8998  -10.9843  -50.0621 C.3       0 UNK        -0.1800 
      2 C          -0.8740  -12.2199  -49.1740 C.2       0 UNK         0.5000 
      3 O          -0.1200  -12.2618  -48.2012 O.2       0 UNK        -0.5000 
      4 N          -1.7041  -13.2218  -49.4912 N.am      1 UNK        -0.5000 
      5 CA         -1.8346  -14.4938  -48.7674 C.3       1 UNK         0.1400 
      6 C6         -2.3066  -15.6292  -49.7195 C.3       23 UNK        -0.0398 
      7 S7         -1.6111  -17.2610  -49.2817 S.3       23 UNK        -0.2404 
      8 C8         -0.5541  -17.5787  -50.7263 C.3       23 UNK        -0.0205 
      9 C9         -0.0185  -19.0019  -50.7442 C.ar      23 UNK        -0.0193 
     10 C10        -0.6775  -19.9965  -51.4740 C.ar      23 UNK        -0.1150 
     11 C11        -0.1631  -21.2947  -51.5354 C.ar      23 UNK        -0.0193 
     12 C12         0.9921  -21.6057  -50.8132 C.ar      23 UNK        -0.1150 
     13 C13         1.6439  -20.6317  -50.0509 C.ar      23 UNK        -0.0193 
     14 C14         1.1484  -19.3227  -50.0454 C.ar      23 UNK        -0.1150 
     15 C15         2.8641  -21.0209  -49.2196 C.3       23 UNK        -0.0205 
     16 S16         2.8366  -20.4060  -47.4968 S.3       23 UNK        -0.2404 
     17 C17         1.1466  -20.8003  -46.9296 C.3       23 UNK        -0.0398 
     18 CA          1.0378  -22.0995  -46.0977 C.3       11 UNK         0.1400 
     19 N           1.8214  -22.0279  -44.8633 N.am      11 UNK        -0.5000 
     20 C           2.4028  -23.0567  -44.2370 C.2       10 UNK         0.5000 
     21 O           2.3855  -24.2122  -44.6638 O.2       10 UNK        -0.5000 
     22 CA          3.0889  -22.7257  -42.8919 C.3       10 UNK         0.1400 
     23 CB          4.1198  -23.7864  -42.4530 C.3       10 UNK        -0.1800 
     24 N           3.6599  -21.3732  -42.8612 N.am      10 UNK        -0.5000 
     25 C           4.6764  -20.8959  -43.5954 C.2       9 UNK         0.5000 
     26 O           5.3548  -21.5840  -44.3587 O.2       9 UNK        -0.5000 
     27 CA          4.9823  -19.3879  -43.4805 C.3       9 UNK         0.1400 
     28 CB          4.5736  -18.6613  -44.7706 C.3       9 UNK        -0.1800 
     29 N           4.3216  -18.7313  -42.3502 N.am      9 UNK        -0.5000 
     30 C           4.7244  -18.8071  -41.0752 C.2       8 UNK         0.5000 
     31 O           5.7110  -19.4451  -40.7061 O.2       8 UNK        -0.5000 
     32 CA          3.8676  -18.0591  -40.0353 C.3       8 UNK         0.1400 
     33 CB          4.2353  -16.5680  -39.9930 C.3       8 UNK        -0.1800 
     34 N           2.4299  -18.1995  -40.2754 N.am      8 UNK        -0.5000 
     35 C           1.7515  -19.3499  -40.1567 C.2       7 UNK         0.5000 
     36 O           2.2631  -20.4151  -39.8112 O.2       7 UNK        -0.5000 
     37 CA          0.2579  -19.3162  -40.5253 C.3       7 UNK         0.1400 
     38 CB         -0.5799  -18.7501  -39.3695 C.3       7 UNK        -0.1800 
     39 N           0.0016  -18.5523  -41.7468 N.am      7 UNK        -0.5000 
     40 C           0.4420  -18.9084  -42.9607 C.2       6 UNK         0.5000 
     41 O           1.0413  -19.9581  -43.1845 O.2       6 UNK        -0.5000 
     42 CA          0.2061  -17.9282  -44.1196 C.3       6 UNK         0.1400 
     43 CB         -1.1880  -18.1337  -44.7250 C.3       6 UNK        -0.1800 
     44 N           0.3766  -16.5330  -43.7303 N.am      6 UNK        -0.5000 
     45 C           1.5254  -15.9910  -43.3066 C.2       5 UNK         0.5000 
     46 O           2.5826  -16.6122  -43.2105 O.2       5 UNK        -0.5000 
     47 CA          1.4650  -14.5211  -42.8635 C.3       5 UNK         0.1400 
     48 CB          1.4636  -13.5777  -44.0765 C.3       5 UNK        -0.1800 
     49 N           0.2912  -14.2592  -42.0318 N.am      5 UNK        -0.5000 
     50 C           0.1144  -14.7501  -40.7971 C.2       4 UNK         0.5000 
     51 O           0.9423  -15.4491  -40.2110 O.2       4 UNK        -0.5000 
     52 CA         -1.2336  -14.4349  -40.1237 C.3       4 UNK         0.1400 
     53 CB         -1.2126  -13.0341  -39.4940 C.3       4 UNK        -0.1800 
     54 N          -2.3627  -14.5351  -41.0517 N.am      4 UNK        -0.5000 
     55 C          -2.7894  -15.6850  -41.5918 C.2       3 UNK         0.5000 
     56 O          -2.2796  -16.7798  -41.3583 O.2       3 UNK        -0.5000 
     57 CA         -3.9558  -15.5938  -42.5927 C.3       3 UNK         0.1400 
     58 CB         -5.3002  -15.5344  -41.8521 C.3       3 UNK        -0.1800 
     59 N          -3.8622  -14.4657  -43.5254 N.am      3 UNK        -0.5000 
     60 C          -2.8440  -14.2570  -44.3701 C.2       2 UNK         0.5000 
     61 O          -1.8088  -14.9237  -44.3723 O.2       2 UNK        -0.5000 
     62 CA         -2.9877  -13.0882  -45.3585 C.3       2 UNK         0.1400 
     63 CB         -2.3686  -11.8120  -44.7688 C.3       2 UNK        -0.1800 
     64 N          -2.3340  -13.3849  -46.6332 N.am      2 UNK        -0.5000 
     65 C          -2.7202  -14.3247  -47.5068 C.2       1 UNK         0.5000 
     66 O          -3.7432  -14.9966  -47.3621 O.2       1 UNK        -0.5000 
     67 C          -0.4551  -22.3508  -45.8070 C.2       11 UNK         0.5000 
     68 O          -1.1884  -22.6749  -46.7392 O.2       11 UNK        -0.5000 
     69 N          -0.8951  -22.1487  -44.5544 N.am      12 UNK        -0.5000 
     70 CA         -2.2943  -22.0520  -44.1128 C.3       12 UNK         0.1400 
     71 CB         -2.3202  -21.9082  -42.5840 C.3       12 UNK        -0.1800 
     72 C          -3.2497  -23.1755  -44.5677 C.2       12 UNK         0.5000 
     73 O          -4.4457  -22.9222  -44.7119 O.2       12 UNK        -0.5000 
     74 N          -2.7150  -24.3786  -44.8113 N.am      13 UNK        -0.5000 
     75 CA         -3.4540  -25.5223  -45.3489 C.3       13 UNK         0.1400 
     76 CB         -2.6095  -26.7910  -45.1540 C.3       13 UNK        -0.1800 
     77 C          -3.8529  -25.3679  -46.8331 C.2       13 UNK         0.5000 
     78 O          -4.8328  -25.9850  -47.2529 O.2       13 UNK        -0.5000 
     79 N          -3.0916  -24.5736  -47.5984 N.am      14 UNK        -0.5000 
     80 CA         -3.2645  -24.3690  -49.0395 C.3       14 UNK         0.1400 
     81 CB         -1.9712  -24.8003  -49.7495 C.3       14 UNK        -0.1800 
     82 C          -3.6001  -22.9108  -49.4024 C.2       14 UNK         0.5000 
     83 O          -4.0340  -22.6653  -50.5271 O.2       14 UNK        -0.5000 
     84 N          -3.3989  -21.9728  -48.4650 N.am      15 UNK        -0.5000 
     85 CA         -3.4911  -20.5153  -48.6269 C.3       15 UNK         0.1400 
     86 CB         -3.2623  -19.8584  -47.2593 C.3       15 UNK        -0.1800 
     87 C          -4.7855  -19.9760  -49.2681 C.2       15 UNK         0.5000 
     88 O          -4.7510  -18.9201  -49.9005 O.2       15 UNK        -0.5000 
     89 N          -5.8888  -20.7287  -49.1521 N.am      16 UNK        -0.5000 
     90 CA         -7.1715  -20.4734  -49.8165 C.3       16 UNK         0.1400 
     91 CB         -8.1798  -21.5423  -49.3688 C.3       16 UNK        -0.1800 
     92 C          -7.0891  -20.4218  -51.3594 C.2       16 UNK         0.5000 
     93 O          -7.9533  -19.8114  -51.9892 O.2       16 UNK        -0.5000 
     94 N          -6.0439  -21.0311  -51.9384 N.am      17 UNK        -0.5000 
     95 CA         -5.7037  -20.9669  -53.3599 C.3       17 UNK         0.1400 
     96 CB         -4.6747  -22.0632  -53.6550 C.3       17 UNK        -0.1800 
     97 C          -5.1573  -19.5969  -53.8167 C.2       17 UNK         0.5000 
     98 O          -5.0547  -19.3714  -55.0252 O.2       17 UNK        -0.5000 
     99 N          -4.7892  -18.7262  -52.8608 N.am      18 UNK        -0.5000 
    100 CA        -4.3860  -17.3228  -53.0264 C.3       18 UNK         0.1400 
    101 CB        -5.5977  -16.4801  -53.4737 C.3       18 UNK        -0.1800 
    102 C         -3.1538  -17.1032  -53.9315 C.2       18 UNK         0.5000 
    103 O         -3.0099  -16.0310  -54.5193 O.2       18 UNK        -0.5000 
    104 N         -2.3007  -18.1331  -54.0361 N.am      19 UNK        -0.5000 
    105 CA        -1.1205  -18.2457  -54.9055 C.3       19 UNK         0.1400 
    106 CB        -0.0739  -17.1530  -54.5992 C.3       19 UNK        -0.1800 
    107 C         -1.4616  -18.3286  -56.4098 C.2       19 UNK         0.5000 
    108 O         -0.5551  -18.2426  -57.2396 O.2       19 UNK        -0.5000 
    109 N         -2.7473  -18.5084  -56.7402 N.am      20 UNK        -0.5000 
    110 CA        -3.2518  -18.6251  -58.1021 C.3       20 UNK         0.1400 
    111 CB        -4.5392  -17.7942  -58.2420 C.3       20 UNK        -0.1800 
    112 C         -3.4920  -20.1020  -58.4343 C.2       20 UNK         0.5000 
    113 O         -2.8359  -20.6417  -59.3262 O.2       20 UNK        -0.5000 
    114 N         -4.4068  -20.7430  -57.6924 N.am      21 UNK        -0.5000 
    115 CA        -4.8399  -22.1209  -57.9447 C.3       21 UNK         0.1400 
    116 CB        -6.1812  -22.3744  -57.2387 C.3       21 UNK        -0.1800 
    117 C         -3.7904  -23.1860  -57.5685 C.2       21 UNK         0.5000 
    118 O         -3.8598  -24.3018  -58.0855 O.2       21 UNK        -0.5000 
    119 N         -2.8345  -22.8246  -56.7023 N.am      22 UNK        -0.5000 
    120 CA        -1.6793  -23.6545  -56.3259 C.3       22 UNK         0.1400 
    121 C         -0.4076  -23.3897  -57.1874 C.2       22 UNK         0.5000 
    122 N         -0.4461  -22.5174  -58.1895 N.am      22 UNK        -0.7600 
    123 O          0.6301  -24.0060  -56.9605 O.2       22 UNK        -0.5000 
    124 C124       -1.4060  -23.6147  -54.7974 C.3       23 UNK        -0.0398 
    125 S125       -0.9083  -21.9874  -54.1343 S.3       23 UNK        -0.2404 
    126 C126       -0.8628  -22.3725  -52.3528 C.3       23 UNK        -0.0205 
    127 H127       -1.6132  -11.0871  -50.8801 H         1 UNK         0.0600 
    128 H128       -1.1772  -10.1077  -49.4766 H         1 UNK         0.0600 
    129 H129        0.0870  -10.8107  -50.4913 H         1 UNK         0.0600 
    130 H130       -2.3287  -13.1036  -50.2763 H         1 UNK         0.3000 
    131 H131       -0.8383  -14.7611  -48.4072 H         1 UNK         0.0600 
    132 H132       -2.0030  -15.4007  -50.7419 H         1 UNK         0.0800 
    133 H133       -3.3943  -15.7059  -49.7657 H         1 UNK         0.0800 
    134 H134        0.2730  -16.8672  -50.7349 H         1 UNK         0.0800 
    135 H135       -1.1300  -17.3944  -51.6317 H         1 UNK         0.0800 
    136 H136       -1.5873  -19.7626  -52.0038 H         1 UNK         0.1150 
    137 H137        1.3783  -22.6151  -50.8335 H         1 UNK         0.1150 
    138 H138        1.6535  -18.5594  -49.4703 H         1 UNK         0.1150 
    139 H139        2.9691  -22.1064  -49.1848 H         1 UNK         0.0800 
    140 H140        3.7597  -20.6419  -49.7131 H         1 UNK         0.0800 
    141 H141        0.4724  -20.8434  -47.7848 H         1 UNK         0.0800 
    142 H142        0.8008  -19.9495  -46.3431 H         1 UNK         0.0800 
    143 H143        1.3960  -22.9301  -46.7092 H         1 UNK         0.0600 
    144 H144        1.8318  -21.1277  -44.3911 H         1 UNK         0.3000 
    145 H145        2.2919  -22.7227  -42.1468 H         1 UNK         0.0600 
    146 H146        4.5850  -23.5149  -41.5053 H         1 UNK         0.0600 
    147 H147        3.6436  -24.7575  -42.3132 H         1 UNK         0.0600 
    148 H148        4.9110  -23.9169  -43.1914 H         1 UNK         0.0600 
    149 H149        3.1531  -20.7068  -42.2934 H         1 UNK         0.3000 
    150 H150        6.0626  -19.2833  -43.3604 H         1 UNK         0.0600 
    151 H151        5.0701  -19.0931  -45.6405 H         1 UNK         0.0600 
    152 H152        4.8449  -17.6062  -44.7329 H         1 UNK         0.0600 
    153 H153        3.4981  -18.7240  -44.9401 H         1 UNK         0.0600 
    154 H154        3.5396  -18.1217  -42.5780 H         1 UNK         0.3000 
    155 H155        4.0872  -18.4880  -39.0554 H         1 UNK         0.0600 
    156 H156        4.0153  -16.0702  -40.9378 H         1 UNK         0.0600 
    157 H157        5.2983  -16.4331  -39.7898 H         1 UNK         0.0600 
    158 H158        3.6850  -16.0492  -39.2078 H         1 UNK         0.0600 
    159 H159        1.9284  -17.3603  -40.5436 H         1 UNK         0.3000 
    160 H160       -0.0603  -20.3461  -40.6982 H         1 UNK         0.0600 
    161 H161       -1.6459  -18.8243  -39.5849 H         1 UNK         0.0600 
    162 H162       -0.3495  -17.7015  -39.1796 H         1 UNK         0.0600 
    163 H163       -0.3964  -19.3008  -38.4462 H         1 UNK         0.0600 
    164 H164       -0.5592  -17.7114  -41.6505 H         1 UNK         0.3000 
    165 H165        0.9499  -18.1428  -44.8885 H         1 UNK         0.0600 
    166 H166       -1.3236  -17.5301  -45.6231 H         1 UNK         0.0600 
    167 H167       -1.3346  -19.1754  -45.0043 H         1 UNK         0.0600 
    168 H168       -1.9764  -17.8690  -44.0202 H         1 UNK         0.0600 
    169 H169       -0.4431  -15.9344  -43.8213 H         1 UNK         0.3000 
    170 H170        2.3576  -14.3122  -42.2700 H         1 UNK         0.0600 
    171 H171        2.3528  -13.7323  -44.6888 H         1 UNK         0.0600 
    172 H172        0.5956  -13.7373  -44.7170 H         1 UNK         0.0600 
    173 H173        1.4620  -12.5333  -43.7643 H         1 UNK         0.0600 
    174 H174       -0.4645  -13.7471  -42.4610 H         1 UNK         0.3000 
    175 H175       -1.3837  -15.1646  -39.3250 H         1 UNK         0.0600 
    176 H176       -2.1339  -12.8346  -38.9464 H         1 UNK         0.0600 
    177 H177       -0.3880  -12.9372  -38.7865 H         1 UNK         0.0600 
    178 H178       -1.0932  -12.2537  -40.2465 H         1 UNK         0.0600 
    179 H179       -2.8328  -13.6778  -41.3020 H         1 UNK         0.3000 
    180 H180       -3.9412  -16.5081  -43.1894 H         1 UNK         0.0600 
    181 H181       -5.4010  -14.6169  -41.2711 H         1 UNK         0.0600 
    182 H182       -5.4034  -16.3731  -41.1621 H         1 UNK         0.0600 
    183 H183       -6.1372  -15.5849  -42.5488 H         1 UNK         0.0600 
    184 H184       -4.6678  -13.8588  -43.5736 H         1 UNK         0.3000 
    185 H185       -4.0482  -12.9126  -45.5501 H         1 UNK         0.0600 
    186 H186       -1.3020  -11.9338  -44.5752 H         1 UNK         0.0600 
    187 H187       -2.4905  -10.9661  -45.4458 H         1 UNK         0.0600 
    188 H188       -2.8457  -11.5434  -43.8254 H         1 UNK         0.0600 
    189 H189       -1.4786  -12.8803  -46.8393 H         1 UNK         0.3000 
    190 H190       -0.2039  -21.8783  -43.8684 H         1 UNK         0.3000 
    191 H191       -2.6911  -21.1282  -44.5357 H         1 UNK         0.0600 
    192 H192       -1.8064  -21.0015  -42.2665 H         1 UNK         0.0600 
    193 H193       -1.8437  -22.7572  -42.0926 H         1 UNK         0.0600 
    194 H194       -3.3432  -21.8428  -42.2106 H         1 UNK         0.0600 
    195 H195       -1.7216  -24.4977  -44.6773 H         1 UNK         0.3000 
    196 H196       -4.3746  -25.6354  -44.7722 H         1 UNK         0.0600 
    197 H197       -3.1393  -27.6731  -45.5162 H         1 UNK         0.0600 
    198 H198       -2.3855  -26.9583  -44.1003 H         1 UNK         0.0600 
    199 H199       -1.6637  -26.7312  -45.6941 H         1 UNK         0.0600 
    200 H200       -2.3171  -24.0731  -47.1692 H         1 UNK         0.3000 
    201 H201       -4.0813  -24.9854  -49.4197 H         1 UNK         0.0600 
    202 H202       -1.7181  -25.8340  -49.5136 H         1 UNK         0.0600 
    203 H203       -1.1258  -24.1733  -49.4614 H         1 UNK         0.0600 
    204 H204       -2.0798  -24.7345  -50.8325 H         1 UNK         0.0600 
    205 H205       -2.9695  -22.2815  -47.6021 H         1 UNK         0.3000 
    206 H206       -2.6716  -20.2207  -49.2846 H         1 UNK         0.0600 
    207 H207       -2.2581  -20.0724  -46.8983 H         1 UNK         0.0600 
    208 H208       -3.3601  -18.7733  -47.3156 H         1 UNK         0.0600 
    209 H209       -3.9772  -20.2147  -46.5169 H         1 UNK         0.0600 
    210 H210       -5.8147  -21.5903  -48.6316 H         1 UNK         0.3000 
    211 H211       -7.5287  -19.4986  -49.4787 H         1 UNK         0.0600 
    212 H212       -7.8568  -22.5436  -49.6566 H         1 UNK         0.0600 
    213 H213       -9.1584  -21.3706  -49.8192 H         1 UNK         0.0600 
    214 H214       -8.3153  -21.5298  -48.2871 H         1 UNK         0.0600 
    215 H215       -5.3887  -21.5378  -51.3484 H         1 UNK         0.3000 
    216 H216       -6.6054  -21.1693  -53.9408 H         1 UNK         0.0600 
    217 H217       -4.3808  -22.0563  -54.7007 H         1 UNK         0.0600 
    218 H218       -5.0683  -23.0542  -53.4289 H         1 UNK         0.0600 
    219 H219       -3.7702  -21.9171  -53.0689 H         1 UNK         0.0600 
    220 H220       -4.8811  -19.0197  -51.8926 H         1 UNK         0.3000 
    221 H221       -4.0922  -16.9777  -52.0342 H         1 UNK         0.0600 
    222 H222       -5.9109  -16.7325  -54.4874 H         1 UNK         0.0600 
    223 H223       -6.4498  -16.6346  -52.8115 H         1 UNK         0.0600 
    224 H224       -5.3661  -15.4145  -53.4570 H         1 UNK         0.0600 
    225 H225       -2.5480  -18.9752  -53.5382 H         1 UNK         0.3000 
    226 H226       -0.6562  -19.1986  -54.6577 H         1 UNK         0.0600 
    227 H227        0.1959  -17.1436  -53.5446 H         1 UNK         0.0600 
    228 H228       -0.4277  -16.1578  -54.8675 H         1 UNK         0.0600 
    229 H229        0.8463  -17.3280  -55.1576 H         1 UNK         0.0600 
    230 H230       -3.4331  -18.6064  -55.9995 H         1 UNK         0.3000 
    231 H231       -2.5253  -18.2329  -58.8170 H         1 UNK         0.0600 
    232 H232       -4.3371  -16.7351  -58.0809 H         1 UNK         0.0600 
    233 H233       -5.3051  -18.0951  -57.5263 H         1 UNK         0.0600 
    234 H234       -4.9632  -17.8958  -59.2417 H         1 UNK         0.0600 
    235 H235       -4.8649  -20.2460  -56.9364 H         1 UNK         0.3000 
    236 H236       -5.0148  -22.2228  -59.0181 H         1 UNK         0.0600 
    237 H237       -6.5343  -23.3898  -57.4229 H         1 UNK         0.0600 
    238 H238       -6.1104  -22.2443  -56.1610 H         1 UNK         0.0600 
    239 H239       -6.9505  -21.6943  -57.6048 H         1 UNK         0.0600 
    240 H240       -2.8366  -21.8812  -56.3448 H         1 UNK         0.3000 
    241 H241       -1.9295  -24.6942  -56.5442 H         1 UNK         0.0600 
    242 H242        0.3841  -22.3658  -58.7403 H         1 UNK         0.3800 
    243 H243       -1.2950  -22.0207  -58.4225 H         1 UNK         0.3800 
    244 H244       -2.3008  -23.9406  -54.2653 H         1 UNK         0.0800 
    245 H245       -0.6323  -24.3399  -54.5394 H         1 UNK         0.0800 
    246 H246       -0.3646  -23.3330  -52.2132 H         1 UNK         0.0800 
    247 H247       -1.8768  -22.4988  -51.9803 H         1 UNK         0.0800 
@<TRIPOS>BOND
     1    1    2 1    
     2    1  127 1    
     3    1  128 1    
     4    1  129 1    
     5    2    3 2    
     6    2    4 am   BACKBONE|DICT|INTERRES
     7    4    5 1    
     8    4  130 1    
     9    5    6 1    
    10    5   65 1    
    11    5  131 1    
    12    6    7 1    
    13    6  132 1    
    14    6  133 1    
    15    7    8 1    
    16    8    9 1    
    17    8  134 1    
    18    8  135 1    
    19    9   10 ar   
    20    9   14 ar   
    21   10   11 ar   
    22   10  136 1    
    23   11   12 ar   
    24   11  126 1    
    25   12   13 ar   
    26   12  137 1    
    27   13   14 ar   
    28   13   15 1    
    29   14  138 1    
    30   15   16 1    
    31   15  139 1    
    32   15  140 1    
    33   16   17 1    
    34   17   18 1    
    35   17  141 1    
    36   17  142 1    
    37   18   19 1    
    38   18   67 1    
    39   18  143 1    
    40   19   20 am   BACKBONE|DICT|INTERRES
    41   19  144 1    
    42   20   21 2    
    43   20   22 1    
    44   22   23 1    
    45   22   24 1    
    46   22  145 1    
    47   23  146 1    
    48   23  147 1    
    49   23  148 1    
    50   24   25 am   BACKBONE|DICT|INTERRES
    51   24  149 1    
    52   25   26 2    
    53   25   27 1    
    54   27   28 1    
    55   27   29 1    
    56   27  150 1    
    57   28  151 1    
    58   28  152 1    
    59   28  153 1    
    60   29   30 am   BACKBONE|DICT|INTERRES
    61   29  154 1    
    62   30   31 2    
    63   30   32 1    
    64   32   33 1    
    65   32   34 1    
    66   32  155 1    
    67   33  156 1    
    68   33  157 1    
    69   33  158 1    
    70   34   35 am   BACKBONE|DICT|INTERRES
    71   34  159 1    
    72   35   36 2    
    73   35   37 1    
    74   37   38 1    
    75   37   39 1    
    76   37  160 1    
    77   38  161 1    
    78   38  162 1    
    79   38  163 1    
    80   39   40 am   BACKBONE|DICT|INTERRES
    81   39  164 1    
    82   40   41 2    
    83   40   42 1    
    84   42   43 1    
    85   42   44 1    
    86   42  165 1    
    87   43  166 1    
    88   43  167 1    
    89   43  168 1    
    90   44   45 am   BACKBONE|DICT|INTERRES
    91   44  169 1    
    92   45   46 2    
    93   45   47 1    
    94   47   48 1    
    95   47   49 1    
    96   47  170 1    
    97   48  171 1    
    98   48  172 1    
    99   48  173 1    
   100   49   50 am   BACKBONE|DICT|INTERRES
   101   49  174 1    
   102   50   51 2    
   103   50   52 1    
   104   52   53 1    
   105   52   54 1    
   106   52  175 1    
   107   53  176 1    
   108   53  177 1    
   109   53  178 1    
   110   54   55 am   BACKBONE|DICT|INTERRES
   111   54  179 1    
   112   55   56 2    
   113   55   57 1    
   114   57   58 1    
   115   57   59 1    
   116   57  180 1    
   117   58  181 1    
   118   58  182 1    
   119   58  183 1    
   120   59   60 am   BACKBONE|DICT|INTERRES
   121   59  184 1    
   122   60   61 2    
   123   60   62 1    
   124   62   63 1    
   125   62   64 1    
   126   62  185 1    
   127   63  186 1    
   128   63  187 1    
   129   63  188 1    
   130   64   65 am   BACKBONE|DICT|INTERRES
   131   64  189 1    
   132   65   66 2    
   133   67   68 2    
   134   67   69 am   BACKBONE|DICT|INTERRES
   135   69   70 1    
   136   69  190 1    
   137   70   71 1    
   138   70   72 1    
   139   70  191 1    
   140   71  192 1    
   141   71  193 1    
   142   71  194 1    
   143   72   73 2    
   144   72   74 am   BACKBONE|DICT|INTERRES
   145   74   75 1    
   146   74  195 1    
   147   75   76 1    
   148   75   77 1    
   149   75  196 1    
   150   76  197 1    
   151   76  198 1    
   152   76  199 1    
   153   77   78 2    
   154   77   79 am   BACKBONE|DICT|INTERRES
   155   79   80 1    
   156   79  200 1    
   157   80   81 1    
   158   80   82 1    
   159   80  201 1    
   160   81  202 1    
   161   81  203 1    
   162   81  204 1    
   163   82   83 2    
   164   82   84 am   BACKBONE|DICT|INTERRES
   165   84   85 1    
   166   84  205 1    
   167   85   86 1    
   168   85   87 1    
   169   85  206 1    
   170   86  207 1    
   171   86  208 1    
   172   86  209 1    
   173   87   88 2    
   174   87   89 am   BACKBONE|DICT|INTERRES
   175   89   90 1    
   176   89  210 1    
   177   90   91 1    
   178   90   92 1    
   179   90  211 1    
   180   91  212 1    
   181   91  213 1    
   182   91  214 1    
   183   92   93 2    
   184   92   94 am   BACKBONE|DICT|INTERRES
   185   94   95 1    
   186   94  215 1    
   187   95   96 1    
   188   95   97 1    
   189   95  216 1    
   190   96  217 1    
   191   96  218 1    
   192   96  219 1    
   193   97   98 2    
   194   97   99 am   BACKBONE|DICT|INTERRES
   195   99  100 1    
   196   99  220 1    
   197  100  101 1    
   198  100  102 1    
   199  100  221 1    
   200  101  222 1    
   201  101  223 1    
   202  101  224 1    
   203  102  103 2    
   204  102  104 am   BACKBONE|DICT|INTERRES
   205  104  105 1    
   206  104  225 1    
   207  105  106 1    
   208  105  107 1    
   209  105  226 1    
   210  106  227 1    
   211  106  228 1    
   212  106  229 1    
   213  107  108 2    
   214  107  109 am   BACKBONE|DICT|INTERRES
   215  109  110 1    
   216  109  230 1    
   217  110  111 1    
   218  110  112 1    
   219  110  231 1    
   220  111  232 1    
   221  111  233 1    
   222  111  234 1    
   223  112  113 2    
   224  112  114 am   BACKBONE|DICT|INTERRES
   225  114  115 1    
   226  114  235 1    
   227  115  116 1    
   228  115  117 1    
   229  115  236 1    
   230  116  237 1    
   231  116  238 1    
   232  116  239 1    
   233  117  118 2    
   234  117  119 am   BACKBONE|DICT|INTERRES
   235  119  120 1    
   236  119  240 1    
   237  120  121 1    
   238  120  124 1    
   239  120  241 1    
   240  121  122 am   BACKBONE|DICT|INTERRES
   241  121  123 2    
   242  122  242 1    
   243  122  243 1    
   244  124  125 1    
   245  124  244 1    
   246  124  245 1    
   247  125  126 1    
   248  126  246 1    
   249  126  247 1    
@<TRIPOS>SUBSTRUCTURE
     1 UNK         1 GROUP             0       ****    0 ROOT    
