@<TRIPOS>MOLECULE
3R540
247   249    1
SMALL
USER_CHARGES


@<TRIPOS>ATOM
      1 CA          0.2305  -12.0156  -49.6233 C.3       0 UNK        -0.1800 
      2 C           1.5301  -12.2374  -48.8645 C.2       0 UNK         0.5000 
      3 O           1.5006  -12.5717  -47.6804 O.2       0 UNK        -0.5000 
      4 N           2.6703  -12.0532  -49.5440 N.am      1 UNK        -0.5000 
      5 CA          4.0326  -12.2060  -49.0143 C.3       1 UNK         0.1400 
      6 C6          4.4126  -13.6905  -48.7483 C.3       23 UNK        -0.0398 
      7 S7          4.5037  -14.6554  -50.2928 S.3       23 UNK        -0.2404 
      8 C8          4.3426  -16.3586  -49.6545 C.3       23 UNK        -0.0205 
      9 C9          2.9438  -16.9693  -49.7548 C.ar      23 UNK        -0.0193 
     10 C10         1.7760  -16.1947  -49.8000 C.ar      23 UNK        -0.1150 
     11 C11         0.5205  -16.8030  -49.8975 C.ar      23 UNK        -0.0193 
     12 C12         0.4309  -18.1970  -49.9256 C.ar      23 UNK        -0.1150 
     13 C13         1.5838  -18.9838  -49.8777 C.ar      23 UNK        -0.0193 
     14 C14         2.8327  -18.3631  -49.7944 C.ar      23 UNK        -0.1150 
     15 C15         1.4804  -20.5022  -49.9359 C.3       23 UNK        -0.0205 
     16 S16         2.0468  -21.3172  -48.4043 S.3       23 UNK        -0.2404 
     17 C17         0.9360  -20.6070  -47.1428 C.3       23 UNK        -0.0398 
     18 CA         -0.2791  -21.5026  -46.8036 C.3       11 UNK         0.1400 
     19 N          -0.8737  -21.1168  -45.5233 N.am      11 UNK        -0.5000 
     20 C          -1.8958  -21.7358  -44.9170 C.2       10 UNK         0.5000 
     21 O          -2.4346  -22.7573  -45.3415 O.2       10 UNK        -0.5000 
     22 CA         -2.4453  -21.0557  -43.6531 C.3       10 UNK         0.1400 
     23 CB         -1.5711  -21.3733  -42.4305 C.3       10 UNK        -0.1800 
     24 N          -2.5455  -19.6062  -43.8258 N.am      10 UNK        -0.5000 
     25 C          -3.4275  -19.0029  -44.6353 C.2       9 UNK         0.5000 
     26 O          -4.2780  -19.6048  -45.2915 O.2       9 UNK        -0.5000 
     27 CA         -3.3099  -17.4726  -44.7592 C.3       9 UNK         0.1400 
     28 CB         -3.9842  -16.7751  -43.5683 C.3       9 UNK        -0.1800 
     29 N          -1.9213  -17.0200  -44.8656 N.am      9 UNK        -0.5000 
     30 C          -1.1257  -17.2789  -45.9123 C.2       8 UNK         0.5000 
     31 O          -1.4811  -17.9212  -46.8966 O.2       8 UNK        -0.5000 
     32 CA          0.3213  -16.7696  -45.8371 C.3       8 UNK         0.1400 
     33 CB          0.4016  -15.3194  -46.3256 C.3       8 UNK        -0.1800 
     34 N           0.9185  -16.8567  -44.5054 N.am      8 UNK        -0.5000 
     35 C           1.0807  -17.9813  -43.7921 C.2       7 UNK         0.5000 
     36 O           0.5922  -19.0677  -44.1084 O.2       7 UNK        -0.5000 
     37 CA          1.9589  -17.8562  -42.5287 C.3       7 UNK         0.1400 
     38 CB          2.4307  -19.2185  -41.9806 C.3       7 UNK        -0.1800 
     39 N           3.0913  -16.9478  -42.7442 N.am      7 UNK        -0.5000 
     40 C           4.0689  -17.0626  -43.6587 C.2       6 UNK         0.5000 
     41 O           4.2480  -18.0636  -44.3528 O.2       6 UNK        -0.5000 
     42 CA          4.9764  -15.8346  -43.8722 C.3       6 UNK         0.1400 
     43 CB          4.7267  -15.2254  -45.2634 C.3       6 UNK        -0.1800 
     44 N           4.7585  -14.7994  -42.8585 N.am      6 UNK        -0.5000 
     45 C           5.4444  -14.7007  -41.7111 C.2       5 UNK         0.5000 
     46 O           6.4064  -15.4147  -41.4270 O.2       5 UNK        -0.5000 
     47 CA          4.9605  -13.6485  -40.6933 C.3       5 UNK         0.1400 
     48 CB          5.7990  -12.3659  -40.7900 C.3       5 UNK        -0.1800 
     49 N           3.5401  -13.3182  -40.8432 N.am      5 UNK        -0.5000 
     50 C           2.5400  -14.1337  -40.4756 C.2       4 UNK         0.5000 
     51 O           2.7190  -15.2379  -39.9625 O.2       4 UNK        -0.5000 
     52 CA          1.0990  -13.6722  -40.7672 C.3       4 UNK         0.1400 
     53 CB          0.5080  -12.9518  -39.5463 C.3       4 UNK        -0.1800 
     54 N           0.9756  -12.8056  -41.9402 N.am      4 UNK        -0.5000 
     55 C           1.2958  -13.1482  -43.1945 C.2       3 UNK         0.5000 
     56 O           1.7534  -14.2524  -43.4995 O.2       3 UNK        -0.5000 
     57 CA          1.1051  -12.0817  -44.2923 C.3       3 UNK         0.1400 
     58 CB          0.4360  -10.7756  -43.8077 C.3       3 UNK        -0.1800 
     59 N           2.3643  -11.7875  -44.9782 N.am      3 UNK        -0.5000 
     60 C           3.4998  -11.3331  -44.4236 C.2       2 UNK         0.5000 
     61 O           3.6234  -11.1176  -43.2166 O.2       2 UNK        -0.5000 
     62 CA          4.7004  -11.0902  -45.3623 C.3       2 UNK         0.1400 
     63 CB          6.0327  -11.4928  -44.7050 C.3       2 UNK        -0.1800 
     64 N           4.5531  -11.8171  -46.6257 N.am      2 UNK        -0.5000 
     65 C           4.2554  -11.2609  -47.8077 C.2       1 UNK         0.5000 
     66 O           4.1316  -10.0458  -47.9758 O.2       1 UNK        -0.5000 
     67 C          -1.3257  -21.4989  -47.9370 C.2       11 UNK         0.5000 
     68 O          -1.4359  -22.4833  -48.6683 O.2       11 UNK        -0.5000 
     69 N          -2.1015  -20.4096  -48.0343 N.am      12 UNK        -0.5000 
     70 CA         -3.1606  -20.2336  -49.0229 C.3       12 UNK         0.1400 
     71 CB         -3.6993  -18.7997  -48.9732 C.3       12 UNK        -0.1800 
     72 C          -4.3083  -21.2403  -48.8811 C.2       12 UNK         0.5000 
     73 O          -4.8300  -21.6848  -49.8994 O.2       12 UNK        -0.5000 
     74 N          -4.6655  -21.5921  -47.6388 N.am      13 UNK        -0.5000 
     75 CA         -5.6626  -22.6169  -47.3336 C.3       13 UNK         0.1400 
     76 CB         -6.0578  -22.5193  -45.8524 C.3       13 UNK        -0.1800 
     77 C          -5.1716  -24.0358  -47.6769 C.2       13 UNK         0.5000 
     78 O          -5.9457  -24.8384  -48.1982 O.2       13 UNK        -0.5000 
     79 N          -3.8961  -24.3181  -47.3794 N.am      14 UNK        -0.5000 
     80 CA         -3.2567  -25.6132  -47.6100 C.3       14 UNK         0.1400 
     81 CB         -1.9472  -25.6760  -46.8095 C.3       14 UNK        -0.1800 
     82 C          -2.9879  -25.9228  -49.0941 C.2       14 UNK         0.5000 
     83 O          -2.9536  -27.1009  -49.4523 O.2       14 UNK        -0.5000 
     84 N          -2.7836  -24.8764  -49.9098 N.am      15 UNK        -0.5000 
     85 CA         -2.4087  -24.9055  -51.3276 C.3       15 UNK         0.1400 
     86 CB         -2.4908  -23.4799  -51.8941 C.3       15 UNK        -0.1800 
     87 C          -3.2399  -25.8835  -52.1810 C.2       15 UNK         0.5000 
     88 O          -4.3823  -25.5796  -52.5310 O.2       15 UNK        -0.5000 
     89 N          -2.6535  -27.0573  -52.4590 N.am      16 UNK        -0.5000 
     90 CA         -3.2229  -28.1859  -53.2066 C.3       16 UNK         0.1400 
     91 CB         -3.4021  -27.8033  -54.6909 C.3       16 UNK        -0.1800 
     92 C          -4.5217  -28.7591  -52.5940 C.2       16 UNK         0.5000 
     93 O          -5.3201  -29.3536  -53.3192 O.2       16 UNK        -0.5000 
     94 N          -4.7411  -28.5312  -51.2887 N.am      17 UNK        -0.5000 
     95 CA         -5.9300  -28.8355  -50.4746 C.3       17 UNK         0.1400 
     96 CB         -6.1946  -30.3519  -50.4187 C.3       17 UNK        -0.1800 
     97 C          -7.2107  -28.0616  -50.8658 C.2       17 UNK         0.5000 
     98 O          -8.0497  -27.8086  -50.0013 O.2       17 UNK        -0.5000 
     99 N          -7.3372  -27.6828  -52.1424 N.am      18 UNK        -0.5000 
    100 CA        -8.4324  -26.9049  -52.7222 C.3       18 UNK         0.1400 
    101 CB        -8.4294  -27.1402  -54.2418 C.3       18 UNK        -0.1800 
    102 C         -8.3553  -25.3949  -52.4140 C.2       18 UNK         0.5000 
    103 O         -9.2889  -24.6695  -52.7590 O.2       18 UNK        -0.5000 
    104 N         -7.2494  -24.9521  -51.7991 N.am      19 UNK        -0.5000 
    105 CA        -6.8759  -23.5666  -51.5028 C.3       19 UNK         0.1400 
    106 CB        -7.9067  -22.8793  -50.5814 C.3       19 UNK        -0.1800 
    107 C         -6.5693  -22.7729  -52.7895 C.2       19 UNK         0.5000 
    108 O         -7.0209  -21.6384  -52.9620 O.2       19 UNK        -0.5000 
    109 N         -5.8118  -23.4091  -53.6905 N.am      20 UNK        -0.5000 
    110 CA        -5.4530  -22.9226  -55.0201 C.3       20 UNK         0.1400 
    111 CB        -5.1913  -24.1431  -55.9212 C.3       20 UNK        -0.1800 
    112 C         -4.2568  -21.9492  -54.9750 C.2       20 UNK         0.5000 
    113 O         -3.2177  -22.2157  -55.5823 O.2       20 UNK        -0.5000 
    114 N         -4.4191  -20.8391  -54.2487 N.am      21 UNK        -0.5000 
    115 CA        -3.4309  -19.7728  -54.1065 C.3       21 UNK         0.1400 
    116 CB        -2.3372  -20.1806  -53.0980 C.3       21 UNK        -0.1800 
    117 C         -4.1499  -18.4503  -53.7866 C.2       21 UNK         0.5000 
    118 O         -5.0525  -18.0698  -54.5341 O.2       21 UNK        -0.5000 
    119 N         -3.7342  -17.7615  -52.7151 N.am      22 UNK        -0.5000 
    120 CA        -4.1717  -16.4006  -52.3465 C.3       22 UNK         0.1400 
    121 C         -5.6593  -16.2611  -51.9011 C.2       22 UNK         0.5000 
    122 N         -6.3927  -17.3414  -51.6638 N.am      22 UNK        -0.7600 
    123 O         -6.1570  -15.1463  -51.7685 O.2       22 UNK        -0.5000 
    124 C124       -3.2345  -15.7397  -51.2955 C.3       23 UNK        -0.0398 
    125 S125       -1.4514  -15.9534  -51.6442 S.3       23 UNK        -0.2404 
    126 C126       -0.7464  -15.9649  -49.9637 C.3       23 UNK        -0.0205 
    127 H127        0.3178  -12.3453  -50.6588 H         1 UNK         0.0600 
    128 H128       -0.0330  -10.9581  -49.6151 H         1 UNK         0.0600 
    129 H129       -0.5833  -12.5715  -49.1580 H         1 UNK         0.0600 
    130 H130        2.6198  -11.7550  -50.5078 H         1 UNK         0.3000 
    131 H131        4.7021  -11.8327  -49.7910 H         1 UNK         0.0600 
    132 H132        5.3950  -13.7647  -48.2788 H         1 UNK         0.0800 
    133 H133        3.6982  -14.1615  -48.0707 H         1 UNK         0.0800 
    134 H134        5.0395  -16.9781  -50.2212 H         1 UNK         0.0800 
    135 H135        4.6761  -16.4027  -48.6171 H         1 UNK         0.0800 
    136 H136        1.8359  -15.1172  -49.7648 H         1 UNK         0.1150 
    137 H137       -0.5403  -18.6663  -49.9929 H         1 UNK         0.1150 
    138 H138        3.7239  -18.9742  -49.7574 H         1 UNK         0.1150 
    139 H139        0.4586  -20.8141  -50.1560 H         1 UNK         0.0800 
    140 H140        2.0882  -20.8632  -50.7666 H         1 UNK         0.0800 
    141 H141        0.6207  -19.6035  -47.4262 H         1 UNK         0.0800 
    142 H142        1.5472  -20.4734  -46.2492 H         1 UNK         0.0800 
    143 H143        0.0736  -22.5293  -46.6848 H         1 UNK         0.0600 
    144 H144       -0.4725  -20.2997  -45.0695 H         1 UNK         0.3000 
    145 H145       -3.4468  -21.4500  -43.4676 H         1 UNK         0.0600 
    146 H146       -1.9855  -20.9316  -41.5242 H         1 UNK         0.0600 
    147 H147       -1.5079  -22.4500  -42.2678 H         1 UNK         0.0600 
    148 H148       -0.5537  -21.0004  -42.5506 H         1 UNK         0.0600 
    149 H149       -1.8406  -19.0446  -43.3715 H         1 UNK         0.3000 
    150 H150       -3.8338  -17.1733  -45.6696 H         1 UNK         0.0600 
    151 H151       -5.0262  -17.0842  -43.4748 H         1 UNK         0.0600 
    152 H152       -3.9776  -15.6919  -43.6910 H         1 UNK         0.0600 
    153 H153       -3.4863  -17.0096  -42.6266 H         1 UNK         0.0600 
    154 H154       -1.5452  -16.4927  -44.0918 H         1 UNK         0.3000 
    155 H155        0.9256  -17.3849  -46.5063 H         1 UNK         0.0600 
    156 H156        1.4302  -14.9591  -46.3290 H         1 UNK         0.0600 
    157 H157       -0.1889  -14.6548  -45.6961 H         1 UNK         0.0600 
    158 H158        0.0235  -15.2230  -47.3417 H         1 UNK         0.0600 
    159 H159        1.3314  -15.9987  -44.1488 H         1 UNK         0.3000 
    160 H160        1.3335  -17.3908  -41.7657 H         1 UNK         0.0600 
    161 H161        2.9999  -19.7806  -42.7214 H         1 UNK         0.0600 
    162 H162        1.5808  -19.8354  -41.6872 H         1 UNK         0.0600 
    163 H163        3.0588  -19.0917  -41.0990 H         1 UNK         0.0600 
    164 H164        3.0499  -16.0826  -42.2248 H         1 UNK         0.3000 
    165 H165        6.0100  -16.1847  -43.8368 H         1 UNK         0.0600 
    166 H166        3.7363  -14.7750  -45.3363 H         1 UNK         0.0600 
    167 H167        5.4684  -14.4626  -45.4934 H         1 UNK         0.0600 
    168 H168        4.7994  -15.9827  -46.0452 H         1 UNK         0.0600 
    169 H169        3.9572  -14.1974  -42.9983 H         1 UNK         0.3000 
    170 H170        5.1099  -14.0682  -39.6961 H         1 UNK         0.0600 
    171 H171        6.8573  -12.5787  -40.6337 H         1 UNK         0.0600 
    172 H172        5.7019  -11.8935  -41.7659 H         1 UNK         0.0600 
    173 H173        5.4985  -11.6398  -40.0346 H         1 UNK         0.0600 
    174 H174        3.3211  -12.4422  -41.3020 H         1 UNK         0.3000 
    175 H175        0.5033  -14.5677  -40.9564 H         1 UNK         0.0600 
    176 H176        1.0443  -12.0279  -39.3260 H         1 UNK         0.0600 
    177 H177       -0.5414  -12.7024  -39.7045 H         1 UNK         0.0600 
    178 H178        0.5601  -13.5818  -38.6573 H         1 UNK         0.0600 
    179 H179        0.6336  -11.8703  -41.7740 H         1 UNK         0.3000 
    180 H180        0.4468  -12.5246  -45.0390 H         1 UNK         0.0600 
    181 H181        1.0342  -10.2545  -43.0594 H         1 UNK         0.0600 
    182 H182       -0.5466  -10.9710  -43.3766 H         1 UNK         0.0600 
    183 H183        0.2851  -10.0886  -44.6406 H         1 UNK         0.0600 
    184 H184        2.3471  -11.9723  -45.9767 H         1 UNK         0.3000 
    185 H185        4.7369  -10.0148  -45.5463 H         1 UNK         0.0600 
    186 H186        6.8633  -11.4014  -45.4051 H         1 UNK         0.0600 
    187 H187        6.2574  -10.8444  -43.8577 H         1 UNK         0.0600 
    188 H188        6.0144  -12.5178  -44.3360 H         1 UNK         0.0600 
    189 H189        4.6037  -12.8219  -46.5602 H         1 UNK         0.3000 
    190 H190       -1.9239  -19.6131  -47.4257 H         1 UNK         0.3000 
    191 H191       -2.7038  -20.3916  -49.9974 H         1 UNK         0.0600 
    192 H192       -2.9072  -18.0874  -49.1874 H         1 UNK         0.0600 
    193 H193       -4.4856  -18.6470  -49.7131 H         1 UNK         0.0600 
    194 H194       -4.1135  -18.5580  -47.9938 H         1 UNK         0.0600 
    195 H195       -4.2191  -21.1356  -46.8521 H         1 UNK         0.3000 
    196 H196       -6.5523  -22.4161  -47.9330 H         1 UNK         0.0600 
    197 H197       -6.8172  -23.2607  -45.6012 H         1 UNK         0.0600 
    198 H198       -6.4708  -21.5377  -45.6194 H         1 UNK         0.0600 
    199 H199       -5.2043  -22.6861  -45.1946 H         1 UNK         0.0600 
    200 H200       -3.3369  -23.6164  -46.9037 H         1 UNK         0.3000 
    201 H201       -3.9222  -26.3913  -47.2301 H         1 UNK         0.0600 
    202 H202       -2.1319  -25.5553  -45.7419 H         1 UNK         0.0600 
    203 H203       -1.2505  -24.8956  -47.1185 H         1 UNK         0.0600 
    204 H204       -1.4485  -26.6364  -46.9461 H         1 UNK         0.0600 
    205 H205       -2.7755  -23.9591  -49.4794 H         1 UNK         0.3000 
    206 H206       -1.3634  -25.2160  -51.3735 H         1 UNK         0.0600 
    207 H207       -1.8052  -22.8085  -51.3773 H         1 UNK         0.0600 
    208 H208       -2.2255  -23.4637  -52.9520 H         1 UNK         0.0600 
    209 H209       -3.4950  -23.0662  -51.8030 H         1 UNK         0.0600 
    210 H210       -1.7350  -27.2251  -52.0723 H         1 UNK         0.3000 
    211 H211       -2.4861  -28.9885  -53.1566 H         1 UNK         0.0600 
    212 H212       -4.2008  -27.0733  -54.8249 H         1 UNK         0.0600 
    213 H213       -3.6545  -28.6762  -55.2939 H         1 UNK         0.0600 
    214 H214       -2.4869  -27.3798  -55.1045 H         1 UNK         0.0600 
    215 H215       -4.0213  -28.0151  -50.7883 H         1 UNK         0.3000 
    216 H216       -5.6764  -28.5099  -49.4644 H         1 UNK         0.0600 
    217 H217       -5.3096  -30.8946  -50.0868 H         1 UNK         0.0600 
    218 H218       -6.4906  -30.7514  -51.3889 H         1 UNK         0.0600 
    219 H219       -6.9976  -30.5795  -49.7165 H         1 UNK         0.0600 
    220 H220       -6.6202  -28.0022  -52.7851 H         1 UNK         0.3000 
    221 H221       -9.3757  -27.2750  -52.3159 H         1 UNK         0.0600 
    222 H222       -7.5050  -26.7852  -54.6998 H         1 UNK         0.0600 
    223 H223       -8.5349  -28.1994  -54.4774 H         1 UNK         0.0600 
    224 H224       -9.2570  -26.6179  -54.7235 H         1 UNK         0.0600 
    225 H225       -6.5220  -25.6322  -51.6216 H         1 UNK         0.3000 
    226 H226       -5.9378  -23.6452  -50.9553 H         1 UNK         0.0600 
    227 H227       -8.0967  -23.4769  -49.6900 H         1 UNK         0.0600 
    228 H228       -7.5407  -21.9071  -50.2504 H         1 UNK         0.0600 
    229 H229       -8.8589  -22.7096  -51.0836 H         1 UNK         0.0600 
    230 H230       -5.4094  -24.3029  -53.4169 H         1 UNK         0.3000 
    231 H231       -6.3013  -22.3767  -55.4380 H         1 UNK         0.0600 
    232 H232       -4.9675  -23.8356  -56.9434 H         1 UNK         0.0600 
    233 H233       -6.0624  -24.7974  -55.9625 H         1 UNK         0.0600 
    234 H234       -4.3472  -24.7325  -55.5611 H         1 UNK         0.0600 
    235 H235       -5.3137  -20.6895  -53.7934 H         1 UNK         0.3000 
    236 H236       -2.9495  -19.6136  -55.0736 H         1 UNK         0.0600 
    237 H237       -1.7657  -21.0317  -53.4674 H         1 UNK         0.0600 
    238 H238       -1.6196  -19.3784  -52.9207 H         1 UNK         0.0600 
    239 H239       -2.7772  -20.4699  -52.1477 H         1 UNK         0.0600 
    240 H240       -2.9753  -18.1359  -52.1662 H         1 UNK         0.3000 
    241 H241       -4.0888  -15.8053  -53.2578 H         1 UNK         0.0600 
    242 H242       -6.0092  -18.2620  -51.7999 H         1 UNK         0.3800 
    243 H243       -7.3543  -17.2345  -51.3823 H         1 UNK         0.3800 
    244 H244       -3.4345  -14.6684  -51.2368 H         1 UNK         0.0800 
    245 H245       -3.4561  -16.1357  -50.3048 H         1 UNK         0.0800 
    246 H246       -1.4596  -16.3552  -49.2392 H         1 UNK         0.0800 
    247 H247       -0.5448  -14.9365  -49.6649 H         1 UNK         0.0800 
@<TRIPOS>BOND
     1    1    2 1    
     2    1  127 1    
     3    1  128 1    
     4    1  129 1    
     5    2    3 2    
     6    2    4 am   BACKBONE|DICT|INTERRES
     7    4    5 1    
     8    4  130 1    
     9    5    6 1    
    10    5   65 1    
    11    5  131 1    
    12    6    7 1    
    13    6  132 1    
    14    6  133 1    
    15    7    8 1    
    16    8    9 1    
    17    8  134 1    
    18    8  135 1    
    19    9   10 ar   
    20    9   14 ar   
    21   10   11 ar   
    22   10  136 1    
    23   11   12 ar   
    24   11  126 1    
    25   12   13 ar   
    26   12  137 1    
    27   13   14 ar   
    28   13   15 1    
    29   14  138 1    
    30   15   16 1    
    31   15  139 1    
    32   15  140 1    
    33   16   17 1    
    34   17   18 1    
    35   17  141 1    
    36   17  142 1    
    37   18   19 1    
    38   18   67 1    
    39   18  143 1    
    40   19   20 am   BACKBONE|DICT|INTERRES
    41   19  144 1    
    42   20   21 2    
    43   20   22 1    
    44   22   23 1    
    45   22   24 1    
    46   22  145 1    
    47   23  146 1    
    48   23  147 1    
    49   23  148 1    
    50   24   25 am   BACKBONE|DICT|INTERRES
    51   24  149 1    
    52   25   26 2    
    53   25   27 1    
    54   27   28 1    
    55   27   29 1    
    56   27  150 1    
    57   28  151 1    
    58   28  152 1    
    59   28  153 1    
    60   29   30 am   BACKBONE|DICT|INTERRES
    61   29  154 1    
    62   30   31 2    
    63   30   32 1    
    64   32   33 1    
    65   32   34 1    
    66   32  155 1    
    67   33  156 1    
    68   33  157 1    
    69   33  158 1    
    70   34   35 am   BACKBONE|DICT|INTERRES
    71   34  159 1    
    72   35   36 2    
    73   35   37 1    
    74   37   38 1    
    75   37   39 1    
    76   37  160 1    
    77   38  161 1    
    78   38  162 1    
    79   38  163 1    
    80   39   40 am   BACKBONE|DICT|INTERRES
    81   39  164 1    
    82   40   41 2    
    83   40   42 1    
    84   42   43 1    
    85   42   44 1    
    86   42  165 1    
    87   43  166 1    
    88   43  167 1    
    89   43  168 1    
    90   44   45 am   BACKBONE|DICT|INTERRES
    91   44  169 1    
    92   45   46 2    
    93   45   47 1    
    94   47   48 1    
    95   47   49 1    
    96   47  170 1    
    97   48  171 1    
    98   48  172 1    
    99   48  173 1    
   100   49   50 am   BACKBONE|DICT|INTERRES
   101   49  174 1    
   102   50   51 2    
   103   50   52 1    
   104   52   53 1    
   105   52   54 1    
   106   52  175 1    
   107   53  176 1    
   108   53  177 1    
   109   53  178 1    
   110   54   55 am   BACKBONE|DICT|INTERRES
   111   54  179 1    
   112   55   56 2    
   113   55   57 1    
   114   57   58 1    
   115   57   59 1    
   116   57  180 1    
   117   58  181 1    
   118   58  182 1    
   119   58  183 1    
   120   59   60 am   BACKBONE|DICT|INTERRES
   121   59  184 1    
   122   60   61 2    
   123   60   62 1    
   124   62   63 1    
   125   62   64 1    
   126   62  185 1    
   127   63  186 1    
   128   63  187 1    
   129   63  188 1    
   130   64   65 am   BACKBONE|DICT|INTERRES
   131   64  189 1    
   132   65   66 2    
   133   67   68 2    
   134   67   69 am   BACKBONE|DICT|INTERRES
   135   69   70 1    
   136   69  190 1    
   137   70   71 1    
   138   70   72 1    
   139   70  191 1    
   140   71  192 1    
   141   71  193 1    
   142   71  194 1    
   143   72   73 2    
   144   72   74 am   BACKBONE|DICT|INTERRES
   145   74   75 1    
   146   74  195 1    
   147   75   76 1    
   148   75   77 1    
   149   75  196 1    
   150   76  197 1    
   151   76  198 1    
   152   76  199 1    
   153   77   78 2    
   154   77   79 am   BACKBONE|DICT|INTERRES
   155   79   80 1    
   156   79  200 1    
   157   80   81 1    
   158   80   82 1    
   159   80  201 1    
   160   81  202 1    
   161   81  203 1    
   162   81  204 1    
   163   82   83 2    
   164   82   84 am   BACKBONE|DICT|INTERRES
   165   84   85 1    
   166   84  205 1    
   167   85   86 1    
   168   85   87 1    
   169   85  206 1    
   170   86  207 1    
   171   86  208 1    
   172   86  209 1    
   173   87   88 2    
   174   87   89 am   BACKBONE|DICT|INTERRES
   175   89   90 1    
   176   89  210 1    
   177   90   91 1    
   178   90   92 1    
   179   90  211 1    
   180   91  212 1    
   181   91  213 1    
   182   91  214 1    
   183   92   93 2    
   184   92   94 am   BACKBONE|DICT|INTERRES
   185   94   95 1    
   186   94  215 1    
   187   95   96 1    
   188   95   97 1    
   189   95  216 1    
   190   96  217 1    
   191   96  218 1    
   192   96  219 1    
   193   97   98 2    
   194   97   99 am   BACKBONE|DICT|INTERRES
   195   99  100 1    
   196   99  220 1    
   197  100  101 1    
   198  100  102 1    
   199  100  221 1    
   200  101  222 1    
   201  101  223 1    
   202  101  224 1    
   203  102  103 2    
   204  102  104 am   BACKBONE|DICT|INTERRES
   205  104  105 1    
   206  104  225 1    
   207  105  106 1    
   208  105  107 1    
   209  105  226 1    
   210  106  227 1    
   211  106  228 1    
   212  106  229 1    
   213  107  108 2    
   214  107  109 am   BACKBONE|DICT|INTERRES
   215  109  110 1    
   216  109  230 1    
   217  110  111 1    
   218  110  112 1    
   219  110  231 1    
   220  111  232 1    
   221  111  233 1    
   222  111  234 1    
   223  112  113 2    
   224  112  114 am   BACKBONE|DICT|INTERRES
   225  114  115 1    
   226  114  235 1    
   227  115  116 1    
   228  115  117 1    
   229  115  236 1    
   230  116  237 1    
   231  116  238 1    
   232  116  239 1    
   233  117  118 2    
   234  117  119 am   BACKBONE|DICT|INTERRES
   235  119  120 1    
   236  119  240 1    
   237  120  121 1    
   238  120  124 1    
   239  120  241 1    
   240  121  122 am   BACKBONE|DICT|INTERRES
   241  121  123 2    
   242  122  242 1    
   243  122  243 1    
   244  124  125 1    
   245  124  244 1    
   246  124  245 1    
   247  125  126 1    
   248  126  246 1    
   249  126  247 1    
@<TRIPOS>SUBSTRUCTURE
     1 UNK         1 GROUP             0       ****    0 ROOT    
