@<TRIPOS>MOLECULE
3R540
247   249    1
SMALL
USER_CHARGES


@<TRIPOS>ATOM
      1 CA          0.5870  -10.2177  -51.4427 C.3       0 UNK        -0.1800 
      2 C           1.0076  -10.6745  -50.0533 C.2       0 UNK         0.5000 
      3 O           0.2211  -10.5722  -49.1122 O.2       0 UNK        -0.5000 
      4 N           2.2516  -11.1537  -49.9182 N.am      1 UNK        -0.5000 
      5 CA          2.8921  -11.7166  -48.7151 C.3       1 UNK         0.1400 
      6 C6          2.1405  -12.9283  -48.1069 C.3       23 UNK        -0.0398 
      7 S7          1.8656  -14.2964  -49.2790 S.3       23 UNK        -0.2404 
      8 C8          1.5475  -15.6599  -48.1137 C.3       23 UNK        -0.0205 
      9 C9          0.7870  -16.7983  -48.7752 C.ar      23 UNK        -0.0193 
     10 C10        -0.5432  -16.6101  -49.1579 C.ar      23 UNK        -0.1150 
     11 C11        -1.2655  -17.6435  -49.7590 C.ar      23 UNK        -0.0193 
     12 C12        -0.6487  -18.8804  -49.9707 C.ar      23 UNK        -0.1150 
     13 C13         0.6834  -19.0811  -49.5958 C.ar      23 UNK        -0.0193 
     14 C14         1.3959  -18.0371  -48.9956 C.ar      23 UNK        -0.1150 
     15 C15         1.3654  -20.4139  -49.8661 C.3       23 UNK        -0.0205 
     16 S16         1.4211  -21.4662  -48.3839 S.3       23 UNK        -0.2404 
     17 C17        -0.3060  -22.0379  -48.2773 C.3       23 UNK        -0.0398 
     18 CA         -0.4401  -23.2491  -47.3239 C.3       11 UNK         0.1400 
     19 N          -0.2646  -22.8567  -45.9214 N.am      11 UNK        -0.5000 
     20 C          -0.2143  -23.6953  -44.8779 C.2       10 UNK         0.5000 
     21 O          -0.2794  -24.9176  -44.9795 O.2       10 UNK        -0.5000 
     22 CA         -0.1453  -23.0621  -43.4786 C.3       10 UNK         0.1400 
     23 CB          1.2782  -22.5897  -43.1456 C.3       10 UNK        -0.1800 
     24 N          -1.0898  -21.9541  -43.3424 N.am      10 UNK        -0.5000 
     25 C          -2.4222  -22.1015  -43.3228 C.2       9 UNK         0.5000 
     26 O          -2.9889  -23.1937  -43.3625 O.2       9 UNK        -0.5000 
     27 CA         -3.2613  -20.8113  -43.2966 C.3       9 UNK         0.1400 
     28 CB         -3.4298  -20.3009  -41.8582 C.3       9 UNK        -0.1800 
     29 N          -2.6832  -19.7524  -44.1245 N.am      9 UNK        -0.5000 
     30 C          -2.6131  -19.7969  -45.4633 C.2       8 UNK         0.5000 
     31 O          -3.0560  -20.7250  -46.1380 O.2       8 UNK        -0.5000 
     32 CA         -1.8694  -18.6412  -46.1595 C.3       8 UNK         0.1400 
     33 CB         -2.8219  -17.4608  -46.3965 C.3       8 UNK        -0.1800 
     34 N          -0.6955  -18.1856  -45.4110 N.am      8 UNK        -0.5000 
     35 C           0.3429  -18.9723  -45.0850 C.2       7 UNK         0.5000 
     36 O           0.4283  -20.1491  -45.4288 O.2       7 UNK        -0.5000 
     37 CA          1.4465  -18.3901  -44.1825 C.3       7 UNK         0.1400 
     38 CB          2.7118  -18.1066  -45.0040 C.3       7 UNK        -0.1800 
     39 N           1.0424  -17.1833  -43.4588 N.am      7 UNK        -0.5000 
     40 C           0.0965  -17.1448  -42.5059 C.2       6 UNK         0.5000 
     41 O          -0.5071  -18.1446  -42.1139 O.2       6 UNK        -0.5000 
     42 CA         -0.2744  -15.7655  -41.9187 C.3       6 UNK         0.1400 
     43 CB          0.4227  -15.5552  -40.5664 C.3       6 UNK        -0.1800 
     44 N           0.0441  -14.6359  -42.7957 N.am      6 UNK        -0.5000 
     45 C          -0.4536  -14.4425  -44.0254 C.2       5 UNK         0.5000 
     46 O          -1.3048  -15.1704  -44.5362 O.2       5 UNK        -0.5000 
     47 CA          0.1464  -13.2861  -44.8513 C.3       5 UNK         0.1400 
     48 CB         -0.7580  -12.0483  -44.7831 C.3       5 UNK        -0.1800 
     49 N           1.5238  -12.9108  -44.4941 N.am      5 UNK        -0.5000 
     50 C           2.5775  -13.7450  -44.4694 C.2       4 UNK         0.5000 
     51 O           2.4822  -14.9417  -44.7369 O.2       4 UNK        -0.5000 
     52 CA          3.9619  -13.1789  -44.0927 C.3       4 UNK         0.1400 
     53 CB          5.0424  -13.6310  -45.0904 C.3       4 UNK        -0.1800 
     54 N           3.9825  -11.7191  -43.9943 N.am      4 UNK        -0.5000 
     55 C           3.7019  -11.0237  -42.8829 C.2       3 UNK         0.5000 
     56 O           3.3907  -11.5500  -41.8142 O.2       3 UNK        -0.5000 
     57 CA          3.7572   -9.4843  -42.9763 C.3       3 UNK         0.1400 
     58 CB          5.0892   -8.9608  -42.4179 C.3       3 UNK        -0.1800 
     59 N           3.5760   -8.9647  -44.3341 N.am      3 UNK        -0.5000 
     60 C           2.4556   -9.0838  -45.0582 C.2       2 UNK         0.5000 
     61 O           1.4373   -9.6351  -44.6402 O.2       2 UNK        -0.5000 
     62 CA          2.4772   -8.5403  -46.5017 C.3       2 UNK         0.1400 
     63 CB          3.6828   -7.6267  -46.8184 C.3       2 UNK        -0.1800 
     64 N           2.3886   -9.6283  -47.4797 N.am      2 UNK        -0.5000 
     65 C           3.2107  -10.6789  -47.6120 C.2       1 UNK         0.5000 
     66 O           4.2017  -10.8543  -46.9013 O.2       1 UNK        -0.5000 
     67 C          -1.7688  -23.9973  -47.5574 C.2       11 UNK         0.5000 
     68 O          -1.7809  -25.0007  -48.2761 O.2       11 UNK        -0.5000 
     69 N          -2.8523  -23.5222  -46.9249 N.am      12 UNK        -0.5000 
     70 CA         -4.1588  -24.1781  -46.9080 C.3       12 UNK         0.1400 
     71 CB         -5.1931  -23.2786  -46.2122 C.3       12 UNK        -0.1800 
     72 C          -4.1104  -25.5649  -46.2413 C.2       12 UNK         0.5000 
     73 O          -4.5926  -26.5352  -46.8253 O.2       12 UNK        -0.5000 
     74 N          -3.5130  -25.6340  -45.0445 N.am      13 UNK        -0.5000 
     75 CA         -3.3978  -26.8557  -44.2486 C.3       13 UNK         0.1400 
     76 CB         -2.9205  -26.4942  -42.8337 C.3       13 UNK        -0.1800 
     77 C          -2.4754  -27.9201  -44.8717 C.2       13 UNK         0.5000 
     78 O          -2.7921  -29.1081  -44.7964 O.2       13 UNK        -0.5000 
     79 N          -1.3472  -27.4839  -45.4479 N.am      14 UNK        -0.5000 
     80 CA         -0.2955  -28.3523  -45.9738 C.3       14 UNK         0.1400 
     81 CB          0.9684  -27.5253  -46.2602 C.3       14 UNK        -0.1800 
     82 C          -0.7125  -29.1431  -47.2231 C.2       14 UNK         0.5000 
     83 O          -0.5060  -30.3575  -47.2608 O.2       14 UNK        -0.5000 
     84 N          -1.2564  -28.4468  -48.2302 N.am      15 UNK        -0.5000 
     85 CA         -1.5133  -29.0267  -49.5526 C.3       15 UNK         0.1400 
     86 CB         -0.2012  -29.0377  -50.3658 C.3       15 UNK        -0.1800 
     87 C          -2.6454  -28.3244  -50.3216 C.2       15 UNK         0.5000 
     88 O          -2.7748  -28.5544  -51.5250 O.2       15 UNK        -0.5000 
     89 N          -3.4297  -27.4700  -49.6447 N.am      16 UNK        -0.5000 
     90 CA         -4.4717  -26.6084  -50.2225 C.3       16 UNK         0.1400 
     91 CB         -5.6518  -27.4422  -50.7640 C.3       16 UNK        -0.1800 
     92 C          -3.9172  -25.6058  -51.2591 C.2       16 UNK         0.5000 
     93 O          -4.6208  -25.2241  -52.1937 O.2       16 UNK        -0.5000 
     94 N          -2.6627  -25.1737  -51.0692 N.am      17 UNK        -0.5000 
     95 CA         -1.9344  -24.2874  -51.9811 C.3       17 UNK         0.1400 
     96 CB         -0.4381  -24.3339  -51.6332 C.3       17 UNK        -0.1800 
     97 C          -2.4703  -22.8418  -51.9940 C.2       17 UNK         0.5000 
     98 O          -2.2054  -22.1046  -52.9415 O.2       17 UNK        -0.5000 
     99 N          -3.2363  -22.4768  -50.9586 N.am      18 UNK        -0.5000 
    100 CA        -3.9412  -21.2030  -50.8302 C.3       18 UNK         0.1400 
    101 CB        -4.1569  -20.9318  -49.3342 C.3       18 UNK        -0.1800 
    102 C         -5.2857  -21.1582  -51.5872 C.2       18 UNK         0.5000 
    103 O         -5.9124  -20.0996  -51.6178 O.2       18 UNK        -0.5000 
    104 N         -5.7320  -22.2849  -52.1657 N.am      19 UNK        -0.5000 
    105 CA        -7.0123  -22.3936  -52.8758 C.3       19 UNK         0.1400 
    106 CB        -7.3898  -23.8762  -53.0176 C.3       19 UNK        -0.1800 
    107 C         -7.0322  -21.6997  -54.2541 C.2       19 UNK         0.5000 
    108 O         -8.1140  -21.5119  -54.8130 O.2       19 UNK        -0.5000 
    109 N         -5.8579  -21.3366  -54.7811 N.am      20 UNK        -0.5000 
    110 CA        -5.6780  -20.6131  -56.0344 C.3       20 UNK         0.1400 
    111 CB        -5.3117  -21.6094  -57.1467 C.3       20 UNK        -0.1800 
    112 C         -4.5753  -19.5618  -55.8498 C.2       20 UNK         0.5000 
    113 O         -3.7146  -19.7266  -54.9831 O.2       20 UNK        -0.5000 
    114 N         -4.6263  -18.5077  -56.6773 N.am      21 UNK        -0.5000 
    115 CA        -3.6906  -17.3731  -56.7386 C.3       21 UNK         0.1400 
    116 CB        -2.2823  -17.8472  -57.1565 C.3       21 UNK        -0.1800 
    117 C         -3.6621  -16.4873  -55.4706 C.2       21 UNK         0.5000 
    118 O         -2.7269  -15.7034  -55.2977 O.2       21 UNK        -0.5000 
    119 N         -4.6943  -16.6020  -54.6287 N.am      22 UNK        -0.5000 
    120 CA        -4.8946  -15.8502  -53.3840 C.3       22 UNK         0.1400 
    121 C         -6.3429  -15.2981  -53.3322 C.2       22 UNK         0.5000 
    122 N         -6.5556  -14.1587  -52.6885 N.am      22 UNK        -0.7600 
    123 O         -7.2827  -15.9047  -53.8438 O.2       22 UNK        -0.5000 
    124 C124       -4.6029  -16.7213  -52.1338 C.3       23 UNK        -0.0398 
    125 S125       -2.8403  -17.1632  -51.9729 S.3       23 UNK        -0.2404 
    126 C126       -2.7085  -17.4159  -50.1778 C.3       23 UNK        -0.0205 
    127 H127        0.3166   -9.1620  -51.4250 H         1 UNK         0.0600 
    128 H128       -0.2800  -10.7875  -51.7769 H         1 UNK         0.0600 
    129 H129        1.3847  -10.3529  -52.1735 H         1 UNK         0.0600 
    130 H130        2.8399  -11.1698  -50.7397 H         1 UNK         0.3000 
    131 H131        3.8612  -12.0821  -49.0590 H         1 UNK         0.0600 
    132 H132        1.1745  -12.6187  -47.7076 H         1 UNK         0.0800 
    133 H133        2.7093  -13.3297  -47.2693 H         1 UNK         0.0800 
    134 H134        2.4995  -16.0057  -47.7092 H         1 UNK         0.0800 
    135 H135        0.9636  -15.3023  -47.2659 H         1 UNK         0.0800 
    136 H136       -1.0130  -15.6508  -48.9918 H         1 UNK         0.1150 
    137 H137       -1.2002  -19.6807  -50.4424 H         1 UNK         0.1150 
    138 H138        2.4249  -18.1918  -48.7028 H         1 UNK         0.1150 
    139 H139        0.8703  -20.9455  -50.6804 H         1 UNK         0.0800 
    140 H140        2.3870  -20.2323  -50.2027 H         1 UNK         0.0800 
    141 H141       -0.6455  -22.2836  -49.2833 H         1 UNK         0.0800 
    142 H142       -0.9304  -21.2103  -47.9401 H         1 UNK         0.0800 
    143 H143        0.3540  -23.9608  -47.5603 H         1 UNK         0.0600 
    144 H144       -0.1407  -21.8608  -45.7477 H         1 UNK         0.3000 
    145 H145       -0.4204  -23.8298  -42.7521 H         1 UNK         0.0600 
    146 H146        1.3280  -22.1621  -42.1442 H         1 UNK         0.0600 
    147 H147        1.9787  -23.4251  -43.1774 H         1 UNK         0.0600 
    148 H148        1.6375  -21.8393  -43.8491 H         1 UNK         0.0600 
    149 H149       -0.7058  -21.0209  -43.3565 H         1 UNK         0.3000 
    150 H150       -4.2510  -21.0495  -43.6920 H         1 UNK         0.0600 
    151 H151       -3.8859  -21.0633  -41.2252 H         1 UNK         0.0600 
    152 H152       -4.0741  -19.4223  -41.8243 H         1 UNK         0.0600 
    153 H153       -2.4722  -20.0321  -41.4104 H         1 UNK         0.0600 
    154 H154       -2.2529  -18.9768  -43.6390 H         1 UNK         0.3000 
    155 H155       -1.5215  -19.0024  -47.1283 H         1 UNK         0.0600 
    156 H156       -3.2236  -17.0735  -45.4594 H         1 UNK         0.0600 
    157 H157       -3.6658  -17.7605  -47.0192 H         1 UNK         0.0600 
    158 H158       -2.3176  -16.6391  -46.9039 H         1 UNK         0.0600 
    159 H159       -0.7102  -17.2275  -45.0828 H         1 UNK         0.3000 
    160 H160        1.6919  -19.1527  -43.4406 H         1 UNK         0.0600 
    161 H161        2.5187  -17.3843  -45.7960 H         1 UNK         0.0600 
    162 H162        3.0811  -19.0171  -45.4779 H         1 UNK         0.0600 
    163 H163        3.5136  -17.7149  -44.3781 H         1 UNK         0.0600 
    164 H164        1.4834  -16.3181  -43.7576 H         1 UNK         0.3000 
    165 H165       -1.3537  -15.7630  -41.7540 H         1 UNK         0.0600 
    166 H166        0.1021  -14.6251  -40.0968 H         1 UNK         0.0600 
    167 H167        0.1866  -16.3649  -39.8745 H         1 UNK         0.0600 
    168 H168        1.5076  -15.5214  -40.6748 H         1 UNK         0.0600 
    169 H169        0.7462  -13.9912  -42.4636 H         1 UNK         0.3000 
    170 H170        0.1589  -13.6277  -45.8856 H         1 UNK         0.0600 
    171 H171       -1.7970  -12.3059  -44.9934 H         1 UNK         0.0600 
    172 H172       -0.7263  -11.5802  -43.7986 H         1 UNK         0.0600 
    173 H173       -0.4587  -11.3044  -45.5215 H         1 UNK         0.0600 
    174 H174        1.6771  -11.9343  -44.2765 H         1 UNK         0.3000 
    175 H175        4.2188  -13.6068  -43.1216 H         1 UNK         0.0600 
    176 H176        4.8290  -13.2945  -46.1042 H         1 UNK         0.0600 
    177 H177        6.0227  -13.2453  -44.8100 H         1 UNK         0.0600 
    178 H178        5.1213  -14.7186  -45.1185 H         1 UNK         0.0600 
    179 H179        4.1955  -11.2163  -44.8500 H         1 UNK         0.3000 
    180 H180        2.9484   -9.0915  -42.3567 H         1 UNK         0.0600 
    181 H181        5.9368   -9.3043  -43.0122 H         1 UNK         0.0600 
    182 H182        5.2458   -9.3030  -41.3940 H         1 UNK         0.0600 
    183 H183        5.1094   -7.8709  -42.4008 H         1 UNK         0.0600 
    184 H184        4.3788   -8.5263  -44.7618 H         1 UNK         0.3000 
    185 H185        1.5711   -7.9437  -46.6164 H         1 UNK         0.0600 
    186 H186        3.7323   -6.7860  -46.1252 H         1 UNK         0.0600 
    187 H187        4.6336   -8.1582  -46.7684 H         1 UNK         0.0600 
    188 H188        3.5961   -7.2078  -47.8210 H         1 UNK         0.0600 
    189 H189        1.5535   -9.6365  -48.0575 H         1 UNK         0.3000 
    190 H190       -2.7782  -22.6517  -46.4063 H         1 UNK         0.3000 
    191 H191       -4.4742  -24.3065  -47.9435 H         1 UNK         0.0600 
    192 H192       -5.2705  -22.3058  -46.6955 H         1 UNK         0.0600 
    193 H193       -6.1840  -23.7333  -46.2393 H         1 UNK         0.0600 
    194 H194       -4.9428  -23.1052  -45.1661 H         1 UNK         0.0600 
    195 H195       -3.1591  -24.7823  -44.6204 H         1 UNK         0.3000 
    196 H196       -4.3947  -27.2937  -44.1653 H         1 UNK         0.0600 
    197 H197       -2.8375  -27.3837  -42.2080 H         1 UNK         0.0600 
    198 H198       -3.6192  -25.8159  -42.3437 H         1 UNK         0.0600 
    199 H199       -1.9430  -26.0107  -42.8512 H         1 UNK         0.0600 
    200 H200       -1.1307  -26.4900  -45.4062 H         1 UNK         0.3000 
    201 H201       -0.0460  -29.0775  -45.1963 H         1 UNK         0.0600 
    202 H202        1.3624  -27.0814  -45.3459 H         1 UNK         0.0600 
    203 H203        0.7712  -26.7173  -46.9661 H         1 UNK         0.0600 
    204 H204        1.7584  -28.1473  -46.6831 H         1 UNK         0.0600 
    205 H205       -1.3775  -27.4470  -48.1302 H         1 UNK         0.3000 
    206 H206       -1.8489  -30.0585  -49.4294 H         1 UNK         0.0600 
    207 H207        0.5814  -29.5985  -49.8549 H         1 UNK         0.0600 
    208 H208       -0.3398  -29.5063  -51.3408 H         1 UNK         0.0600 
    209 H209        0.1690  -28.0260  -50.5358 H         1 UNK         0.0600 
    210 H210       -3.2958  -27.3694  -48.6472 H         1 UNK         0.3000 
    211 H211       -4.8621  -26.0048  -49.4060 H         1 UNK         0.0600 
    212 H212       -5.3736  -28.0203  -51.6453 H         1 UNK         0.0600 
    213 H213       -6.4856  -26.7992  -51.0483 H         1 UNK         0.0600 
    214 H214       -6.0220  -28.1359  -50.0092 H         1 UNK         0.0600 
    215 H215       -2.1752  -25.4648  -50.2287 H         1 UNK         0.3000 
    216 H216       -2.0538  -24.6752  -52.9950 H         1 UNK         0.0600 
    217 H217        0.1323  -23.6295  -52.2402 H         1 UNK         0.0600 
    218 H218       -0.0278  -25.3266  -51.8191 H         1 UNK         0.0600 
    219 H219       -0.2539  -24.0950  -50.5871 H         1 UNK         0.0600 
    220 H220       -3.4044  -23.1608  -50.2368 H         1 UNK         0.3000 
    221 H221       -3.3195  -20.4058  -51.2420 H         1 UNK         0.0600 
    222 H222       -4.7203  -21.7367  -48.8643 H         1 UNK         0.0600 
    223 H223       -3.2056  -20.8357  -48.8126 H         1 UNK         0.0600 
    224 H224       -4.7128  -20.0089  -49.1669 H         1 UNK         0.0600 
    225 H225       -5.1732  -23.1286  -52.1184 H         1 UNK         0.3000 
    226 H226       -7.7786  -21.9130  -52.2640 H         1 UNK         0.0600 
    227 H227       -7.3988  -24.3786  -52.0501 H         1 UNK         0.0600 
    228 H228       -8.3853  -23.9866  -53.4492 H         1 UNK         0.0600 
    229 H229       -6.6929  -24.4068  -53.6674 H         1 UNK         0.0600 
    230 H230       -5.0133  -21.4564  -54.2363 H         1 UNK         0.3000 
    231 H231       -6.5997  -20.0930  -56.3041 H         1 UNK         0.0600 
    232 H232       -6.1005  -22.3485  -57.2883 H         1 UNK         0.0600 
    233 H233       -4.3889  -22.1442  -56.9179 H         1 UNK         0.0600 
    234 H234       -5.1692  -21.0993  -58.1001 H         1 UNK         0.0600 
    235 H235       -5.3818  -18.4693  -57.3479 H         1 UNK         0.3000 
    236 H236       -4.0623  -16.7275  -57.5355 H         1 UNK         0.0600 
    237 H237       -1.6299  -16.9997  -57.3700 H         1 UNK         0.0600 
    238 H238       -1.8042  -18.4357  -56.3730 H         1 UNK         0.0600 
    239 H239       -2.3224  -18.4576  -58.0586 H         1 UNK         0.0600 
    240 H240       -5.4511  -17.2236  -54.8744 H         1 UNK         0.3000 
    241 H241       -4.2247  -14.9880  -53.3703 H         1 UNK         0.0600 
    242 H242       -5.8034  -13.6434  -52.2571 H         1 UNK         0.3800 
    243 H243       -7.4945  -13.7938  -52.6382 H         1 UNK         0.3800 
    244 H244       -5.1916  -17.6387  -52.1618 H         1 UNK         0.0800 
    245 H245       -4.9049  -16.1920  -51.2284 H         1 UNK         0.0800 
    246 H246       -3.3184  -18.2678  -49.8831 H         1 UNK         0.0800 
    247 H247       -3.1182  -16.5493  -49.6565 H         1 UNK         0.0800 
@<TRIPOS>BOND
     1    1    2 1    
     2    1  127 1    
     3    1  128 1    
     4    1  129 1    
     5    2    3 2    
     6    2    4 am   BACKBONE|DICT|INTERRES
     7    4    5 1    
     8    4  130 1    
     9    5    6 1    
    10    5   65 1    
    11    5  131 1    
    12    6    7 1    
    13    6  132 1    
    14    6  133 1    
    15    7    8 1    
    16    8    9 1    
    17    8  134 1    
    18    8  135 1    
    19    9   10 ar   
    20    9   14 ar   
    21   10   11 ar   
    22   10  136 1    
    23   11   12 ar   
    24   11  126 1    
    25   12   13 ar   
    26   12  137 1    
    27   13   14 ar   
    28   13   15 1    
    29   14  138 1    
    30   15   16 1    
    31   15  139 1    
    32   15  140 1    
    33   16   17 1    
    34   17   18 1    
    35   17  141 1    
    36   17  142 1    
    37   18   19 1    
    38   18   67 1    
    39   18  143 1    
    40   19   20 am   BACKBONE|DICT|INTERRES
    41   19  144 1    
    42   20   21 2    
    43   20   22 1    
    44   22   23 1    
    45   22   24 1    
    46   22  145 1    
    47   23  146 1    
    48   23  147 1    
    49   23  148 1    
    50   24   25 am   BACKBONE|DICT|INTERRES
    51   24  149 1    
    52   25   26 2    
    53   25   27 1    
    54   27   28 1    
    55   27   29 1    
    56   27  150 1    
    57   28  151 1    
    58   28  152 1    
    59   28  153 1    
    60   29   30 am   BACKBONE|DICT|INTERRES
    61   29  154 1    
    62   30   31 2    
    63   30   32 1    
    64   32   33 1    
    65   32   34 1    
    66   32  155 1    
    67   33  156 1    
    68   33  157 1    
    69   33  158 1    
    70   34   35 am   BACKBONE|DICT|INTERRES
    71   34  159 1    
    72   35   36 2    
    73   35   37 1    
    74   37   38 1    
    75   37   39 1    
    76   37  160 1    
    77   38  161 1    
    78   38  162 1    
    79   38  163 1    
    80   39   40 am   BACKBONE|DICT|INTERRES
    81   39  164 1    
    82   40   41 2    
    83   40   42 1    
    84   42   43 1    
    85   42   44 1    
    86   42  165 1    
    87   43  166 1    
    88   43  167 1    
    89   43  168 1    
    90   44   45 am   BACKBONE|DICT|INTERRES
    91   44  169 1    
    92   45   46 2    
    93   45   47 1    
    94   47   48 1    
    95   47   49 1    
    96   47  170 1    
    97   48  171 1    
    98   48  172 1    
    99   48  173 1    
   100   49   50 am   BACKBONE|DICT|INTERRES
   101   49  174 1    
   102   50   51 2    
   103   50   52 1    
   104   52   53 1    
   105   52   54 1    
   106   52  175 1    
   107   53  176 1    
   108   53  177 1    
   109   53  178 1    
   110   54   55 am   BACKBONE|DICT|INTERRES
   111   54  179 1    
   112   55   56 2    
   113   55   57 1    
   114   57   58 1    
   115   57   59 1    
   116   57  180 1    
   117   58  181 1    
   118   58  182 1    
   119   58  183 1    
   120   59   60 am   BACKBONE|DICT|INTERRES
   121   59  184 1    
   122   60   61 2    
   123   60   62 1    
   124   62   63 1    
   125   62   64 1    
   126   62  185 1    
   127   63  186 1    
   128   63  187 1    
   129   63  188 1    
   130   64   65 am   BACKBONE|DICT|INTERRES
   131   64  189 1    
   132   65   66 2    
   133   67   68 2    
   134   67   69 am   BACKBONE|DICT|INTERRES
   135   69   70 1    
   136   69  190 1    
   137   70   71 1    
   138   70   72 1    
   139   70  191 1    
   140   71  192 1    
   141   71  193 1    
   142   71  194 1    
   143   72   73 2    
   144   72   74 am   BACKBONE|DICT|INTERRES
   145   74   75 1    
   146   74  195 1    
   147   75   76 1    
   148   75   77 1    
   149   75  196 1    
   150   76  197 1    
   151   76  198 1    
   152   76  199 1    
   153   77   78 2    
   154   77   79 am   BACKBONE|DICT|INTERRES
   155   79   80 1    
   156   79  200 1    
   157   80   81 1    
   158   80   82 1    
   159   80  201 1    
   160   81  202 1    
   161   81  203 1    
   162   81  204 1    
   163   82   83 2    
   164   82   84 am   BACKBONE|DICT|INTERRES
   165   84   85 1    
   166   84  205 1    
   167   85   86 1    
   168   85   87 1    
   169   85  206 1    
   170   86  207 1    
   171   86  208 1    
   172   86  209 1    
   173   87   88 2    
   174   87   89 am   BACKBONE|DICT|INTERRES
   175   89   90 1    
   176   89  210 1    
   177   90   91 1    
   178   90   92 1    
   179   90  211 1    
   180   91  212 1    
   181   91  213 1    
   182   91  214 1    
   183   92   93 2    
   184   92   94 am   BACKBONE|DICT|INTERRES
   185   94   95 1    
   186   94  215 1    
   187   95   96 1    
   188   95   97 1    
   189   95  216 1    
   190   96  217 1    
   191   96  218 1    
   192   96  219 1    
   193   97   98 2    
   194   97   99 am   BACKBONE|DICT|INTERRES
   195   99  100 1    
   196   99  220 1    
   197  100  101 1    
   198  100  102 1    
   199  100  221 1    
   200  101  222 1    
   201  101  223 1    
   202  101  224 1    
   203  102  103 2    
   204  102  104 am   BACKBONE|DICT|INTERRES
   205  104  105 1    
   206  104  225 1    
   207  105  106 1    
   208  105  107 1    
   209  105  226 1    
   210  106  227 1    
   211  106  228 1    
   212  106  229 1    
   213  107  108 2    
   214  107  109 am   BACKBONE|DICT|INTERRES
   215  109  110 1    
   216  109  230 1    
   217  110  111 1    
   218  110  112 1    
   219  110  231 1    
   220  111  232 1    
   221  111  233 1    
   222  111  234 1    
   223  112  113 2    
   224  112  114 am   BACKBONE|DICT|INTERRES
   225  114  115 1    
   226  114  235 1    
   227  115  116 1    
   228  115  117 1    
   229  115  236 1    
   230  116  237 1    
   231  116  238 1    
   232  116  239 1    
   233  117  118 2    
   234  117  119 am   BACKBONE|DICT|INTERRES
   235  119  120 1    
   236  119  240 1    
   237  120  121 1    
   238  120  124 1    
   239  120  241 1    
   240  121  122 am   BACKBONE|DICT|INTERRES
   241  121  123 2    
   242  122  242 1    
   243  122  243 1    
   244  124  125 1    
   245  124  244 1    
   246  124  245 1    
   247  125  126 1    
   248  126  246 1    
   249  126  247 1    
@<TRIPOS>SUBSTRUCTURE
     1 UNK         1 GROUP             0       ****    0 ROOT    
