@<TRIPOS>MOLECULE
3R540
247   249    1
SMALL
USER_CHARGES


@<TRIPOS>ATOM
      1 CA         -0.2868  -16.8010  -49.0035 C.3       0 UNK        -0.1800 
      2 C          -0.6852  -15.5301  -49.7334 C.2       0 UNK         0.5000 
      3 O          -1.8652  -15.3261  -50.0163 O.2       0 UNK        -0.5000 
      4 N           0.2978  -14.6809  -50.0500 N.am      1 UNK        -0.5000 
      5 CA          0.1305  -13.4104  -50.7707 C.3       1 UNK         0.1400 
      6 C6          1.4878  -12.8862  -51.3026 C.3       23 UNK        -0.0398 
      7 S7          2.7583  -12.6812  -50.0017 S.3       23 UNK        -0.2404 
      8 C8          4.1892  -13.5448  -50.7257 C.3       23 UNK        -0.0205 
      9 C9          4.0485  -15.0615  -50.6991 C.ar      23 UNK        -0.0193 
     10 C10         3.9516  -15.7860  -51.8907 C.ar      23 UNK        -0.1150 
     11 C11         3.9151  -17.1828  -51.8673 C.ar      23 UNK        -0.0193 
     12 C12         3.9440  -17.8527  -50.6412 C.ar      23 UNK        -0.1150 
     13 C13         4.0168  -17.1436  -49.4345 C.ar      23 UNK        -0.0193 
     14 C14         4.0830  -15.7470  -49.4811 C.ar      23 UNK        -0.1150 
     15 C15         4.0771  -17.8301  -48.0653 C.3       23 UNK        -0.0205 
     16 S16         3.6918  -19.6154  -48.0323 S.3       23 UNK        -0.2404 
     17 C17         1.9007  -19.6000  -48.3815 C.3       23 UNK        -0.0398 
     18 CA          1.3370  -21.0176  -48.6509 C.3       11 UNK         0.1400 
     19 N           1.5706  -21.9004  -47.5097 N.am      11 UNK        -0.5000 
     20 C           1.8871  -23.1974  -47.5823 C.2       10 UNK         0.5000 
     21 O           1.9801  -23.8265  -48.6363 O.2       10 UNK        -0.5000 
     22 CA          2.1304  -23.9151  -46.2385 C.3       10 UNK         0.1400 
     23 CB          3.6301  -23.9284  -45.9072 C.3       10 UNK        -0.1800 
     24 N           1.4034  -23.3380  -45.1016 N.am      10 UNK        -0.5000 
     25 C           0.0793  -23.1637  -45.0234 C.2       9 UNK         0.5000 
     26 O          -0.6916  -23.4242  -45.9455 O.2       9 UNK        -0.5000 
     27 CA         -0.4859  -22.5508  -43.7342 C.3       9 UNK         0.1400 
     28 CB         -0.6460  -23.6107  -42.6295 C.3       9 UNK        -0.1800 
     29 N           0.2362  -21.3652  -43.2652 N.am      9 UNK        -0.5000 
     30 C           1.4646  -21.2618  -42.7343 C.2       8 UNK         0.5000 
     31 O           2.2320  -22.2159  -42.6009 O.2       8 UNK        -0.5000 
     32 CA          1.9311  -19.8543  -42.3013 C.3       8 UNK         0.1400 
     33 CB          3.0715  -19.3687  -43.2102 C.3       8 UNK        -0.1800 
     34 N           0.8497  -18.8629  -42.3079 N.am      8 UNK        -0.5000 
     35 C          -0.1374  -18.8127  -41.3983 C.2       7 UNK         0.5000 
     36 O          -0.1589  -19.5195  -40.3900 O.2       7 UNK        -0.5000 
     37 CA         -1.3199  -17.8538  -41.6596 C.3       7 UNK         0.1400 
     38 CB         -1.2575  -16.6495  -40.7076 C.3       7 UNK        -0.1800 
     39 N          -1.4253  -17.3695  -43.0386 N.am      7 UNK        -0.5000 
     40 C          -1.6242  -18.1271  -44.1273 C.2       6 UNK         0.5000 
     41 O          -1.7776  -19.3484  -44.0931 O.2       6 UNK        -0.5000 
     42 CA         -1.5640  -17.4084  -45.4883 C.3       6 UNK         0.1400 
     43 CB         -2.9552  -16.9122  -45.9100 C.3       6 UNK        -0.1800 
     44 N          -0.6230  -16.2854  -45.4987 N.am      6 UNK        -0.5000 
     45 C           0.7008  -16.3916  -45.3127 C.2       5 UNK         0.5000 
     46 O           1.2788  -17.4658  -45.1597 O.2       5 UNK        -0.5000 
     47 CA          1.5025  -15.0813  -45.2422 C.3       5 UNK         0.1400 
     48 CB          1.8243  -14.5475  -46.6448 C.3       5 UNK        -0.1800 
     49 N           0.7806  -14.0598  -44.4872 N.am      5 UNK        -0.5000 
     50 C           0.7699  -13.9746  -43.1504 C.2       4 UNK         0.5000 
     51 O           1.4315  -14.7070  -42.4150 O.2       4 UNK        -0.5000 
     52 CA         -0.1400  -12.8980  -42.5255 C.3       4 UNK         0.1400 
     53 CB          0.6572  -11.6130  -42.2560 C.3       4 UNK        -0.1800 
     54 N          -1.3043  -12.5717  -43.3522 N.am      4 UNK        -0.5000 
     55 C          -2.3341  -13.3996  -43.5769 C.2       3 UNK         0.5000 
     56 O          -2.4216  -14.5276  -43.0930 O.2       3 UNK        -0.5000 
     57 CA         -3.4142  -12.9036  -44.5595 C.3       3 UNK         0.1400 
     58 CB         -4.4527  -12.0394  -43.8293 C.3       3 UNK        -0.1800 
     59 N          -2.8725  -12.1562  -45.7019 N.am      3 UNK        -0.5000 
     60 C          -1.9863  -12.6506  -46.5755 C.2       2 UNK         0.5000 
     61 O          -1.5093  -13.7857  -46.4853 O.2       2 UNK        -0.5000 
     62 CA         -1.5168  -11.7212  -47.7040 C.3       2 UNK         0.1400 
     63 CB         -0.6020  -10.6081  -47.1637 C.3       2 UNK        -0.1800 
     64 N          -0.7776  -12.5356  -48.6574 N.am      2 UNK        -0.5000 
     65 C          -0.6286  -12.3240  -49.9674 C.2       1 UNK         0.5000 
     66 O          -1.0655  -11.3299  -50.5496 O.2       1 UNK        -0.5000 
     67 C          -0.1547  -20.9398  -49.0481 C.2       11 UNK         0.5000 
     68 O          -0.4536  -20.2873  -50.0489 O.2       11 UNK        -0.5000 
     69 N          -1.0710  -21.5586  -48.2861 N.am      12 UNK        -0.5000 
     70 CA         -2.5135  -21.4324  -48.5001 C.3       12 UNK         0.1400 
     71 CB         -3.0214  -20.1166  -47.8746 C.3       12 UNK        -0.1800 
     72 C          -3.2648  -22.6651  -47.9745 C.2       12 UNK         0.5000 
     73 O          -3.6255  -23.5435  -48.7609 O.2       12 UNK        -0.5000 
     74 N          -3.4999  -22.7042  -46.6550 N.am      13 UNK        -0.5000 
     75 CA         -4.3447  -23.6817  -45.9603 C.3       13 UNK         0.1400 
     76 CB         -4.4174  -23.3207  -44.4697 C.3       13 UNK        -0.1800 
     77 C          -3.9277  -25.1543  -46.1355 C.2       13 UNK         0.5000 
     78 O          -4.7928  -26.0286  -46.0998 O.2       13 UNK        -0.5000 
     79 N          -2.6348  -25.4098  -46.3735 N.am      14 UNK        -0.5000 
     80 CA         -2.0820  -26.7294  -46.6915 C.3       14 UNK         0.1400 
     81 CB         -0.5497  -26.6411  -46.7035 C.3       14 UNK        -0.1800 
     82 C          -2.5989  -27.3115  -48.0239 C.2       14 UNK         0.5000 
     83 O          -2.6388  -28.5332  -48.1726 O.2       14 UNK        -0.5000 
     84 N          -3.0115  -26.4355  -48.9501 N.am      15 UNK        -0.5000 
     85 CA         -3.6660  -26.7831  -50.2127 C.3       15 UNK         0.1400 
     86 CB         -3.0898  -25.8853  -51.3200 C.3       15 UNK        -0.1800 
     87 C          -5.1993  -26.6264  -50.1245 C.2       15 UNK         0.5000 
     88 O          -5.8730  -26.7362  -51.1496 O.2       15 UNK        -0.5000 
     89 N          -5.7199  -26.3453  -48.9185 N.am      16 UNK        -0.5000 
     90 CA         -7.1138  -26.0282  -48.5870 C.3       16 UNK         0.1400 
     91 CB         -8.0416  -27.2267  -48.8770 C.3       16 UNK        -0.1800 
     92 C          -7.6142  -24.7113  -49.2205 C.2       16 UNK         0.5000 
     93 O          -8.8234  -24.5308  -49.3767 O.2       16 UNK        -0.5000 
     94 N          -6.6856  -23.8102  -49.5659 N.am      17 UNK        -0.5000 
     95 CA         -6.9714  -22.5028  -50.1471 C.3       17 UNK         0.1400 
     96 CB         -5.8794  -22.1846  -51.1789 C.3       17 UNK        -0.1800 
     97 C          -7.0234  -21.4270  -49.0488 C.2       17 UNK         0.5000 
     98 O          -6.3928  -21.5797  -48.0011 O.2       17 UNK        -0.5000 
     99 N          -7.7614  -20.3430  -49.3144 N.am      18 UNK        -0.5000 
    100 CA        -7.8919  -19.1927  -48.4124 C.3       18 UNK         0.1400 
    101 CB        -9.2350  -18.4999  -48.6929 C.3       18 UNK        -0.1800 
    102 C         -6.7316  -18.1842  -48.5443 C.2       18 UNK         0.5000 
    103 O         -6.5703  -17.3274  -47.6751 O.2       18 UNK        -0.5000 
    104 N         -5.9605  -18.2919  -49.6298 N.am      19 UNK        -0.5000 
    105 CA        -4.8276  -17.4487  -49.9916 C.3       19 UNK         0.1400 
    106 CB        -5.3387  -16.1398  -50.6268 C.3       19 UNK        -0.1800 
    107 C         -3.9239  -18.2479  -50.9471 C.2       19 UNK         0.5000 
    108 O         -4.2033  -19.4232  -51.1898 O.2       19 UNK        -0.5000 
    109 N         -2.8739  -17.5841  -51.4491 N.am      20 UNK        -0.5000 
    110 CA        -1.7837  -18.0368  -52.3228 C.3       20 UNK         0.1400 
    111 CB        -1.3627  -16.8614  -53.2246 C.3       20 UNK        -0.1800 
    112 C         -2.0363  -19.3063  -53.1589 C.2       20 UNK         0.5000 
    113 O         -2.5116  -19.2201  -54.2937 O.2       20 UNK        -0.5000 
    114 N         -1.6470  -20.4601  -52.6002 N.am      21 UNK        -0.5000 
    115 CA        -1.6178  -21.7586  -53.2814 C.3       21 UNK         0.1400 
    116 CB        -1.2842  -22.8508  -52.2545 C.3       21 UNK        -0.1800 
    117 C         -0.6094  -21.7812  -54.4497 C.2       21 UNK         0.5000 
    118 O         -0.7880  -22.5310  -55.4095 O.2       21 UNK        -0.5000 
    119 N          0.4067  -20.9175  -54.3492 N.am      22 UNK        -0.5000 
    120 CA         1.3547  -20.5349  -55.4006 C.3       22 UNK         0.1400 
    121 C          0.7518  -19.6887  -56.5643 C.2       22 UNK         0.5000 
    122 N         -0.4875  -19.2146  -56.4933 N.am      22 UNK        -0.7600 
    123 O          1.4242  -19.4690  -57.5681 O.2       22 UNK        -0.5000 
    124 C124        2.6061  -19.8540  -54.7832 C.3       23 UNK        -0.0398 
    125 S125        2.2169  -18.5039  -53.6081 S.3       23 UNK        -0.2404 
    126 C126        3.8980  -17.9809  -53.1616 C.3       23 UNK        -0.0205 
    127 H127        0.5770  -16.6408  -48.3600 H         1 UNK         0.0600 
    128 H128       -0.0367  -17.5763  -49.7233 H         1 UNK         0.0600 
    129 H129       -1.1118  -17.1612  -48.3920 H         1 UNK         0.0600 
    130 H130        1.2523  -14.9035  -49.8035 H         1 UNK         0.3000 
    131 H131       -0.4937  -13.6206  -51.6418 H         1 UNK         0.0600 
    132 H132        1.3612  -11.9332  -51.8195 H         1 UNK         0.0800 
    133 H133        1.8595  -13.5771  -52.0602 H         1 UNK         0.0800 
    134 H134        5.0812  -13.2683  -50.1619 H         1 UNK         0.0800 
    135 H135        4.3526  -13.1837  -51.7424 H         1 UNK         0.0800 
    136 H136        3.9411  -15.2665  -52.8386 H         1 UNK         0.1150 
    137 H137        3.9255  -18.9324  -50.6444 H         1 UNK         0.1150 
    138 H138        4.1847  -15.1838  -48.5645 H         1 UNK         0.1150 
    139 H139        5.0830  -17.6971  -47.6653 H         1 UNK         0.0800 
    140 H140        3.4035  -17.3289  -47.3702 H         1 UNK         0.0800 
    141 H141        1.7390  -18.9624  -49.2505 H         1 UNK         0.0800 
    142 H142        1.3850  -19.1259  -47.5440 H         1 UNK         0.0800 
    143 H143        1.8614  -21.4163  -49.5221 H         1 UNK         0.0600 
    144 H144        1.5305  -21.4730  -46.5967 H         1 UNK         0.3000 
    145 H145        1.7987  -24.9475  -46.3540 H         1 UNK         0.0600 
    146 H146        3.8305  -24.5097  -45.0069 H         1 UNK         0.0600 
    147 H147        4.2070  -24.3762  -46.7176 H         1 UNK         0.0600 
    148 H148        4.0141  -22.9197  -45.7480 H         1 UNK         0.0600 
    149 H149        1.9517  -23.0769  -44.2865 H         1 UNK         0.3000 
    150 H150       -1.4834  -22.1868  -43.9811 H         1 UNK         0.0600 
    151 H151       -1.2734  -24.4350  -42.9711 H         1 UNK         0.0600 
    152 H152       -1.1195  -23.1865  -41.7441 H         1 UNK         0.0600 
    153 H153        0.3107  -24.0371  -42.3271 H         1 UNK         0.0600 
    154 H154       -0.2910  -20.5047  -43.3748 H         1 UNK         0.3000 
    155 H155        2.3189  -19.9341  -41.2838 H         1 UNK         0.0600 
    156 H156        2.7862  -19.3885  -44.2624 H         1 UNK         0.0600 
    157 H157        3.9506  -20.0053  -43.1032 H         1 UNK         0.0600 
    158 H158        3.3745  -18.3514  -42.9616 H         1 UNK         0.0600 
    159 H159        0.8065  -18.2531  -43.1154 H         1 UNK         0.3000 
    160 H160       -2.2333  -18.4106  -41.4412 H         1 UNK         0.0600 
    161 H161       -0.3795  -16.0327  -40.8980 H         1 UNK         0.0600 
    162 H162       -1.2112  -16.9731  -39.6670 H         1 UNK         0.0600 
    163 H163       -2.1407  -16.0188  -40.8091 H         1 UNK         0.0600 
    164 H164       -1.3805  -16.3644  -43.1631 H         1 UNK         0.3000 
    165 H165       -1.2190  -18.1371  -46.2240 H         1 UNK         0.0600 
    166 H166       -2.9274  -16.4329  -46.8888 H         1 UNK         0.0600 
    167 H167       -3.6652  -17.7377  -45.9719 H         1 UNK         0.0600 
    168 H168       -3.3547  -16.1899  -45.1980 H         1 UNK         0.0600 
    169 H169       -1.0172  -15.3644  -45.6750 H         1 UNK         0.3000 
    170 H170        2.4493  -15.2975  -44.7423 H         1 UNK         0.0600 
    171 H171        2.3372  -15.3020  -47.2357 H         1 UNK         0.0600 
    172 H172        0.9278  -14.2663  -47.1918 H         1 UNK         0.0600 
    173 H173        2.4736  -13.6732  -46.5966 H         1 UNK         0.0600 
    174 H174        0.1635  -13.4595  -45.0153 H         1 UNK         0.3000 
    175 H175       -0.4991  -13.2854  -41.5695 H         1 UNK         0.0600 
    176 H176        1.0271  -11.1671  -43.1802 H         1 UNK         0.0600 
    177 H177        0.0458  -10.8692  -41.7446 H         1 UNK         0.0600 
    178 H178        1.5203  -11.8148  -41.6203 H         1 UNK         0.0600 
    179 H179       -1.3109  -11.6642  -43.7940 H         1 UNK         0.3000 
    180 H180       -3.9243  -13.7840  -44.9553 H         1 UNK         0.0600 
    181 H181       -4.0122  -11.1201  -43.4415 H         1 UNK         0.0600 
    182 H182       -4.8848  -12.5783  -42.9849 H         1 UNK         0.0600 
    183 H183       -5.2739  -11.7653  -44.4919 H         1 UNK         0.0600 
    184 H184       -3.2158  -11.2148  -45.8282 H         1 UNK         0.3000 
    185 H185       -2.3947  -11.2890  -48.1881 H         1 UNK         0.0600 
    186 H186        0.2735  -11.0183  -46.6583 H         1 UNK         0.0600 
    187 H187       -0.2489   -9.9637  -47.9690 H         1 UNK         0.0600 
    188 H188       -1.1287   -9.9732  -46.4505 H         1 UNK         0.0600 
    189 H189       -0.4670  -13.4193  -48.2759 H         1 UNK         0.3000 
    190 H190       -0.7774  -22.1508  -47.5152 H         1 UNK         0.3000 
    191 H191       -2.7165  -21.3902  -49.5725 H         1 UNK         0.0600 
    192 H192       -4.1038  -20.0284  -47.9723 H         1 UNK         0.0600 
    193 H193       -2.5830  -19.2516  -48.3712 H         1 UNK         0.0600 
    194 H194       -2.7765  -20.0468  -46.8148 H         1 UNK         0.0600 
    195 H195       -3.1446  -21.9488  -46.0895 H         1 UNK         0.3000 
    196 H196       -5.3483  -23.5842  -46.3792 H         1 UNK         0.0600 
    197 H197       -5.1246  -23.9669  -43.9481 H         1 UNK         0.0600 
    198 H198       -4.7512  -22.2929  -44.3249 H         1 UNK         0.0600 
    199 H199       -3.4514  -23.4364  -43.9801 H         1 UNK         0.0600 
    200 H200       -1.9777  -24.6323  -46.3580 H         1 UNK         0.3000 
    201 H201       -2.3790  -27.4168  -45.8968 H         1 UNK         0.0600 
    202 H202       -0.1685  -26.3230  -45.7332 H         1 UNK         0.0600 
    203 H203       -0.1974  -25.9332  -47.4551 H         1 UNK         0.0600 
    204 H204       -0.1013  -27.6100  -46.9266 H         1 UNK         0.0600 
    205 H205       -2.9743  -25.4428  -48.7382 H         1 UNK         0.3000 
    206 H206       -3.4574  -27.8222  -50.4740 H         1 UNK         0.0600 
    207 H207       -2.0026  -25.9531  -51.3590 H         1 UNK         0.0600 
    208 H208       -3.4682  -26.1774  -52.3002 H         1 UNK         0.0600 
    209 H209       -3.3578  -24.8399  -51.1649 H         1 UNK         0.0600 
    210 H210       -5.0844  -26.3028  -48.1304 H         1 UNK         0.3000 
    211 H211       -7.1329  -25.8597  -47.5098 H         1 UNK         0.0600 
    212 H212       -8.1517  -27.4071  -49.9465 H         1 UNK         0.0600 
    213 H213       -9.0397  -27.0553  -48.4724 H         1 UNK         0.0600 
    214 H214       -7.6609  -28.1397  -48.4191 H         1 UNK         0.0600 
    215 H215       -5.7146  -23.9908  -49.3421 H         1 UNK         0.3000 
    216 H216       -7.9331  -22.5264  -50.6640 H         1 UNK         0.0600 
    217 H217       -6.1010  -21.2577  -51.7084 H         1 UNK         0.0600 
    218 H218       -5.8019  -22.9727  -51.9282 H         1 UNK         0.0600 
    219 H219       -4.9000  -22.0724  -50.7131 H         1 UNK         0.0600 
    220 H220       -8.2575  -20.2844  -50.1925 H         1 UNK         0.3000 
    221 H221       -7.9031  -19.5456  -47.3788 H         1 UNK         0.0600 
    222 H222       -9.2857  -18.1175  -49.7132 H         1 UNK         0.0600 
    223 H223      -10.0703  -19.1853  -48.5482 H         1 UNK         0.0600 
    224 H224       -9.3887  -17.6564  -48.0186 H         1 UNK         0.0600 
    225 H225       -6.0962  -19.0759  -50.2548 H         1 UNK         0.3000 
    226 H226       -4.2472  -17.2201  -49.0953 H         1 UNK         0.0600 
    227 H227       -5.8824  -16.3308  -51.5526 H         1 UNK         0.0600 
    228 H228       -6.0076  -15.6067  -49.9513 H         1 UNK         0.0600 
    229 H229       -4.5183  -15.4606  -50.8594 H         1 UNK         0.0600 
    230 H230       -2.7454  -16.6366  -51.1050 H         1 UNK         0.3000 
    231 H231       -0.9342  -18.2530  -51.6769 H         1 UNK         0.0600 
    232 H232       -2.1976  -16.5011  -53.8266 H         1 UNK         0.0600 
    233 H233       -0.5673  -17.1550  -53.9109 H         1 UNK         0.0600 
    234 H234       -0.9860  -16.0225  -52.6414 H         1 UNK         0.0600 
    235 H235       -1.2750  -20.4352  -51.6517 H         1 UNK         0.3000 
    236 H236       -2.6122  -21.9525  -53.6883 H         1 UNK         0.0600 
    237 H237       -2.0113  -22.8629  -51.4428 H         1 UNK         0.0600 
    238 H238       -1.2940  -23.8376  -52.7185 H         1 UNK         0.0600 
    239 H239       -0.2967  -22.7033  -51.8154 H         1 UNK         0.0600 
    240 H240        0.4577  -20.3540  -53.5131 H         1 UNK         0.3000 
    241 H241        1.6921  -21.4607  -55.8702 H         1 UNK         0.0600 
    242 H242       -0.8475  -18.6784  -57.2665 H         1 UNK         0.3800 
    243 H243       -1.0793  -19.3752  -55.6864 H         1 UNK         0.3800 
    244 H244        3.1823  -20.6055  -54.2418 H         1 UNK         0.0800 
    245 H245        3.2744  -19.4765  -55.5594 H         1 UNK         0.0800 
    246 H246        4.3215  -17.3955  -53.9792 H         1 UNK         0.0800 
    247 H247        4.5381  -18.8575  -53.0494 H         1 UNK         0.0800 
@<TRIPOS>BOND
     1    1    2 1    
     2    1  127 1    
     3    1  128 1    
     4    1  129 1    
     5    2    3 2    
     6    2    4 am   BACKBONE|DICT|INTERRES
     7    4    5 1    
     8    4  130 1    
     9    5    6 1    
    10    5   65 1    
    11    5  131 1    
    12    6    7 1    
    13    6  132 1    
    14    6  133 1    
    15    7    8 1    
    16    8    9 1    
    17    8  134 1    
    18    8  135 1    
    19    9   10 ar   
    20    9   14 ar   
    21   10   11 ar   
    22   10  136 1    
    23   11   12 ar   
    24   11  126 1    
    25   12   13 ar   
    26   12  137 1    
    27   13   14 ar   
    28   13   15 1    
    29   14  138 1    
    30   15   16 1    
    31   15  139 1    
    32   15  140 1    
    33   16   17 1    
    34   17   18 1    
    35   17  141 1    
    36   17  142 1    
    37   18   19 1    
    38   18   67 1    
    39   18  143 1    
    40   19   20 am   BACKBONE|DICT|INTERRES
    41   19  144 1    
    42   20   21 2    
    43   20   22 1    
    44   22   23 1    
    45   22   24 1    
    46   22  145 1    
    47   23  146 1    
    48   23  147 1    
    49   23  148 1    
    50   24   25 am   BACKBONE|DICT|INTERRES
    51   24  149 1    
    52   25   26 2    
    53   25   27 1    
    54   27   28 1    
    55   27   29 1    
    56   27  150 1    
    57   28  151 1    
    58   28  152 1    
    59   28  153 1    
    60   29   30 am   BACKBONE|DICT|INTERRES
    61   29  154 1    
    62   30   31 2    
    63   30   32 1    
    64   32   33 1    
    65   32   34 1    
    66   32  155 1    
    67   33  156 1    
    68   33  157 1    
    69   33  158 1    
    70   34   35 am   BACKBONE|DICT|INTERRES
    71   34  159 1    
    72   35   36 2    
    73   35   37 1    
    74   37   38 1    
    75   37   39 1    
    76   37  160 1    
    77   38  161 1    
    78   38  162 1    
    79   38  163 1    
    80   39   40 am   BACKBONE|DICT|INTERRES
    81   39  164 1    
    82   40   41 2    
    83   40   42 1    
    84   42   43 1    
    85   42   44 1    
    86   42  165 1    
    87   43  166 1    
    88   43  167 1    
    89   43  168 1    
    90   44   45 am   BACKBONE|DICT|INTERRES
    91   44  169 1    
    92   45   46 2    
    93   45   47 1    
    94   47   48 1    
    95   47   49 1    
    96   47  170 1    
    97   48  171 1    
    98   48  172 1    
    99   48  173 1    
   100   49   50 am   BACKBONE|DICT|INTERRES
   101   49  174 1    
   102   50   51 2    
   103   50   52 1    
   104   52   53 1    
   105   52   54 1    
   106   52  175 1    
   107   53  176 1    
   108   53  177 1    
   109   53  178 1    
   110   54   55 am   BACKBONE|DICT|INTERRES
   111   54  179 1    
   112   55   56 2    
   113   55   57 1    
   114   57   58 1    
   115   57   59 1    
   116   57  180 1    
   117   58  181 1    
   118   58  182 1    
   119   58  183 1    
   120   59   60 am   BACKBONE|DICT|INTERRES
   121   59  184 1    
   122   60   61 2    
   123   60   62 1    
   124   62   63 1    
   125   62   64 1    
   126   62  185 1    
   127   63  186 1    
   128   63  187 1    
   129   63  188 1    
   130   64   65 am   BACKBONE|DICT|INTERRES
   131   64  189 1    
   132   65   66 2    
   133   67   68 2    
   134   67   69 am   BACKBONE|DICT|INTERRES
   135   69   70 1    
   136   69  190 1    
   137   70   71 1    
   138   70   72 1    
   139   70  191 1    
   140   71  192 1    
   141   71  193 1    
   142   71  194 1    
   143   72   73 2    
   144   72   74 am   BACKBONE|DICT|INTERRES
   145   74   75 1    
   146   74  195 1    
   147   75   76 1    
   148   75   77 1    
   149   75  196 1    
   150   76  197 1    
   151   76  198 1    
   152   76  199 1    
   153   77   78 2    
   154   77   79 am   BACKBONE|DICT|INTERRES
   155   79   80 1    
   156   79  200 1    
   157   80   81 1    
   158   80   82 1    
   159   80  201 1    
   160   81  202 1    
   161   81  203 1    
   162   81  204 1    
   163   82   83 2    
   164   82   84 am   BACKBONE|DICT|INTERRES
   165   84   85 1    
   166   84  205 1    
   167   85   86 1    
   168   85   87 1    
   169   85  206 1    
   170   86  207 1    
   171   86  208 1    
   172   86  209 1    
   173   87   88 2    
   174   87   89 am   BACKBONE|DICT|INTERRES
   175   89   90 1    
   176   89  210 1    
   177   90   91 1    
   178   90   92 1    
   179   90  211 1    
   180   91  212 1    
   181   91  213 1    
   182   91  214 1    
   183   92   93 2    
   184   92   94 am   BACKBONE|DICT|INTERRES
   185   94   95 1    
   186   94  215 1    
   187   95   96 1    
   188   95   97 1    
   189   95  216 1    
   190   96  217 1    
   191   96  218 1    
   192   96  219 1    
   193   97   98 2    
   194   97   99 am   BACKBONE|DICT|INTERRES
   195   99  100 1    
   196   99  220 1    
   197  100  101 1    
   198  100  102 1    
   199  100  221 1    
   200  101  222 1    
   201  101  223 1    
   202  101  224 1    
   203  102  103 2    
   204  102  104 am   BACKBONE|DICT|INTERRES
   205  104  105 1    
   206  104  225 1    
   207  105  106 1    
   208  105  107 1    
   209  105  226 1    
   210  106  227 1    
   211  106  228 1    
   212  106  229 1    
   213  107  108 2    
   214  107  109 am   BACKBONE|DICT|INTERRES
   215  109  110 1    
   216  109  230 1    
   217  110  111 1    
   218  110  112 1    
   219  110  231 1    
   220  111  232 1    
   221  111  233 1    
   222  111  234 1    
   223  112  113 2    
   224  112  114 am   BACKBONE|DICT|INTERRES
   225  114  115 1    
   226  114  235 1    
   227  115  116 1    
   228  115  117 1    
   229  115  236 1    
   230  116  237 1    
   231  116  238 1    
   232  116  239 1    
   233  117  118 2    
   234  117  119 am   BACKBONE|DICT|INTERRES
   235  119  120 1    
   236  119  240 1    
   237  120  121 1    
   238  120  124 1    
   239  120  241 1    
   240  121  122 am   BACKBONE|DICT|INTERRES
   241  121  123 2    
   242  122  242 1    
   243  122  243 1    
   244  124  125 1    
   245  124  244 1    
   246  124  245 1    
   247  125  126 1    
   248  126  246 1    
   249  126  247 1    
@<TRIPOS>SUBSTRUCTURE
     1 UNK         1 GROUP             0       ****    0 ROOT    
