@<TRIPOS>MOLECULE
3R540
247   249    1
SMALL
USER_CHARGES


@<TRIPOS>ATOM
      1 CA         -5.0618  -10.8840  -43.3010 C.3       0 UNK        -0.1800 
      2 C          -3.7618  -10.8049  -44.0881 C.2       0 UNK         0.5000 
      3 O          -3.1709   -9.7301  -44.1934 O.2       0 UNK        -0.5000 
      4 N          -3.2964  -11.9405  -44.6234 N.am      1 UNK        -0.5000 
      5 CA         -2.0825  -12.0847  -45.4405 C.3       1 UNK         0.1400 
      6 C6         -2.2191  -13.2971  -46.4010 C.3       23 UNK        -0.0398 
      7 S7         -1.1156  -13.1974  -47.8522 S.3       23 UNK        -0.2404 
      8 C8         -0.5864  -14.9307  -48.0234 C.3       23 UNK        -0.0205 
      9 C9         -1.5614  -15.7401  -48.8649 C.ar      23 UNK        -0.0193 
     10 C10        -1.3911  -15.7923  -50.2506 C.ar      23 UNK        -0.1150 
     11 C11        -2.2647  -16.5344  -51.0484 C.ar      23 UNK        -0.0193 
     12 C12        -3.3162  -17.2328  -50.4490 C.ar      23 UNK        -0.1150 
     13 C13        -3.5056  -17.1832  -49.0647 C.ar      23 UNK        -0.0193 
     14 C14        -2.6218  -16.4371  -48.2754 C.ar      23 UNK        -0.1150 
     15 C15        -4.6837  -17.9154  -48.4351 C.3       23 UNK        -0.0205 
     16 S16        -4.4909  -19.7254  -48.4994 S.3       23 UNK        -0.2404 
     17 C17        -3.0763  -19.9454  -47.3749 C.3       23 UNK        -0.0398 
     18 CA         -2.9074  -21.4016  -46.8824 C.3       11 UNK         0.1400 
     19 N          -1.5281  -21.6533  -46.4567 N.am      11 UNK        -0.5000 
     20 C          -1.0055  -22.8464  -46.1434 C.2       10 UNK         0.5000 
     21 O          -1.6300  -23.9037  -46.1860 O.2       10 UNK        -0.5000 
     22 CA          0.4521  -22.8508  -45.6493 C.3       10 UNK         0.1400 
     23 CB          1.4354  -22.7253  -46.8231 C.3       10 UNK        -0.1800 
     24 N           0.7024  -21.7925  -44.6696 N.am      10 UNK        -0.5000 
     25 C           0.1325  -21.7468  -43.4563 C.2       9 UNK         0.5000 
     26 O          -0.6097  -22.6256  -43.0174 O.2       9 UNK        -0.5000 
     27 CA          0.3908  -20.4852  -42.6131 C.3       9 UNK         0.1400 
     28 CB          1.7495  -20.5712  -41.9024 C.3       9 UNK        -0.1800 
     29 N           0.3270  -19.2555  -43.4035 N.am      9 UNK        -0.5000 
     30 C          -0.7647  -18.8160  -44.0453 C.2       8 UNK         0.5000 
     31 O          -1.8569  -19.3779  -44.0011 O.2       8 UNK        -0.5000 
     32 CA         -0.5979  -17.5700  -44.9310 C.3       8 UNK         0.1400 
     33 CB         -0.6488  -16.2927  -44.0818 C.3       8 UNK        -0.1800 
     34 N           0.6355  -17.6045  -45.7191 N.am      8 UNK        -0.5000 
     35 C           0.9206  -18.5370  -46.6402 C.2       7 UNK         0.5000 
     36 O           0.1531  -19.4451  -46.9500 O.2       7 UNK        -0.5000 
     37 CA          2.3157  -18.4879  -47.2805 C.3       7 UNK         0.1400 
     38 CB          2.3377  -17.5422  -48.4903 C.3       7 UNK        -0.1800 
     39 N           3.3321  -18.0879  -46.3091 N.am      7 UNK        -0.5000 
     40 C           3.7908  -18.8858  -45.3344 C.2       6 UNK         0.5000 
     41 O           3.4555  -20.0637  -45.2021 O.2       6 UNK        -0.5000 
     42 CA          4.7514  -18.2457  -44.3136 C.3       6 UNK         0.1400 
     43 CB          6.1907  -18.2445  -44.8497 C.3       6 UNK        -0.1800 
     44 N           4.3653  -16.8786  -43.9549 N.am      6 UNK        -0.5000 
     45 C           3.2537  -16.5644  -43.2749 C.2       5 UNK         0.5000 
     46 O           2.4694  -17.4039  -42.8350 O.2       5 UNK        -0.5000 
     47 CA          2.9383  -15.0670  -43.0855 C.3       5 UNK         0.1400 
     48 CB          3.5350  -14.5557  -41.7664 C.3       5 UNK        -0.1800 
     49 N           3.3768  -14.1975  -44.1812 N.am      5 UNK        -0.5000 
     50 C           3.0390  -14.3317  -45.4717 C.2       4 UNK         0.5000 
     51 O           2.3812  -15.2750  -45.9126 O.2       4 UNK        -0.5000 
     52 CA          3.4989  -13.1981  -46.3985 C.3       4 UNK         0.1400 
     53 CB          3.0994  -13.4016  -47.8701 C.3       4 UNK        -0.1800 
     54 N           2.9238  -11.9531  -45.9051 N.am      4 UNK        -0.5000 
     55 C           3.5629  -10.7805  -45.8156 C.2       3 UNK         0.5000 
     56 O           4.7218  -10.6054  -46.1942 O.2       3 UNK        -0.5000 
     57 CA          2.7887   -9.5991  -45.1927 C.3       3 UNK         0.1400 
     58 CB          2.2963   -8.6434  -46.2906 C.3       3 UNK        -0.1800 
     59 N           1.6418  -10.0103  -44.3803 N.am      3 UNK        -0.5000 
     60 C           1.7122  -10.6733  -43.2175 C.2       2 UNK         0.5000 
     61 O           2.7712  -10.9508  -42.6541 O.2       2 UNK        -0.5000 
     62 CA          0.3780  -11.1317  -42.5953 C.3       2 UNK         0.1400 
     63 CB         -0.0433  -10.1840  -41.4624 C.3       2 UNK        -0.1800 
     64 N          -0.7251  -11.2408  -43.5565 N.am      2 UNK        -0.5000 
     65 C          -0.7897  -12.1037  -44.5800 C.2       1 UNK         0.5000 
     66 O           0.1298  -12.8767  -44.8458 O.2       1 UNK        -0.5000 
     67 C          -3.9489  -21.7768  -45.8024 C.2       11 UNK         0.5000 
     68 O          -5.0273  -22.2687  -46.1360 O.2       11 UNK        -0.5000 
     69 N          -3.6050  -21.5622  -44.5255 N.am      12 UNK        -0.5000 
     70 CA         -4.4029  -21.9761  -43.3730 C.3       12 UNK         0.1400 
     71 CB         -3.8940  -21.2585  -42.1136 C.3       12 UNK        -0.1800 
     72 C          -4.3992  -23.5028  -43.1703 C.2       12 UNK         0.5000 
     73 O          -5.4258  -24.0600  -42.7793 O.2       12 UNK        -0.5000 
     74 N          -3.2565  -24.1514  -43.4386 N.am      13 UNK        -0.5000 
     75 CA         -3.0879  -25.6022  -43.3474 C.3       13 UNK         0.1400 
     76 CB         -1.5923  -25.9548  -43.3572 C.3       13 UNK        -0.1800 
     77 C          -3.8439  -26.3603  -44.4547 C.2       13 UNK         0.5000 
     78 O          -4.4610  -27.3872  -44.1671 O.2       13 UNK        -0.5000 
     79 N          -3.8058  -25.8387  -45.6862 N.am      14 UNK        -0.5000 
     80 CA         -4.5285  -26.3636  -46.8398 C.3       14 UNK         0.1400 
     81 CB         -3.7057  -27.4718  -47.5144 C.3       14 UNK        -0.1800 
     82 C          -4.8073  -25.2116  -47.8110 C.2       14 UNK         0.5000 
     83 O          -3.8969  -24.4335  -48.0960 O.2       14 UNK        -0.5000 
     84 N          -6.0514  -25.1248  -48.3017 N.am      15 UNK        -0.5000 
     85 CA         -6.5620  -24.0417  -49.1482 C.3       15 UNK         0.1400 
     86 CB         -8.0088  -24.3601  -49.5541 C.3       15 UNK        -0.1800 
     87 C          -5.6996  -23.7753  -50.3964 C.2       15 UNK         0.5000 
     88 O          -5.3004  -24.7226  -51.0793 O.2       15 UNK        -0.5000 
     89 N          -5.4068  -22.4893  -50.6433 N.am      16 UNK        -0.5000 
     90 CA         -4.5436  -21.9717  -51.7147 C.3       16 UNK         0.1400 
     91 CB         -5.2278  -22.1576  -53.0813 C.3       16 UNK        -0.1800 
     92 C          -3.1123  -22.5553  -51.6698 C.2       16 UNK         0.5000 
     93 O          -2.4973  -22.7884  -52.7150 O.2       16 UNK        -0.5000 
     94 N          -2.6456  -22.8371  -50.4428 N.am      17 UNK        -0.5000 
     95 CA         -1.3790  -23.4747  -50.0681 C.3       17 UNK         0.1400 
     96 CB         -0.1942  -22.5498  -50.4144 C.3       17 UNK        -0.1800 
     97 C          -1.2061  -24.9046  -50.6279 C.2       17 UNK         0.5000 
     98 O          -0.0761  -25.3862  -50.7149 O.2       17 UNK        -0.5000 
     99 N          -2.3189  -25.5395  -51.0364 N.am      18 UNK        -0.5000 
    100 CA        -2.4146  -26.8002  -51.7865 C.3       18 UNK         0.1400 
    101 CB        -1.8938  -27.9875  -50.9507 C.3       18 UNK        -0.1800 
    102 C         -1.7571  -26.7484  -53.1861 C.2       18 UNK         0.5000 
    103 O         -1.5505  -27.7972  -53.7990 O.2       18 UNK        -0.5000 
    104 N         -1.4402  -25.5403  -53.6689 N.am      19 UNK        -0.5000 
    105 CA        -0.6928  -25.2852  -54.8999 C.3       19 UNK         0.1400 
    106 CB         0.5519  -24.4601  -54.5295 C.3       19 UNK        -0.1800 
    107 C         -1.5350  -24.5381  -55.9482 C.2       19 UNK         0.5000 
    108 O         -1.0284  -24.2720  -57.0389 O.2       19 UNK        -0.5000 
    109 N         -2.7808  -24.1832  -55.5935 N.am      20 UNK        -0.5000 
    110 CA        -3.6842  -23.2885  -56.3271 C.3       20 UNK         0.1400 
    111 CB        -4.1072  -23.8999  -57.6797 C.3       20 UNK        -0.1800 
    112 C         -3.1008  -21.8632  -56.4526 C.2       20 UNK         0.5000 
    113 O         -3.2576  -21.2149  -57.4891 O.2       20 UNK        -0.5000 
    114 N         -2.4119  -21.4144  -55.3929 N.am      21 UNK        -0.5000 
    115 CA        -1.7581  -20.1128  -55.3061 C.3       21 UNK         0.1400 
    116 CB        -0.8640  -20.0880  -54.0561 C.3       21 UNK        -0.1800 
    117 C         -2.7773  -18.9602  -55.2676 C.2       21 UNK         0.5000 
    118 O         -3.7744  -19.0572  -54.5500 O.2       21 UNK        -0.5000 
    119 N         -2.4795  -17.9008  -56.0292 N.am      22 UNK        -0.5000 
    120 CA        -3.1661  -16.5993  -56.1743 C.3       22 UNK         0.1400 
    121 C         -4.7025  -16.5669  -56.4547 C.2       22 UNK         0.5000 
    122 N         -5.4410  -17.6559  -56.3094 N.am      22 UNK        -0.7600 
    123 O         -5.2269  -15.5318  -56.8579 O.2       22 UNK        -0.5000 
    124 C124       -2.7149  -15.5586  -55.1117 C.3       23 UNK        -0.0398 
    125 S125       -3.4233  -15.7537  -53.4383 S.3       23 UNK        -0.2404 
    126 C126       -2.0657  -16.5849  -52.5545 C.3       23 UNK        -0.0205 
    127 H127       -4.8964  -10.5683  -42.2710 H         1 UNK         0.0600 
    128 H128       -5.8090  -10.2261  -43.7447 H         1 UNK         0.0600 
    129 H129       -5.4660  -11.8965  -43.2860 H         1 UNK         0.0600 
    130 H130       -3.8104  -12.7950  -44.4611 H         1 UNK         0.3000 
    131 H131       -2.0105  -11.1904  -46.0633 H         1 UNK         0.0600 
    132 H132       -2.0686  -14.2328  -45.8623 H         1 UNK         0.0800 
    133 H133       -3.2348  -13.3457  -46.7962 H         1 UNK         0.0800 
    134 H134       -0.4419  -15.3857  -47.0448 H         1 UNK         0.0800 
    135 H135        0.3927  -14.9451  -48.5010 H         1 UNK         0.0800 
    136 H136       -0.5757  -15.2492  -50.7077 H         1 UNK         0.1150 
    137 H137       -3.9955  -17.8066  -51.0642 H         1 UNK         0.1150 
    138 H138       -2.7650  -16.3890  -47.2060 H         1 UNK         0.1150 
    139 H139       -4.8300  -17.6020  -47.4002 H         1 UNK         0.0800 
    140 H140       -5.5960  -17.6413  -48.9667 H         1 UNK         0.0800 
    141 H141       -3.1501  -19.2532  -46.5344 H         1 UNK         0.0800 
    142 H142       -2.1974  -19.6397  -47.9430 H         1 UNK         0.0800 
    143 H143       -3.0798  -22.0578  -47.7339 H         1 UNK         0.0600 
    144 H144       -0.9147  -20.8410  -46.4371 H         1 UNK         0.3000 
    145 H145        0.6348  -23.8095  -45.1591 H         1 UNK         0.0600 
    146 H146        2.4687  -22.7583  -46.4770 H         1 UNK         0.0600 
    147 H147        1.3016  -23.5457  -47.5293 H         1 UNK         0.0600 
    148 H148        1.2980  -21.7954  -47.3742 H         1 UNK         0.0600 
    149 H149        1.3118  -21.0362  -44.9532 H         1 UNK         0.3000 
    150 H150       -0.3892  -20.4309  -41.8509 H         1 UNK         0.0600 
    151 H151        1.8179  -21.4761  -41.2974 H         1 UNK         0.0600 
    152 H152        1.8988  -19.7218  -41.2356 H         1 UNK         0.0600 
    153 H153        2.5763  -20.5862  -42.6131 H         1 UNK         0.0600 
    154 H154        1.1713  -18.6907  -43.4351 H         1 UNK         0.3000 
    155 H155       -1.4301  -17.5445  -45.6358 H         1 UNK         0.0600 
    156 H156        0.0098  -16.3547  -43.2165 H         1 UNK         0.0600 
    157 H157       -1.6576  -16.1186  -43.7065 H         1 UNK         0.0600 
    158 H158       -0.3562  -15.4180  -44.6588 H         1 UNK         0.0600 
    159 H159        1.3073  -16.8581  -45.5661 H         1 UNK         0.3000 
    160 H160        2.5524  -19.4924  -47.6379 H         1 UNK         0.0600 
    161 H161        3.3047  -17.5687  -48.9926 H         1 UNK         0.0600 
    162 H162        2.1394  -16.5111  -48.2031 H         1 UNK         0.0600 
    163 H163        1.5813  -17.8284  -49.2225 H         1 UNK         0.0600 
    164 H164        3.5806  -17.1079  -46.2971 H         1 UNK         0.3000 
    165 H165        4.7257  -18.8547  -43.4074 H         1 UNK         0.0600 
    166 H166        6.8890  -17.8652  -44.1033 H         1 UNK         0.0600 
    167 H167        6.5108  -19.2545  -45.1090 H         1 UNK         0.0600 
    168 H168        6.2882  -17.6290  -45.7449 H         1 UNK         0.0600 
    169 H169        4.9589  -16.1304  -44.2813 H         1 UNK         0.3000 
    170 H170        1.8541  -14.9673  -43.0220 H         1 UNK         0.0600 
    171 H171        3.2082  -15.1688  -40.9253 H         1 UNK         0.0600 
    172 H172        4.6253  -14.5752  -41.7840 H         1 UNK         0.0600 
    173 H173        3.2200  -13.5324  -41.5611 H         1 UNK         0.0600 
    174 H174        3.8957  -13.3741  -43.9111 H         1 UNK         0.3000 
    175 H175        4.5887  -13.1679  -46.3386 H         1 UNK         0.0600 
    176 H176        2.0175  -13.3800  -47.9934 H         1 UNK         0.0600 
    177 H177        3.5199  -12.6187  -48.5011 H         1 UNK         0.0600 
    178 H178        3.4625  -14.3568  -48.2508 H         1 UNK         0.0600 
    179 H179        1.9808  -12.0332  -45.5384 H         1 UNK         0.3000 
    180 H180        3.4830   -9.0555  -44.5488 H         1 UNK         0.0600 
    181 H181        1.5852   -9.1313  -46.9586 H         1 UNK         0.0600 
    182 H182        3.1274   -8.2864  -46.9003 H         1 UNK         0.0600 
    183 H183        1.8098   -7.7667  -45.8626 H         1 UNK         0.0600 
    184 H184        0.7267   -9.8226  -44.7623 H         1 UNK         0.3000 
    185 H185        0.5458  -12.1230  -42.1689 H         1 UNK         0.0600 
    186 H186        0.7423  -10.0986  -40.7103 H         1 UNK         0.0600 
    187 H187       -0.2525   -9.1806  -41.8354 H         1 UNK         0.0600 
    188 H188       -0.9378  -10.5475  -40.9562 H         1 UNK         0.0600 
    189 H189       -1.5051  -10.6038  -43.4362 H         1 UNK         0.3000 
    190 H190       -2.7458  -21.0572  -44.3283 H         1 UNK         0.3000 
    191 H191       -5.4357  -21.6653  -43.5440 H         1 UNK         0.0600 
    192 H192       -2.8554  -21.5099  -41.8978 H         1 UNK         0.0600 
    193 H193       -4.4872  -21.5335  -41.2406 H         1 UNK         0.0600 
    194 H194       -3.9594  -20.1760  -42.2238 H         1 UNK         0.0600 
    195 H195       -2.4451  -23.6157  -43.7229 H         1 UNK         0.3000 
    196 H196       -3.4972  -25.9259  -42.3880 H         1 UNK         0.0600 
    197 H197       -1.4455  -27.0288  -43.2370 H         1 UNK         0.0600 
    198 H198       -1.0656  -25.4607  -42.5405 H         1 UNK         0.0600 
    199 H199       -1.1112  -25.6622  -44.2900 H         1 UNK         0.0600 
    200 H200       -3.2499  -25.0046  -45.8666 H         1 UNK         0.3000 
    201 H201       -5.4833  -26.7785  -46.5095 H         1 UNK         0.0600 
    202 H202       -3.5507  -28.3163  -46.8429 H         1 UNK         0.0600 
    203 H203       -2.7260  -27.1036  -47.8217 H         1 UNK         0.0600 
    204 H204       -4.2156  -27.8493  -48.4014 H         1 UNK         0.0600 
    205 H205       -6.7232  -25.8312  -48.0409 H         1 UNK         0.3000 
    206 H206       -6.5699  -23.1390  -48.5334 H         1 UNK         0.0600 
    207 H207       -8.6512  -24.4676  -48.6800 H         1 UNK         0.0600 
    208 H208       -8.4279  -23.5611  -50.1673 H         1 UNK         0.0600 
    209 H209       -8.0688  -25.2832  -50.1323 H         1 UNK         0.0600 
    210 H210       -5.7689  -21.7879  -50.0113 H         1 UNK         0.3000 
    211 H211       -4.4400  -20.8997  -51.5399 H         1 UNK         0.0600 
    212 H212       -5.2586  -23.2057  -53.3796 H         1 UNK         0.0600 
    213 H213       -4.7011  -21.6012  -53.8543 H         1 UNK         0.0600 
    214 H214       -6.2514  -21.7837  -53.0640 H         1 UNK         0.0600 
    215 H215       -3.2845  -22.7008  -49.6712 H         1 UNK         0.3000 
    216 H216       -1.4046  -23.5866  -48.9847 H         1 UNK         0.0600 
    217 H217       -0.0800  -22.4249  -51.4917 H         1 UNK         0.0600 
    218 H218        0.7444  -22.9503  -50.0302 H         1 UNK         0.0600 
    219 H219       -0.3260  -21.5617  -49.9727 H         1 UNK         0.0600 
    220 H220       -3.2043  -25.0612  -50.9051 H         1 UNK         0.3000 
    221 H221       -3.4793  -26.9611  -51.9607 H         1 UNK         0.0600 
    222 H222       -0.8166  -27.9338  -50.7928 H         1 UNK         0.0600 
    223 H223       -2.3738  -28.0261  -49.9757 H         1 UNK         0.0600 
    224 H224       -2.1020  -28.9366  -51.4458 H         1 UNK         0.0600 
    225 H225       -1.6609  -24.7245  -53.1086 H         1 UNK         0.3000 
    226 H226       -0.3638  -26.2202  -55.3573 H         1 UNK         0.0600 
    227 H227        1.1707  -24.9873  -53.8030 H         1 UNK         0.0600 
    228 H228        1.1733  -24.2661  -55.4046 H         1 UNK         0.0600 
    229 H229        0.2794  -23.4960  -54.0975 H         1 UNK         0.0600 
    230 H230       -3.0874  -24.4508  -54.6692 H         1 UNK         0.3000 
    231 H231       -4.5863  -23.1975  -55.7229 H         1 UNK         0.0600 
    232 H232       -4.4983  -24.9090  -57.5510 H         1 UNK         0.0600 
    233 H233       -3.2773  -23.9485  -58.3850 H         1 UNK         0.0600 
    234 H234       -4.8935  -23.3049  -58.1455 H         1 UNK         0.0600 
    235 H235       -2.3666  -21.9920  -54.5598 H         1 UNK         0.3000 
    236 H236       -1.1213  -20.0009  -56.1862 H         1 UNK         0.0600 
    237 H237       -0.3068  -19.1527  -53.9925 H         1 UNK         0.0600 
    238 H238       -1.4489  -20.1857  -53.1404 H         1 UNK         0.0600 
    239 H239       -0.1359  -20.8991  -54.0740 H         1 UNK         0.0600 
    240 H240       -1.6491  -17.9781  -56.5988 H         1 UNK         0.3000 
    241 H241       -2.7533  -16.2344  -57.1158 H         1 UNK         0.0600 
    242 H242       -5.0271  -18.4570  -55.8434 H         1 UNK         0.3800 
    243 H243       -6.4288  -17.6298  -56.5050 H         1 UNK         0.3800 
    244 H244       -1.6265  -15.5483  -55.0465 H         1 UNK         0.0800 
    245 H245       -2.9828  -14.5576  -55.4538 H         1 UNK         0.0800 
    246 H246       -2.0087  -17.6262  -52.8661 H         1 UNK         0.0800 
    247 H247       -1.1145  -16.1252  -52.8263 H         1 UNK         0.0800 
@<TRIPOS>BOND
     1    1    2 1    
     2    1  127 1    
     3    1  128 1    
     4    1  129 1    
     5    2    3 2    
     6    2    4 am   BACKBONE|DICT|INTERRES
     7    4    5 1    
     8    4  130 1    
     9    5    6 1    
    10    5   65 1    
    11    5  131 1    
    12    6    7 1    
    13    6  132 1    
    14    6  133 1    
    15    7    8 1    
    16    8    9 1    
    17    8  134 1    
    18    8  135 1    
    19    9   10 ar   
    20    9   14 ar   
    21   10   11 ar   
    22   10  136 1    
    23   11   12 ar   
    24   11  126 1    
    25   12   13 ar   
    26   12  137 1    
    27   13   14 ar   
    28   13   15 1    
    29   14  138 1    
    30   15   16 1    
    31   15  139 1    
    32   15  140 1    
    33   16   17 1    
    34   17   18 1    
    35   17  141 1    
    36   17  142 1    
    37   18   19 1    
    38   18   67 1    
    39   18  143 1    
    40   19   20 am   BACKBONE|DICT|INTERRES
    41   19  144 1    
    42   20   21 2    
    43   20   22 1    
    44   22   23 1    
    45   22   24 1    
    46   22  145 1    
    47   23  146 1    
    48   23  147 1    
    49   23  148 1    
    50   24   25 am   BACKBONE|DICT|INTERRES
    51   24  149 1    
    52   25   26 2    
    53   25   27 1    
    54   27   28 1    
    55   27   29 1    
    56   27  150 1    
    57   28  151 1    
    58   28  152 1    
    59   28  153 1    
    60   29   30 am   BACKBONE|DICT|INTERRES
    61   29  154 1    
    62   30   31 2    
    63   30   32 1    
    64   32   33 1    
    65   32   34 1    
    66   32  155 1    
    67   33  156 1    
    68   33  157 1    
    69   33  158 1    
    70   34   35 am   BACKBONE|DICT|INTERRES
    71   34  159 1    
    72   35   36 2    
    73   35   37 1    
    74   37   38 1    
    75   37   39 1    
    76   37  160 1    
    77   38  161 1    
    78   38  162 1    
    79   38  163 1    
    80   39   40 am   BACKBONE|DICT|INTERRES
    81   39  164 1    
    82   40   41 2    
    83   40   42 1    
    84   42   43 1    
    85   42   44 1    
    86   42  165 1    
    87   43  166 1    
    88   43  167 1    
    89   43  168 1    
    90   44   45 am   BACKBONE|DICT|INTERRES
    91   44  169 1    
    92   45   46 2    
    93   45   47 1    
    94   47   48 1    
    95   47   49 1    
    96   47  170 1    
    97   48  171 1    
    98   48  172 1    
    99   48  173 1    
   100   49   50 am   BACKBONE|DICT|INTERRES
   101   49  174 1    
   102   50   51 2    
   103   50   52 1    
   104   52   53 1    
   105   52   54 1    
   106   52  175 1    
   107   53  176 1    
   108   53  177 1    
   109   53  178 1    
   110   54   55 am   BACKBONE|DICT|INTERRES
   111   54  179 1    
   112   55   56 2    
   113   55   57 1    
   114   57   58 1    
   115   57   59 1    
   116   57  180 1    
   117   58  181 1    
   118   58  182 1    
   119   58  183 1    
   120   59   60 am   BACKBONE|DICT|INTERRES
   121   59  184 1    
   122   60   61 2    
   123   60   62 1    
   124   62   63 1    
   125   62   64 1    
   126   62  185 1    
   127   63  186 1    
   128   63  187 1    
   129   63  188 1    
   130   64   65 am   BACKBONE|DICT|INTERRES
   131   64  189 1    
   132   65   66 2    
   133   67   68 2    
   134   67   69 am   BACKBONE|DICT|INTERRES
   135   69   70 1    
   136   69  190 1    
   137   70   71 1    
   138   70   72 1    
   139   70  191 1    
   140   71  192 1    
   141   71  193 1    
   142   71  194 1    
   143   72   73 2    
   144   72   74 am   BACKBONE|DICT|INTERRES
   145   74   75 1    
   146   74  195 1    
   147   75   76 1    
   148   75   77 1    
   149   75  196 1    
   150   76  197 1    
   151   76  198 1    
   152   76  199 1    
   153   77   78 2    
   154   77   79 am   BACKBONE|DICT|INTERRES
   155   79   80 1    
   156   79  200 1    
   157   80   81 1    
   158   80   82 1    
   159   80  201 1    
   160   81  202 1    
   161   81  203 1    
   162   81  204 1    
   163   82   83 2    
   164   82   84 am   BACKBONE|DICT|INTERRES
   165   84   85 1    
   166   84  205 1    
   167   85   86 1    
   168   85   87 1    
   169   85  206 1    
   170   86  207 1    
   171   86  208 1    
   172   86  209 1    
   173   87   88 2    
   174   87   89 am   BACKBONE|DICT|INTERRES
   175   89   90 1    
   176   89  210 1    
   177   90   91 1    
   178   90   92 1    
   179   90  211 1    
   180   91  212 1    
   181   91  213 1    
   182   91  214 1    
   183   92   93 2    
   184   92   94 am   BACKBONE|DICT|INTERRES
   185   94   95 1    
   186   94  215 1    
   187   95   96 1    
   188   95   97 1    
   189   95  216 1    
   190   96  217 1    
   191   96  218 1    
   192   96  219 1    
   193   97   98 2    
   194   97   99 am   BACKBONE|DICT|INTERRES
   195   99  100 1    
   196   99  220 1    
   197  100  101 1    
   198  100  102 1    
   199  100  221 1    
   200  101  222 1    
   201  101  223 1    
   202  101  224 1    
   203  102  103 2    
   204  102  104 am   BACKBONE|DICT|INTERRES
   205  104  105 1    
   206  104  225 1    
   207  105  106 1    
   208  105  107 1    
   209  105  226 1    
   210  106  227 1    
   211  106  228 1    
   212  106  229 1    
   213  107  108 2    
   214  107  109 am   BACKBONE|DICT|INTERRES
   215  109  110 1    
   216  109  230 1    
   217  110  111 1    
   218  110  112 1    
   219  110  231 1    
   220  111  232 1    
   221  111  233 1    
   222  111  234 1    
   223  112  113 2    
   224  112  114 am   BACKBONE|DICT|INTERRES
   225  114  115 1    
   226  114  235 1    
   227  115  116 1    
   228  115  117 1    
   229  115  236 1    
   230  116  237 1    
   231  116  238 1    
   232  116  239 1    
   233  117  118 2    
   234  117  119 am   BACKBONE|DICT|INTERRES
   235  119  120 1    
   236  119  240 1    
   237  120  121 1    
   238  120  124 1    
   239  120  241 1    
   240  121  122 am   BACKBONE|DICT|INTERRES
   241  121  123 2    
   242  122  242 1    
   243  122  243 1    
   244  124  125 1    
   245  124  244 1    
   246  124  245 1    
   247  125  126 1    
   248  126  246 1    
   249  126  247 1    
@<TRIPOS>SUBSTRUCTURE
     1 UNK         1 GROUP             0       ****    0 ROOT    
