@<TRIPOS>MOLECULE
3R540
247   249    1
SMALL
USER_CHARGES


@<TRIPOS>ATOM
      1 CA         -2.2275   -9.5970  -41.8740 C.3       0 UNK        -0.1800 
      2 C          -1.6824   -9.9940  -43.2381 C.2       0 UNK         0.5000 
      3 O          -0.4710  -10.1380  -43.3935 O.2       0 UNK        -0.5000 
      4 N          -2.5686  -10.1431  -44.2316 N.am      1 UNK        -0.5000 
      5 CA         -2.3338  -10.5978  -45.6164 C.3       1 UNK         0.1400 
      6 C6         -1.7216  -12.0224  -45.7325 C.3       23 UNK        -0.0398 
      7 S7         -2.5999  -13.2589  -44.7147 S.3       23 UNK        -0.2404 
      8 C8         -3.8706  -13.8824  -45.8599 C.3       23 UNK        -0.0205 
      9 C9         -3.5260  -15.2584  -46.4118 C.ar      23 UNK        -0.0193 
     10 C10        -3.3158  -15.4475  -47.7817 C.ar      23 UNK        -0.1150 
     11 C11        -3.0532  -16.7216  -48.2995 C.ar      23 UNK        -0.0193 
     12 C12        -3.0180  -17.8116  -47.4204 C.ar      23 UNK        -0.1150 
     13 C13        -3.2044  -17.6348  -46.0490 C.ar      23 UNK        -0.0193 
     14 C14        -3.4633  -16.3572  -45.5497 C.ar      23 UNK        -0.1150 
     15 C15        -3.1374  -18.8360  -45.1220 C.3       23 UNK        -0.0205 
     16 S16        -1.4475  -19.5035  -45.0343 S.3       23 UNK        -0.2404 
     17 C17        -1.7597  -21.0683  -44.1563 C.3       23 UNK        -0.0398 
     18 CA         -2.0166  -22.2490  -45.1241 C.3       11 UNK         0.1400 
     19 N          -0.8897  -22.5186  -46.0307 N.am      11 UNK        -0.5000 
     20 C          -0.9351  -23.3640  -47.0742 C.2       10 UNK         0.5000 
     21 O          -1.9360  -24.0205  -47.3625 O.2       10 UNK        -0.5000 
     22 CA          0.3273  -23.5332  -47.9414 C.3       10 UNK         0.1400 
     23 CB          0.2231  -22.6729  -49.2094 C.3       10 UNK        -0.1800 
     24 N           1.5683  -23.2046  -47.2448 N.am      10 UNK        -0.5000 
     25 C           2.0817  -23.8943  -46.2167 C.2       9 UNK         0.5000 
     26 O           1.5868  -24.9307  -45.7732 O.2       9 UNK        -0.5000 
     27 CA          3.3323  -23.2934  -45.5413 C.3       9 UNK         0.1400 
     28 CB          4.6090  -23.9166  -46.1250 C.3       9 UNK        -0.1800 
     29 N           3.4221  -21.8296  -45.6395 N.am      9 UNK        -0.5000 
     30 C           2.5017  -20.9762  -45.1695 C.2       8 UNK         0.5000 
     31 O           1.4511  -21.3437  -44.6400 O.2       8 UNK        -0.5000 
     32 CA          2.7767  -19.4749  -45.3847 C.3       8 UNK         0.1400 
     33 CB          2.4052  -19.0676  -46.8198 C.3       8 UNK        -0.1800 
     34 N           2.0283  -18.6331  -44.4506 N.am      8 UNK        -0.5000 
     35 C           2.1895  -18.6307  -43.1197 C.2       7 UNK         0.5000 
     36 O           3.0776  -19.2601  -42.5398 O.2       7 UNK        -0.5000 
     37 CA          1.1847  -17.7818  -42.3102 C.3       7 UNK         0.1400 
     38 CB          1.6177  -17.5559  -40.8461 C.3       7 UNK        -0.1800 
     39 N           0.8561  -16.5083  -42.9578 N.am      7 UNK        -0.5000 
     40 C           1.7042  -15.5200  -43.2755 C.2       6 UNK         0.5000 
     41 O           2.9108  -15.5280  -43.0224 O.2       6 UNK        -0.5000 
     42 CA          1.0882  -14.3262  -44.0296 C.3       6 UNK         0.1400 
     43 CB          1.6250  -12.9921  -43.4850 C.3       6 UNK        -0.1800 
     44 N           1.3407  -14.3816  -45.4694 N.am      6 UNK        -0.5000 
     45 C           1.0256  -15.3907  -46.2982 C.2       5 UNK         0.5000 
     46 O           0.4430  -16.4163  -45.9472 O.2       5 UNK        -0.5000 
     47 CA          1.4218  -15.2297  -47.7806 C.3       5 UNK         0.1400 
     48 CB          0.2297  -14.6718  -48.5702 C.3       5 UNK        -0.1800 
     49 N           2.5598  -14.3404  -47.9995 N.am      5 UNK        -0.5000 
     50 C           3.7971  -14.4758  -47.5041 C.2       4 UNK         0.5000 
     51 O           4.1878  -15.4771  -46.9042 O.2       4 UNK        -0.5000 
     52 CA          4.7500  -13.2709  -47.6826 C.3       4 UNK         0.1400 
     53 CB          5.8917  -13.6239  -48.6490 C.3       4 UNK        -0.1800 
     54 N           4.0984  -12.0390  -48.1536 N.am      4 UNK        -0.5000 
     55 C           3.1373  -11.3607  -47.5106 C.2       3 UNK         0.5000 
     56 O           2.6862  -11.6883  -46.4088 O.2       3 UNK        -0.5000 
     57 CA          2.5288  -10.1708  -48.2663 C.3       3 UNK         0.1400 
     58 CB          1.7534  -10.6532  -49.5103 C.3       3 UNK        -0.1800 
     59 N           1.6272   -9.4591  -47.3689 N.am      3 UNK        -0.5000 
     60 C           1.1335   -8.2307  -47.5551 C.2       2 UNK         0.5000 
     61 O           1.4314   -7.5168  -48.5149 O.2       2 UNK        -0.5000 
     62 CA          0.1460   -7.7203  -46.4833 C.3       2 UNK         0.1400 
     63 CB         -0.7427   -6.5629  -46.9852 C.3       2 UNK        -0.1800 
     64 N          -0.6751   -8.7840  -45.8910 N.am      2 UNK        -0.5000 
     65 C          -1.5604   -9.5882  -46.4987 C.2       1 UNK         0.5000 
     66 O          -1.8014   -9.5493  -47.7056 O.2       1 UNK        -0.5000 
     67 C          -2.4391  -23.5008  -44.3312 C.2       11 UNK         0.5000 
     68 O          -3.6333  -23.7003  -44.1069 O.2       11 UNK        -0.5000 
     69 N          -1.4656  -24.3564  -43.9867 N.am      12 UNK        -0.5000 
     70 CA         -1.6793  -25.6521  -43.3352 C.3       12 UNK         0.1400 
     71 CB         -0.3209  -26.2093  -42.8834 C.3       12 UNK        -0.1800 
     72 C          -2.4138  -26.6748  -44.2281 C.2       12 UNK         0.5000 
     73 O          -2.9807  -27.6357  -43.7075 O.2       12 UNK        -0.5000 
     74 N          -2.4034  -26.4389  -45.5458 N.am      13 UNK        -0.5000 
     75 CA         -3.0841  -27.2278  -46.5677 C.3       13 UNK         0.1400 
     76 CB         -2.0567  -27.5927  -47.6540 C.3       13 UNK        -0.1800 
     77 C          -4.2939  -26.4719  -47.1556 C.2       13 UNK         0.5000 
     78 O          -4.7466  -26.8287  -48.2425 O.2       13 UNK        -0.5000 
     79 N          -4.7899  -25.4377  -46.4554 N.am      14 UNK        -0.5000 
     80 CA         -5.9214  -24.5786  -46.8308 C.3       14 UNK         0.1400 
     81 CB         -7.2412  -25.3786  -46.8293 C.3       14 UNK        -0.1800 
     82 C          -5.6737  -23.8279  -48.1557 C.2       14 UNK         0.5000 
     83 O          -6.4610  -23.9391  -49.0979 O.2       14 UNK        -0.5000 
     84 N          -4.5393  -23.1151  -48.2084 N.am      15 UNK        -0.5000 
     85 CA         -3.9927  -22.4014  -49.3692 C.3       15 UNK         0.1400 
     86 CB         -4.9047  -21.2284  -49.7825 C.3       15 UNK        -0.1800 
     87 C          -3.6624  -23.3640  -50.5285 C.2       15 UNK         0.5000 
     88 O          -3.8988  -23.0381  -51.6937 O.2       15 UNK        -0.5000 
     89 N          -3.1401  -24.5452  -50.1615 N.am      16 UNK        -0.5000 
     90 CA         -2.8634  -25.7063  -51.0132 C.3       16 UNK         0.1400 
     91 CB         -1.6754  -25.4198  -51.9505 C.3       16 UNK        -0.1800 
     92 C          -4.1251  -26.1911  -51.7546 C.2       16 UNK         0.5000 
     93 O          -4.1417  -26.2447  -52.9835 O.2       16 UNK        -0.5000 
     94 N          -5.1766  -26.4914  -50.9798 N.am      17 UNK        -0.5000 
     95 CA         -6.5223  -26.8761  -51.4185 C.3       17 UNK         0.1400 
     96 CB         -6.5054  -28.2810  -52.0557 C.3       17 UNK        -0.1800 
     97 C          -7.1731  -25.8053  -52.3200 C.2       17 UNK         0.5000 
     98 O          -7.7423  -26.1291  -53.3642 O.2       17 UNK        -0.5000 
     99 N          -7.0457  -24.5402  -51.8950 N.am      18 UNK        -0.5000 
    100 CA        -7.5108  -23.3207  -52.5617 C.3       18 UNK         0.1400 
    101 CB        -9.0521  -23.2859  -52.6259 C.3       18 UNK        -0.1800 
    102 C         -6.8485  -23.0394  -53.9304 C.2       18 UNK         0.5000 
    103 O         -7.4091  -22.2860  -54.7286 O.2       18 UNK        -0.5000 
    104 N         -5.6574  -23.6057  -54.1781 N.am      19 UNK        -0.5000 
    105 CA        -4.8397  -23.3195  -55.3624 C.3       19 UNK         0.1400 
    106 CB        -3.8037  -24.4356  -55.5568 C.3       19 UNK        -0.1800 
    107 C         -4.1361  -21.9498  -55.2876 C.2       19 UNK         0.5000 
    108 O         -3.7205  -21.4318  -56.3247 O.2       19 UNK        -0.5000 
    109 N         -4.0182  -21.3984  -54.0705 N.am      20 UNK        -0.5000 
    110 CA        -3.4002  -20.1171  -53.7247 C.3       20 UNK         0.1400 
    111 CB        -4.1022  -18.9335  -54.4221 C.3       20 UNK        -0.1800 
    112 C         -1.8715  -20.1272  -53.9124 C.2       20 UNK         0.5000 
    113 O         -1.2867  -19.1237  -54.3255 O.2       20 UNK        -0.5000 
    114 N         -1.2378  -21.2524  -53.5440 N.am      21 UNK        -0.5000 
    115 CA         0.2214  -21.4384  -53.5326 C.3       21 UNK         0.1400 
    116 CB         0.5377  -22.9068  -53.2188 C.3       21 UNK        -0.1800 
    117 C          0.9605  -20.5044  -52.5481 C.2       21 UNK         0.5000 
    118 O          2.1649  -20.2927  -52.6899 O.2       21 UNK        -0.5000 
    119 N          0.2092  -19.9428  -51.5945 N.am      22 UNK        -0.5000 
    120 CA         0.5694  -18.8007  -50.7452 C.3       22 UNK         0.1400 
    121 C          0.9019  -17.4874  -51.5162 C.2       22 UNK         0.5000 
    122 N          0.4402  -17.2949  -52.7473 N.am      22 UNK        -0.7600 
    123 O          1.6089  -16.6351  -50.9892 O.2       22 UNK        -0.5000 
    124 C124       -0.5259  -18.5548  -49.6720 C.3       23 UNK        -0.0398 
    125 S125       -2.2232  -18.5006  -50.3661 S.3       23 UNK        -0.2404 
    126 C126       -2.8279  -16.8696  -49.8072 C.3       23 UNK        -0.0205 
    127 H127       -3.3111   -9.4769  -41.8891 H         1 UNK         0.0600 
    128 H128       -1.7845   -8.6543  -41.5524 H         1 UNK         0.0600 
    129 H129       -1.9801  -10.3608  -41.1367 H         1 UNK         0.0600 
    130 H130       -3.5407   -9.9661  -44.0207 H         1 UNK         0.3000 
    131 H131       -3.3321  -10.6520  -46.0537 H         1 UNK         0.0600 
    132 H132       -0.6777  -12.0134  -45.4192 H         1 UNK         0.0800 
    133 H133       -1.7177  -12.3582  -46.7709 H         1 UNK         0.0800 
    134 H134       -4.0394  -13.1656  -46.6648 H         1 UNK         0.0800 
    135 H135       -4.8154  -13.9537  -45.3195 H         1 UNK         0.0800 
    136 H136       -3.3627  -14.6002  -48.4515 H         1 UNK         0.1150 
    137 H137       -2.8330  -18.8114  -47.7826 H         1 UNK         0.1150 
    138 H138       -3.6228  -16.2144  -44.4902 H         1 UNK         0.1150 
    139 H139       -3.4738  -18.5726  -44.1181 H         1 UNK         0.0800 
    140 H140       -3.8185  -19.6048  -45.4898 H         1 UNK         0.0800 
    141 H141       -2.6081  -20.9253  -43.4842 H         1 UNK         0.0800 
    142 H142       -0.9033  -21.2769  -43.5136 H         1 UNK         0.0800 
    143 H143       -2.8684  -21.9779  -45.7512 H         1 UNK         0.0600 
    144 H144       -0.0244  -22.0364  -45.8087 H         1 UNK         0.3000 
    145 H145        0.3758  -24.5817  -48.2429 H         1 UNK         0.0600 
    146 H146        0.1798  -21.6109  -48.9701 H         1 UNK         0.0600 
    147 H147        1.0788  -22.8326  -49.8655 H         1 UNK         0.0600 
    148 H148       -0.6717  -22.9194  -49.7812 H         1 UNK         0.0600 
    149 H149        2.0453  -22.3651  -47.5368 H         1 UNK         0.3000 
    150 H150        3.2805  -23.5490  -44.4809 H         1 UNK         0.0600 
    151 H151        4.5848  -25.0043  -46.0454 H         1 UNK         0.0600 
    152 H152        5.4958  -23.5737  -45.5915 H         1 UNK         0.0600 
    153 H153        4.7328  -23.6673  -47.1796 H         1 UNK         0.0600 
    154 H154        4.2555  -21.4609  -46.0749 H         1 UNK         0.3000 
    155 H155        3.8418  -19.2929  -45.2286 H         1 UNK         0.0600 
    156 H156        2.9154  -19.6880  -47.5574 H         1 UNK         0.0600 
    157 H157        2.6947  -18.0357  -47.0152 H         1 UNK         0.0600 
    158 H158        1.3322  -19.1557  -46.9975 H         1 UNK         0.0600 
    159 H159        1.2820  -18.0733  -44.8485 H         1 UNK         0.3000 
    160 H160        0.2585  -18.3582  -42.2913 H         1 UNK         0.0600 
    161 H161        0.8757  -16.9727  -40.3010 H         1 UNK         0.0600 
    162 H162        2.5712  -17.0312  -40.7811 H         1 UNK         0.0600 
    163 H163        1.7312  -18.5053  -40.3216 H         1 UNK         0.0600 
    164 H164       -0.0980  -16.4258  -43.2817 H         1 UNK         0.3000 
    165 H165        0.0079  -14.3410  -43.8806 H         1 UNK         0.0600 
    166 H166        2.7030  -12.9025  -43.6255 H         1 UNK         0.0600 
    167 H167        1.1607  -12.1431  -43.9836 H         1 UNK         0.0600 
    168 H168        1.4205  -12.8940  -42.4183 H         1 UNK         0.0600 
    169 H169        1.8372  -13.5874  -45.8557 H         1 UNK         0.3000 
    170 H170        1.6783  -16.2140  -48.1749 H         1 UNK         0.0600 
    171 H171       -0.0582  -13.6794  -48.2214 H         1 UNK         0.0600 
    172 H172        0.4490  -14.6037  -49.6355 H         1 UNK         0.0600 
    173 H173       -0.6353  -15.3204  -48.4574 H         1 UNK         0.0600 
    174 H174        2.3596  -13.4877  -48.4984 H         1 UNK         0.3000 
    175 H175        5.1828  -13.0611  -46.7024 H         1 UNK         0.0600 
    176 H176        5.5185  -13.8267  -49.6537 H         1 UNK         0.0600 
    177 H177        6.6180  -12.8137  -48.7161 H         1 UNK         0.0600 
    178 H178        6.4295  -14.5117  -48.3135 H         1 UNK         0.0600 
    179 H179        4.3983  -11.7054  -49.0587 H         1 UNK         0.3000 
    180 H180        3.3395   -9.5038  -48.5660 H         1 UNK         0.0600 
    181 H181        0.9297  -11.3140  -49.2365 H         1 UNK         0.0600 
    182 H182        2.3992  -11.1981  -50.1995 H         1 UNK         0.0600 
    183 H183        1.3330   -9.8161  -50.0675 H         1 UNK         0.0600 
    184 H184        1.3890   -9.9748  -46.5305 H         1 UNK         0.3000 
    185 H185        0.7626   -7.3300  -45.6725 H         1 UNK         0.0600 
    186 H186       -1.3470   -6.8589  -47.8432 H         1 UNK         0.0600 
    187 H187       -1.4178   -6.2165  -46.2026 H         1 UNK         0.0600 
    188 H188       -0.1380   -5.7084  -47.2909 H         1 UNK         0.0600 
    189 H189       -0.5156   -8.9660  -44.9039 H         1 UNK         0.3000 
    190 H190       -0.5136  -24.1333  -44.2437 H         1 UNK         0.3000 
    191 H191       -2.2960  -25.4882  -42.4490 H         1 UNK         0.0600 
    192 H192        0.3407  -26.3907  -43.7314 H         1 UNK         0.0600 
    193 H193        0.1832  -25.5208  -42.2050 H         1 UNK         0.0600 
    194 H194       -0.4425  -27.1553  -42.3540 H         1 UNK         0.0600 
    195 H195       -1.9402  -25.6044  -45.8829 H         1 UNK         0.3000 
    196 H196       -3.4704  -28.1554  -46.1415 H         1 UNK         0.0600 
    197 H197       -1.2261  -28.1579  -47.2312 H         1 UNK         0.0600 
    198 H198       -1.6431  -26.7035  -48.1305 H         1 UNK         0.0600 
    199 H199       -2.5030  -28.2131  -48.4321 H         1 UNK         0.0600 
    200 H200       -4.3377  -25.1971  -45.5818 H         1 UNK         0.3000 
    201 H201       -6.0001  -23.8156  -46.0548 H         1 UNK         0.0600 
    202 H202       -8.0937  -24.7214  -47.0047 H         1 UNK         0.0600 
    203 H203       -7.4023  -25.8702  -45.8700 H         1 UNK         0.0600 
    204 H204       -7.2569  -26.1445  -47.6053 H         1 UNK         0.0600 
    205 H205       -3.9039  -23.1966  -47.4253 H         1 UNK         0.3000 
    206 H206       -3.0410  -21.9739  -49.0511 H         1 UNK         0.0600 
    207 H207       -5.8740  -21.5695  -50.1436 H         1 UNK         0.0600 
    208 H208       -4.4499  -20.6402  -50.5782 H         1 UNK         0.0600 
    209 H209       -5.0778  -20.5532  -48.9445 H         1 UNK         0.0600 
    210 H210       -2.9797  -24.6815  -49.1709 H         1 UNK         0.3000 
    211 H211       -2.5685  -26.5217  -50.3532 H         1 UNK         0.0600 
    212 H212       -0.7810  -25.1747  -51.3785 H         1 UNK         0.0600 
    213 H213       -1.4392  -26.2915  -52.5618 H         1 UNK         0.0600 
    214 H214       -1.8845  -24.5924  -52.6275 H         1 UNK         0.0600 
    215 H215       -5.0513  -26.4481  -49.9689 H         1 UNK         0.3000 
    216 H216       -7.1331  -26.9290  -50.5161 H         1 UNK         0.0600 
    217 H217       -7.5174  -28.6207  -52.2784 H         1 UNK         0.0600 
    218 H218       -5.9421  -28.2965  -52.9893 H         1 UNK         0.0600 
    219 H219       -6.0589  -29.0126  -51.3822 H         1 UNK         0.0600 
    220 H220       -6.5989  -24.3899  -50.9937 H         1 UNK         0.3000 
    221 H221       -7.1977  -22.5005  -51.9156 H         1 UNK         0.0600 
    222 H222       -9.4464  -24.0338  -53.3142 H         1 UNK         0.0600 
    223 H223       -9.4911  -23.4670  -51.6447 H         1 UNK         0.0600 
    224 H224       -9.4093  -22.3123  -52.9631 H         1 UNK         0.0600 
    225 H225       -5.2475  -24.2132  -53.4789 H         1 UNK         0.3000 
    226 H226       -5.4911  -23.3088  -56.2388 H         1 UNK         0.0600 
    227 H227       -4.2837  -25.4112  -55.6355 H         1 UNK         0.0600 
    228 H228       -3.2297  -24.2813  -56.4713 H         1 UNK         0.0600 
    229 H229       -3.0952  -24.4731  -54.7293 H         1 UNK         0.0600 
    230 H230       -4.3129  -21.9634  -53.2786 H         1 UNK         0.3000 
    231 H231       -3.5635  -19.9939  -52.6548 H         1 UNK         0.0600 
    232 H232       -3.7459  -17.9829  -54.0234 H         1 UNK         0.0600 
    233 H233       -5.1803  -18.9667  -54.2651 H         1 UNK         0.0600 
    234 H234       -3.9180  -18.9238  -55.4965 H         1 UNK         0.0600 
    235 H235       -1.7974  -22.0285  -53.2197 H         1 UNK         0.3000 
    236 H236        0.5924  -21.2135  -54.5345 H         1 UNK         0.0600 
    237 H237        0.0613  -23.5778  -53.9338 H         1 UNK         0.0600 
    238 H238        1.6113  -23.0939  -53.2644 H         1 UNK         0.0600 
    239 H239        0.2016  -23.1790  -52.2192 H         1 UNK         0.0600 
    240 H240       -0.7697  -20.1847  -51.5755 H         1 UNK         0.3000 
    241 H241        1.4857  -19.0782  -50.2208 H         1 UNK         0.0600 
    242 H242        0.6756  -16.4430  -53.2300 H         1 UNK         0.3800 
    243 H243       -0.1450  -17.9834  -53.2098 H         1 UNK         0.3800 
    244 H244       -0.5033  -19.3607  -48.9386 H         1 UNK         0.0800 
    245 H245       -0.3204  -17.6487  -49.1002 H         1 UNK         0.0800 
    246 H246       -3.7747  -16.6730  -50.3115 H         1 UNK         0.0800 
    247 H247       -2.1320  -16.1049  -50.1545 H         1 UNK         0.0800 
@<TRIPOS>BOND
     1    1    2 1    
     2    1  127 1    
     3    1  128 1    
     4    1  129 1    
     5    2    3 2    
     6    2    4 am   BACKBONE|DICT|INTERRES
     7    4    5 1    
     8    4  130 1    
     9    5    6 1    
    10    5   65 1    
    11    5  131 1    
    12    6    7 1    
    13    6  132 1    
    14    6  133 1    
    15    7    8 1    
    16    8    9 1    
    17    8  134 1    
    18    8  135 1    
    19    9   10 ar   
    20    9   14 ar   
    21   10   11 ar   
    22   10  136 1    
    23   11   12 ar   
    24   11  126 1    
    25   12   13 ar   
    26   12  137 1    
    27   13   14 ar   
    28   13   15 1    
    29   14  138 1    
    30   15   16 1    
    31   15  139 1    
    32   15  140 1    
    33   16   17 1    
    34   17   18 1    
    35   17  141 1    
    36   17  142 1    
    37   18   19 1    
    38   18   67 1    
    39   18  143 1    
    40   19   20 am   BACKBONE|DICT|INTERRES
    41   19  144 1    
    42   20   21 2    
    43   20   22 1    
    44   22   23 1    
    45   22   24 1    
    46   22  145 1    
    47   23  146 1    
    48   23  147 1    
    49   23  148 1    
    50   24   25 am   BACKBONE|DICT|INTERRES
    51   24  149 1    
    52   25   26 2    
    53   25   27 1    
    54   27   28 1    
    55   27   29 1    
    56   27  150 1    
    57   28  151 1    
    58   28  152 1    
    59   28  153 1    
    60   29   30 am   BACKBONE|DICT|INTERRES
    61   29  154 1    
    62   30   31 2    
    63   30   32 1    
    64   32   33 1    
    65   32   34 1    
    66   32  155 1    
    67   33  156 1    
    68   33  157 1    
    69   33  158 1    
    70   34   35 am   BACKBONE|DICT|INTERRES
    71   34  159 1    
    72   35   36 2    
    73   35   37 1    
    74   37   38 1    
    75   37   39 1    
    76   37  160 1    
    77   38  161 1    
    78   38  162 1    
    79   38  163 1    
    80   39   40 am   BACKBONE|DICT|INTERRES
    81   39  164 1    
    82   40   41 2    
    83   40   42 1    
    84   42   43 1    
    85   42   44 1    
    86   42  165 1    
    87   43  166 1    
    88   43  167 1    
    89   43  168 1    
    90   44   45 am   BACKBONE|DICT|INTERRES
    91   44  169 1    
    92   45   46 2    
    93   45   47 1    
    94   47   48 1    
    95   47   49 1    
    96   47  170 1    
    97   48  171 1    
    98   48  172 1    
    99   48  173 1    
   100   49   50 am   BACKBONE|DICT|INTERRES
   101   49  174 1    
   102   50   51 2    
   103   50   52 1    
   104   52   53 1    
   105   52   54 1    
   106   52  175 1    
   107   53  176 1    
   108   53  177 1    
   109   53  178 1    
   110   54   55 am   BACKBONE|DICT|INTERRES
   111   54  179 1    
   112   55   56 2    
   113   55   57 1    
   114   57   58 1    
   115   57   59 1    
   116   57  180 1    
   117   58  181 1    
   118   58  182 1    
   119   58  183 1    
   120   59   60 am   BACKBONE|DICT|INTERRES
   121   59  184 1    
   122   60   61 2    
   123   60   62 1    
   124   62   63 1    
   125   62   64 1    
   126   62  185 1    
   127   63  186 1    
   128   63  187 1    
   129   63  188 1    
   130   64   65 am   BACKBONE|DICT|INTERRES
   131   64  189 1    
   132   65   66 2    
   133   67   68 2    
   134   67   69 am   BACKBONE|DICT|INTERRES
   135   69   70 1    
   136   69  190 1    
   137   70   71 1    
   138   70   72 1    
   139   70  191 1    
   140   71  192 1    
   141   71  193 1    
   142   71  194 1    
   143   72   73 2    
   144   72   74 am   BACKBONE|DICT|INTERRES
   145   74   75 1    
   146   74  195 1    
   147   75   76 1    
   148   75   77 1    
   149   75  196 1    
   150   76  197 1    
   151   76  198 1    
   152   76  199 1    
   153   77   78 2    
   154   77   79 am   BACKBONE|DICT|INTERRES
   155   79   80 1    
   156   79  200 1    
   157   80   81 1    
   158   80   82 1    
   159   80  201 1    
   160   81  202 1    
   161   81  203 1    
   162   81  204 1    
   163   82   83 2    
   164   82   84 am   BACKBONE|DICT|INTERRES
   165   84   85 1    
   166   84  205 1    
   167   85   86 1    
   168   85   87 1    
   169   85  206 1    
   170   86  207 1    
   171   86  208 1    
   172   86  209 1    
   173   87   88 2    
   174   87   89 am   BACKBONE|DICT|INTERRES
   175   89   90 1    
   176   89  210 1    
   177   90   91 1    
   178   90   92 1    
   179   90  211 1    
   180   91  212 1    
   181   91  213 1    
   182   91  214 1    
   183   92   93 2    
   184   92   94 am   BACKBONE|DICT|INTERRES
   185   94   95 1    
   186   94  215 1    
   187   95   96 1    
   188   95   97 1    
   189   95  216 1    
   190   96  217 1    
   191   96  218 1    
   192   96  219 1    
   193   97   98 2    
   194   97   99 am   BACKBONE|DICT|INTERRES
   195   99  100 1    
   196   99  220 1    
   197  100  101 1    
   198  100  102 1    
   199  100  221 1    
   200  101  222 1    
   201  101  223 1    
   202  101  224 1    
   203  102  103 2    
   204  102  104 am   BACKBONE|DICT|INTERRES
   205  104  105 1    
   206  104  225 1    
   207  105  106 1    
   208  105  107 1    
   209  105  226 1    
   210  106  227 1    
   211  106  228 1    
   212  106  229 1    
   213  107  108 2    
   214  107  109 am   BACKBONE|DICT|INTERRES
   215  109  110 1    
   216  109  230 1    
   217  110  111 1    
   218  110  112 1    
   219  110  231 1    
   220  111  232 1    
   221  111  233 1    
   222  111  234 1    
   223  112  113 2    
   224  112  114 am   BACKBONE|DICT|INTERRES
   225  114  115 1    
   226  114  235 1    
   227  115  116 1    
   228  115  117 1    
   229  115  236 1    
   230  116  237 1    
   231  116  238 1    
   232  116  239 1    
   233  117  118 2    
   234  117  119 am   BACKBONE|DICT|INTERRES
   235  119  120 1    
   236  119  240 1    
   237  120  121 1    
   238  120  124 1    
   239  120  241 1    
   240  121  122 am   BACKBONE|DICT|INTERRES
   241  121  123 2    
   242  122  242 1    
   243  122  243 1    
   244  124  125 1    
   245  124  244 1    
   246  124  245 1    
   247  125  126 1    
   248  126  246 1    
   249  126  247 1    
@<TRIPOS>SUBSTRUCTURE
     1 UNK         1 GROUP             0       ****    0 ROOT    
