@<TRIPOS>MOLECULE
3R540
247   249    1
SMALL
USER_CHARGES


@<TRIPOS>ATOM
      1 CA          3.4356  -10.5787  -46.4046 C.3       0 UNK        -0.1800 
      2 C           1.9558  -10.2531  -46.2087 C.2       0 UNK         0.5000 
      3 O           1.6162   -9.0910  -45.9988 O.2       0 UNK        -0.5000 
      4 N           1.0411  -11.2304  -46.2761 N.am      1 UNK        -0.5000 
      5 CA          1.2990  -12.6638  -46.4732 C.3       1 UNK         0.1400 
      6 C6          0.0868  -13.4105  -47.0842 C.3       23 UNK        -0.0398 
      7 S7         -0.5417  -12.6110  -48.6003 S.3       23 UNK        -0.2404 
      8 C8          0.3398  -13.5218  -49.9050 C.3       23 UNK        -0.0205 
      9 C9         -0.2349  -14.9129  -50.1246 C.ar      23 UNK        -0.0193 
     10 C10        -1.5151  -15.0646  -50.6636 C.ar      23 UNK        -0.1150 
     11 C11        -2.0390  -16.3372  -50.9049 C.ar      23 UNK        -0.0193 
     12 C12        -1.2761  -17.4661  -50.5919 C.ar      23 UNK        -0.1150 
     13 C13         0.0074  -17.3285  -50.0535 C.ar      23 UNK        -0.0193 
     14 C14         0.5234  -16.0479  -49.8268 C.ar      23 UNK        -0.1150 
     15 C15         0.8477  -18.5661  -49.7661 C.3       23 UNK        -0.0205 
     16 S16         1.5964  -18.5730  -48.1035 S.3       23 UNK        -0.2404 
     17 C17         0.1398  -18.5613  -47.0060 C.3       23 UNK        -0.0398 
     18 CA         -0.3468  -19.9933  -46.6677 C.3       11 UNK         0.1400 
     19 N          -0.7530  -20.1339  -45.2677 N.am      11 UNK        -0.5000 
     20 C          -1.0532  -21.2996  -44.6766 C.2       10 UNK         0.5000 
     21 O          -0.9489  -22.3943  -45.2284 O.2       10 UNK        -0.5000 
     22 CA         -1.6254  -21.2237  -43.2511 C.3       10 UNK         0.1400 
     23 CB         -0.5020  -21.1341  -42.2068 C.3       10 UNK        -0.1800 
     24 N          -2.5501  -20.0984  -43.0995 N.am      10 UNK        -0.5000 
     25 C          -3.7519  -20.0321  -43.6922 C.2       9 UNK         0.5000 
     26 O          -4.2245  -20.9393  -44.3750 O.2       9 UNK        -0.5000 
     27 CA         -4.5403  -18.7194  -43.5321 C.3       9 UNK         0.1400 
     28 CB         -5.3719  -18.7445  -42.2413 C.3       9 UNK        -0.1800 
     29 N          -3.6781  -17.5374  -43.5289 N.am      9 UNK        -0.5000 
     30 C          -2.9599  -17.1096  -44.5778 C.2       8 UNK         0.5000 
     31 O          -2.9710  -17.6487  -45.6840 O.2       8 UNK        -0.5000 
     32 CA         -2.0100  -15.9255  -44.3118 C.3       8 UNK         0.1400 
     33 CB         -2.7524  -14.5868  -44.4295 C.3       8 UNK        -0.1800 
     34 N          -1.3669  -16.0180  -42.9960 N.am      8 UNK        -0.5000 
     35 C          -0.5166  -16.9954  -42.6607 C.2       7 UNK         0.5000 
     36 O          -0.1717  -17.8891  -43.4399 O.2       7 UNK        -0.5000 
     37 CA         -0.0014  -17.0136  -41.2160 C.3       7 UNK         0.1400 
     38 CB         -1.0401  -17.6570  -40.2784 C.3       7 UNK        -0.1800 
     39 N           1.2357  -17.7800  -41.2244 N.am      7 UNK        -0.5000 
     40 C           2.1433  -17.8921  -40.2491 C.2       6 UNK         0.5000 
     41 O           2.0203  -17.3991  -39.1277 O.2       6 UNK        -0.5000 
     42 CA          3.4246  -18.6725  -40.6130 C.3       6 UNK         0.1400 
     43 CB          3.2410  -20.1713  -40.3282 C.3       6 UNK        -0.1800 
     44 N           3.8045  -18.4909  -42.0195 N.am      6 UNK        -0.5000 
     45 C           4.2253  -17.3265  -42.5333 C.2       5 UNK         0.5000 
     46 O           4.4810  -16.3391  -41.8419 O.2       5 UNK        -0.5000 
     47 CA          4.3348  -17.2544  -44.0690 C.3       5 UNK         0.1400 
     48 CB          2.9733  -17.5271  -44.7300 C.3       5 UNK        -0.1800 
     49 N           4.7811  -15.9352  -44.5085 N.am      5 UNK        -0.5000 
     50 C           6.0524  -15.5209  -44.5560 C.2       4 UNK         0.5000 
     51 O           7.0214  -16.2412  -44.3115 O.2       4 UNK        -0.5000 
     52 CA          6.2706  -14.0460  -44.9275 C.3       4 UNK         0.1400 
     53 CB          5.9970  -13.8096  -46.4226 C.3       4 UNK        -0.1800 
     54 N           5.3968  -13.1788  -44.1373 N.am      4 UNK        -0.5000 
     55 C           5.7789  -12.4894  -43.0526 C.2       3 UNK         0.5000 
     56 O           6.9260  -12.5031  -42.6043 O.2       3 UNK        -0.5000 
     57 CA          4.7152  -11.6150  -42.3560 C.3       3 UNK         0.1400 
     58 CB          4.9033  -10.1369  -42.7329 C.3       3 UNK        -0.1800 
     59 N           3.3478  -12.0167  -42.6886 N.am      3 UNK        -0.5000 
     60 C           2.6881  -13.0185  -42.0927 C.2       2 UNK         0.5000 
     61 O           3.1136  -13.6232  -41.1104 O.2       2 UNK        -0.5000 
     62 CA          1.3202  -13.4131  -42.6845 C.3       2 UNK         0.1400 
     63 CB          0.1815  -12.9315  -41.7719 C.3       2 UNK        -0.1800 
     64 N           1.0808  -12.9114  -44.0417 N.am      2 UNK        -0.5000 
     65 C           1.7212  -13.3229  -45.1459 C.2       1 UNK         0.5000 
     66 O           2.6479  -14.1322  -45.1315 O.2       1 UNK        -0.5000 
     67 C          -1.4630  -20.4519  -47.6278 C.2       11 UNK         0.5000 
     68 O          -1.1966  -21.2376  -48.5361 O.2       11 UNK        -0.5000 
     69 N          -2.7006  -20.0006  -47.3756 N.am      12 UNK        -0.5000 
     70 CA         -3.8968  -20.4020  -48.1174 C.3       12 UNK         0.1400 
     71 CB         -5.1058  -19.5915  -47.6283 C.3       12 UNK        -0.1800 
     72 C          -4.1780  -21.9135  -48.0238 C.2       12 UNK         0.5000 
     73 O          -4.5119  -22.5256  -49.0358 O.2       12 UNK        -0.5000 
     74 N          -4.0000  -22.4956  -46.8292 N.am      13 UNK        -0.5000 
     75 CA         -4.1233  -23.9328  -46.5816 C.3       13 UNK         0.1400 
     76 CB         -4.1065  -24.2022  -45.0698 C.3       13 UNK        -0.1800 
     77 C          -3.0408  -24.7629  -47.2969 C.2       13 UNK         0.5000 
     78 O          -3.3505  -25.8336  -47.8171 O.2       13 UNK        -0.5000 
     79 N          -1.8014  -24.2550  -47.3382 N.am      14 UNK        -0.5000 
     80 CA         -0.6854  -24.8655  -48.0652 C.3       14 UNK         0.1400 
     81 CB          0.6304  -24.1952  -47.6412 C.3       14 UNK        -0.1800 
     82 C          -0.8672  -24.7969  -49.5941 C.2       14 UNK         0.5000 
     83 O          -0.5257  -25.7502  -50.2942 O.2       14 UNK        -0.5000 
     84 N          -1.4186  -23.6774  -50.0779 N.am      15 UNK        -0.5000 
     85 CA         -1.7202  -23.4180  -51.4850 C.3       15 UNK         0.1400 
     86 CB         -1.7953  -21.8959  -51.6894 C.3       15 UNK        -0.1800 
     87 C          -3.0068  -24.1043  -51.9888 C.2       15 UNK         0.5000 
     88 O          -3.2832  -24.0446  -53.1897 O.2       15 UNK        -0.5000 
     89 N          -3.7985  -24.7088  -51.0910 N.am      16 UNK        -0.5000 
     90 CA         -5.0488  -25.4034  -51.4050 C.3       16 UNK         0.1400 
     91 CB         -5.7152  -25.8892  -50.1113 C.3       16 UNK        -0.1800 
     92 C          -4.8209  -26.5721  -52.3788 C.2       16 UNK         0.5000 
     93 O          -3.8815  -27.3480  -52.1910 O.2       16 UNK        -0.5000 
     94 N          -5.6533  -26.6361  -53.4271 N.am      17 UNK        -0.5000 
     95 CA         -5.6067  -27.5425  -54.5858 C.3       17 UNK         0.1400 
     96 CB         -5.7361  -29.0171  -54.1589 C.3       17 UNK        -0.1800 
     97 C          -4.3916  -27.3360  -55.5173 C.2       17 UNK         0.5000 
     98 O          -4.5544  -27.4044  -56.7354 O.2       17 UNK        -0.5000 
     99 N          -3.2117  -27.0673  -54.9446 N.am      18 UNK        -0.5000 
    100 CA        -1.9508  -26.8194  -55.6439 C.3       18 UNK         0.1400 
    101 CB        -0.8077  -26.7861  -54.6171 C.3       18 UNK        -0.1800 
    102 C         -1.9668  -25.5256  -56.4778 C.2       18 UNK         0.5000 
    103 O         -1.4944  -25.5301  -57.6153 O.2       18 UNK        -0.5000 
    104 N         -2.5197  -24.4527  -55.9003 N.am      19 UNK        -0.5000 
    105 CA        -2.6541  -23.1324  -56.5177 C.3       19 UNK         0.1400 
    106 CB        -1.5259  -22.2205  -56.0035 C.3       19 UNK        -0.1800 
    107 C         -4.0533  -22.5340  -56.2707 C.2       19 UNK         0.5000 
    108 O         -4.2347  -21.3273  -56.4353 O.2       19 UNK        -0.5000 
    109 N         -5.0161  -23.3893  -55.8891 N.am      20 UNK        -0.5000 
    110 CA        -6.4157  -23.0755  -55.5742 C.3       20 UNK         0.1400 
    111 CB        -7.1679  -22.5903  -56.8310 C.3       20 UNK        -0.1800 
    112 C         -6.5730  -22.1224  -54.3689 C.2       20 UNK         0.5000 
    113 O         -7.4674  -21.2721  -54.3628 O.2       20 UNK        -0.5000 
    114 N         -5.7012  -22.2944  -53.3628 N.am      21 UNK        -0.5000 
    115 CA        -5.6129  -21.5026  -52.1328 C.3       21 UNK         0.1400 
    116 CB        -6.8470  -21.7414  -51.2310 C.3       21 UNK        -0.1800 
    117 C         -5.3320  -20.0241  -52.4589 C.2       21 UNK         0.5000 
    118 O         -4.2676  -19.7236  -53.0002 O.2       21 UNK        -0.5000 
    119 N         -6.2955  -19.1492  -52.1605 N.am      22 UNK        -0.5000 
    120 CA        -6.3195  -17.7379  -52.5668 C.3       22 UNK         0.1400 
    121 C         -7.5539  -17.4136  -53.4604 C.2       22 UNK         0.5000 
    122 N         -8.2175  -18.3953  -54.0633 N.am      22 UNK        -0.7600 
    123 O         -7.9150  -16.2518  -53.6275 O.2       22 UNK        -0.5000 
    124 C124       -6.1906  -16.7770  -51.3520 C.3       23 UNK        -0.0398 
    125 S125       -4.6740  -17.0181  -50.3604 S.3       23 UNK        -0.2404 
    126 C126       -3.4061  -16.4879  -51.5516 C.3       23 UNK        -0.0205 
    127 H127        3.6191  -10.9292  -47.4201 H         1 UNK         0.0600 
    128 H128        4.0463   -9.6894  -46.2468 H         1 UNK         0.0600 
    129 H129        3.7753  -11.3404  -45.7056 H         1 UNK         0.0600 
    130 H130        0.0667  -10.9756  -46.2017 H         1 UNK         0.3000 
    131 H131        2.1283  -12.7800  -47.1733 H         1 UNK         0.0600 
    132 H132        0.3426  -14.4495  -47.2999 H         1 UNK         0.0800 
    133 H133       -0.7410  -13.4457  -46.3750 H         1 UNK         0.0800 
    134 H134        1.4030  -13.5671  -49.6637 H         1 UNK         0.0800 
    135 H135        0.2632  -12.9593  -50.8365 H         1 UNK         0.0800 
    136 H136       -2.0971  -14.1867  -50.9077 H         1 UNK         0.1150 
    137 H137       -1.6797  -18.4506  -50.7860 H         1 UNK         0.1150 
    138 H138        1.5210  -15.9373  -49.4255 H         1 UNK         0.1150 
    139 H139        0.2609  -19.4753  -49.8983 H         1 UNK         0.0800 
    140 H140        1.6487  -18.6151  -50.5047 H         1 UNK         0.0800 
    141 H141       -0.6521  -17.9344  -47.4206 H         1 UNK         0.0800 
    142 H142        0.4544  -18.0489  -46.0967 H         1 UNK         0.0800 
    143 H143        0.4889  -20.6847  -46.7988 H         1 UNK         0.0600 
    144 H144       -0.8162  -19.2820  -44.7205 H         1 UNK         0.3000 
    145 H145       -2.1811  -22.1454  -43.0658 H         1 UNK         0.0600 
    146 H146       -0.9041  -21.1169  -41.1938 H         1 UNK         0.0600 
    147 H147        0.1602  -21.9979  -42.2768 H         1 UNK         0.0600 
    148 H148        0.1119  -20.2449  -42.3410 H         1 UNK         0.0600 
    149 H149       -2.2156  -19.2972  -42.5879 H         1 UNK         0.3000 
    150 H150       -5.2248  -18.6364  -44.3788 H         1 UNK         0.0600 
    151 H151       -6.0395  -19.6070  -42.2245 H         1 UNK         0.0600 
    152 H152       -5.9932  -17.8529  -42.1551 H         1 UNK         0.0600 
    153 H153       -4.7398  -18.8011  -41.3541 H         1 UNK         0.0600 
    154 H154       -3.6062  -17.0313  -42.6591 H         1 UNK         0.3000 
    155 H155       -1.2280  -15.9494  -45.0743 H         1 UNK         0.0600 
    156 H156       -3.2084  -14.4805  -45.4149 H         1 UNK         0.0600 
    157 H157       -3.5475  -14.4984  -43.6882 H         1 UNK         0.0600 
    158 H158       -2.0738  -13.7450  -44.2938 H         1 UNK         0.0600 
    159 H159       -1.6343  -15.3292  -42.3083 H         1 UNK         0.3000 
    160 H160        0.2131  -15.9922  -40.8970 H         1 UNK         0.0600 
    161 H161       -1.2427  -18.6930  -40.5501 H         1 UNK         0.0600 
    162 H162       -1.9870  -17.1168  -40.3084 H         1 UNK         0.0600 
    163 H163       -0.7014  -17.6473  -39.2426 H         1 UNK         0.0600 
    164 H164        1.4223  -18.2120  -42.1207 H         1 UNK         0.3000 
    165 H165        4.2356  -18.2992  -39.9840 H         1 UNK         0.0600 
    166 H166        4.1596  -20.7252  -40.5225 H         1 UNK         0.0600 
    167 H167        2.9760  -20.3394  -39.2835 H         1 UNK         0.0600 
    168 H168        2.4500  -20.6056  -40.9408 H         1 UNK         0.0600 
    169 H169        3.6433  -19.2736  -42.6365 H         1 UNK         0.3000 
    170 H170        5.0490  -18.0104  -44.4014 H         1 UNK         0.0600 
    171 H171        2.6191  -18.5392  -44.5325 H         1 UNK         0.0600 
    172 H172        2.2095  -16.8331  -44.3772 H         1 UNK         0.0600 
    173 H173        3.0419  -17.4163  -45.8114 H         1 UNK         0.0600 
    174 H174        4.0413  -15.2697  -44.7144 H         1 UNK         0.3000 
    175 H175        7.3185  -13.8030  -44.7387 H         1 UNK         0.0600 
    176 H176        4.9622  -14.0280  -46.6888 H         1 UNK         0.0600 
    177 H177        6.2002  -12.7749  -46.6992 H         1 UNK         0.0600 
    178 H178        6.6354  -14.4427  -47.0400 H         1 UNK         0.0600 
    179 H179        4.4191  -13.1782  -44.3934 H         1 UNK         0.3000 
    180 H180        4.8652  -11.7089  -41.2782 H         1 UNK         0.0600 
    181 H181        4.7877   -9.9731  -43.8043 H         1 UNK         0.0600 
    182 H182        5.8985   -9.7877  -42.4549 H         1 UNK         0.0600 
    183 H183        4.1825   -9.5029  -42.2162 H         1 UNK         0.0600 
    184 H184        2.8990  -11.5319  -43.4501 H         1 UNK         0.3000 
    185 H185        1.2955  -14.5036  -42.7241 H         1 UNK         0.0600 
    186 H186        0.2874  -13.3375  -40.7650 H         1 UNK         0.0600 
    187 H187        0.1708  -11.8442  -41.6863 H         1 UNK         0.0600 
    188 H188       -0.7917  -13.2450  -42.1477 H         1 UNK         0.0600 
    189 H189        0.3700  -12.2002  -44.1349 H         1 UNK         0.3000 
    190 H190       -2.8314  -19.3139  -46.6377 H         1 UNK         0.3000 
    191 H191       -3.7283  -20.1565  -49.1681 H         1 UNK         0.0600 
    192 H192       -5.3562  -19.8231  -46.5933 H         1 UNK         0.0600 
    193 H193       -5.9867  -19.8030  -48.2352 H         1 UNK         0.0600 
    194 H194       -4.9157  -18.5201  -47.6928 H         1 UNK         0.0600 
    195 H195       -3.7921  -21.9114  -46.0252 H         1 UNK         0.3000 
    196 H196       -5.0926  -24.2533  -46.9691 H         1 UNK         0.0600 
    197 H197       -4.2273  -25.2660  -44.8615 H         1 UNK         0.0600 
    198 H198       -4.9194  -23.6781  -44.5669 H         1 UNK         0.0600 
    199 H199       -3.1695  -23.8829  -44.6137 H         1 UNK         0.0600 
    200 H200       -1.6035  -23.3981  -46.8309 H         1 UNK         0.3000 
    201 H201       -0.6335  -25.9193  -47.7836 H         1 UNK         0.0600 
    202 H202        0.7966  -24.2978  -46.5686 H         1 UNK         0.0600 
    203 H203        0.6373  -23.1313  -47.8790 H         1 UNK         0.0600 
    204 H204        1.4818  -24.6508  -48.1481 H         1 UNK         0.0600 
    205 H205       -1.6017  -22.9140  -49.4321 H         1 UNK         0.3000 
    206 H206       -0.9004  -23.8000  -52.0964 H         1 UNK         0.0600 
    207 H207       -2.0927  -21.6383  -52.7057 H         1 UNK         0.0600 
    208 H208       -2.5151  -21.4345  -51.0135 H         1 UNK         0.0600 
    209 H209       -0.8278  -21.4286  -51.5061 H         1 UNK         0.0600 
    210 H210       -3.5172  -24.7002  -50.1208 H         1 UNK         0.3000 
    211 H211       -5.7146  -24.6786  -51.8742 H         1 UNK         0.0600 
    212 H212       -5.1174  -26.6549  -49.6160 H         1 UNK         0.0600 
    213 H213       -6.6947  -26.3223  -50.3167 H         1 UNK         0.0600 
    214 H214       -5.8622  -25.0680  -49.4093 H         1 UNK         0.0600 
    215 H215       -6.3928  -25.9499  -53.4710 H         1 UNK         0.3000 
    216 H216       -6.4908  -27.3005  -55.1780 H         1 UNK         0.0600 
    217 H217       -5.8278  -29.6657  -55.0309 H         1 UNK         0.0600 
    218 H218       -6.6221  -29.1731  -53.5434 H         1 UNK         0.0600 
    219 H219       -4.8693  -29.3584  -53.5927 H         1 UNK         0.0600 
    220 H220       -3.1829  -27.0659  -53.9288 H         1 UNK         0.3000 
    221 H221       -1.7751  -27.6541  -56.3256 H         1 UNK         0.0600 
    222 H222       -0.9516  -25.9963  -53.8783 H         1 UNK         0.0600 
    223 H223       -0.7318  -27.7327  -54.0818 H         1 UNK         0.0600 
    224 H224        0.1520  -26.6103  -55.1048 H         1 UNK         0.0600 
    225 H225       -2.8369  -24.5158  -54.9348 H         1 UNK         0.3000 
    226 H226       -2.5566  -23.2173  -57.6017 H         1 UNK         0.0600 
    227 H227       -0.5462  -22.6417  -56.2292 H         1 UNK         0.0600 
    228 H228       -1.5685  -21.2349  -56.4683 H         1 UNK         0.0600 
    229 H229       -1.5888  -22.0807  -54.9250 H         1 UNK         0.0600 
    230 H230       -4.7544  -24.3608  -55.8101 H         1 UNK         0.3000 
    231 H231       -6.8736  -24.0169  -55.2683 H         1 UNK         0.0600 
    232 H232       -8.2371  -22.4995  -56.6359 H         1 UNK         0.0600 
    233 H233       -7.0490  -23.2911  -57.6573 H         1 UNK         0.0600 
    234 H234       -6.8144  -21.6143  -57.1646 H         1 UNK         0.0600 
    235 H235       -4.9463  -22.9582  -53.4995 H         1 UNK         0.3000 
    236 H236       -4.7424  -21.8602  -51.5882 H         1 UNK         0.0600 
    237 H237       -6.9300  -22.7931  -50.9587 H         1 UNK         0.0600 
    238 H238       -6.7627  -21.1833  -50.2979 H         1 UNK         0.0600 
    239 H239       -7.7822  -21.4519  -51.7105 H         1 UNK         0.0600 
    240 H240       -7.1472  -19.4944  -51.7425 H         1 UNK         0.3000 
    241 H241       -5.4764  -17.5399  -53.2289 H         1 UNK         0.0600 
    242 H242       -9.0111  -18.1665  -54.6406 H         1 UNK         0.3800 
    243 H243       -7.9050  -19.3607  -54.0125 H         1 UNK         0.3800 
    244 H244       -6.2090  -15.7364  -51.6801 H         1 UNK         0.0800 
    245 H245       -7.0481  -16.8981  -50.6885 H         1 UNK         0.0800 
    246 H246       -3.3348  -17.2191  -52.3574 H         1 UNK         0.0800 
    247 H247       -3.7123  -15.5480  -52.0133 H         1 UNK         0.0800 
@<TRIPOS>BOND
     1    1    2 1    
     2    1  127 1    
     3    1  128 1    
     4    1  129 1    
     5    2    3 2    
     6    2    4 am   BACKBONE|DICT|INTERRES
     7    4    5 1    
     8    4  130 1    
     9    5    6 1    
    10    5   65 1    
    11    5  131 1    
    12    6    7 1    
    13    6  132 1    
    14    6  133 1    
    15    7    8 1    
    16    8    9 1    
    17    8  134 1    
    18    8  135 1    
    19    9   10 ar   
    20    9   14 ar   
    21   10   11 ar   
    22   10  136 1    
    23   11   12 ar   
    24   11  126 1    
    25   12   13 ar   
    26   12  137 1    
    27   13   14 ar   
    28   13   15 1    
    29   14  138 1    
    30   15   16 1    
    31   15  139 1    
    32   15  140 1    
    33   16   17 1    
    34   17   18 1    
    35   17  141 1    
    36   17  142 1    
    37   18   19 1    
    38   18   67 1    
    39   18  143 1    
    40   19   20 am   BACKBONE|DICT|INTERRES
    41   19  144 1    
    42   20   21 2    
    43   20   22 1    
    44   22   23 1    
    45   22   24 1    
    46   22  145 1    
    47   23  146 1    
    48   23  147 1    
    49   23  148 1    
    50   24   25 am   BACKBONE|DICT|INTERRES
    51   24  149 1    
    52   25   26 2    
    53   25   27 1    
    54   27   28 1    
    55   27   29 1    
    56   27  150 1    
    57   28  151 1    
    58   28  152 1    
    59   28  153 1    
    60   29   30 am   BACKBONE|DICT|INTERRES
    61   29  154 1    
    62   30   31 2    
    63   30   32 1    
    64   32   33 1    
    65   32   34 1    
    66   32  155 1    
    67   33  156 1    
    68   33  157 1    
    69   33  158 1    
    70   34   35 am   BACKBONE|DICT|INTERRES
    71   34  159 1    
    72   35   36 2    
    73   35   37 1    
    74   37   38 1    
    75   37   39 1    
    76   37  160 1    
    77   38  161 1    
    78   38  162 1    
    79   38  163 1    
    80   39   40 am   BACKBONE|DICT|INTERRES
    81   39  164 1    
    82   40   41 2    
    83   40   42 1    
    84   42   43 1    
    85   42   44 1    
    86   42  165 1    
    87   43  166 1    
    88   43  167 1    
    89   43  168 1    
    90   44   45 am   BACKBONE|DICT|INTERRES
    91   44  169 1    
    92   45   46 2    
    93   45   47 1    
    94   47   48 1    
    95   47   49 1    
    96   47  170 1    
    97   48  171 1    
    98   48  172 1    
    99   48  173 1    
   100   49   50 am   BACKBONE|DICT|INTERRES
   101   49  174 1    
   102   50   51 2    
   103   50   52 1    
   104   52   53 1    
   105   52   54 1    
   106   52  175 1    
   107   53  176 1    
   108   53  177 1    
   109   53  178 1    
   110   54   55 am   BACKBONE|DICT|INTERRES
   111   54  179 1    
   112   55   56 2    
   113   55   57 1    
   114   57   58 1    
   115   57   59 1    
   116   57  180 1    
   117   58  181 1    
   118   58  182 1    
   119   58  183 1    
   120   59   60 am   BACKBONE|DICT|INTERRES
   121   59  184 1    
   122   60   61 2    
   123   60   62 1    
   124   62   63 1    
   125   62   64 1    
   126   62  185 1    
   127   63  186 1    
   128   63  187 1    
   129   63  188 1    
   130   64   65 am   BACKBONE|DICT|INTERRES
   131   64  189 1    
   132   65   66 2    
   133   67   68 2    
   134   67   69 am   BACKBONE|DICT|INTERRES
   135   69   70 1    
   136   69  190 1    
   137   70   71 1    
   138   70   72 1    
   139   70  191 1    
   140   71  192 1    
   141   71  193 1    
   142   71  194 1    
   143   72   73 2    
   144   72   74 am   BACKBONE|DICT|INTERRES
   145   74   75 1    
   146   74  195 1    
   147   75   76 1    
   148   75   77 1    
   149   75  196 1    
   150   76  197 1    
   151   76  198 1    
   152   76  199 1    
   153   77   78 2    
   154   77   79 am   BACKBONE|DICT|INTERRES
   155   79   80 1    
   156   79  200 1    
   157   80   81 1    
   158   80   82 1    
   159   80  201 1    
   160   81  202 1    
   161   81  203 1    
   162   81  204 1    
   163   82   83 2    
   164   82   84 am   BACKBONE|DICT|INTERRES
   165   84   85 1    
   166   84  205 1    
   167   85   86 1    
   168   85   87 1    
   169   85  206 1    
   170   86  207 1    
   171   86  208 1    
   172   86  209 1    
   173   87   88 2    
   174   87   89 am   BACKBONE|DICT|INTERRES
   175   89   90 1    
   176   89  210 1    
   177   90   91 1    
   178   90   92 1    
   179   90  211 1    
   180   91  212 1    
   181   91  213 1    
   182   91  214 1    
   183   92   93 2    
   184   92   94 am   BACKBONE|DICT|INTERRES
   185   94   95 1    
   186   94  215 1    
   187   95   96 1    
   188   95   97 1    
   189   95  216 1    
   190   96  217 1    
   191   96  218 1    
   192   96  219 1    
   193   97   98 2    
   194   97   99 am   BACKBONE|DICT|INTERRES
   195   99  100 1    
   196   99  220 1    
   197  100  101 1    
   198  100  102 1    
   199  100  221 1    
   200  101  222 1    
   201  101  223 1    
   202  101  224 1    
   203  102  103 2    
   204  102  104 am   BACKBONE|DICT|INTERRES
   205  104  105 1    
   206  104  225 1    
   207  105  106 1    
   208  105  107 1    
   209  105  226 1    
   210  106  227 1    
   211  106  228 1    
   212  106  229 1    
   213  107  108 2    
   214  107  109 am   BACKBONE|DICT|INTERRES
   215  109  110 1    
   216  109  230 1    
   217  110  111 1    
   218  110  112 1    
   219  110  231 1    
   220  111  232 1    
   221  111  233 1    
   222  111  234 1    
   223  112  113 2    
   224  112  114 am   BACKBONE|DICT|INTERRES
   225  114  115 1    
   226  114  235 1    
   227  115  116 1    
   228  115  117 1    
   229  115  236 1    
   230  116  237 1    
   231  116  238 1    
   232  116  239 1    
   233  117  118 2    
   234  117  119 am   BACKBONE|DICT|INTERRES
   235  119  120 1    
   236  119  240 1    
   237  120  121 1    
   238  120  124 1    
   239  120  241 1    
   240  121  122 am   BACKBONE|DICT|INTERRES
   241  121  123 2    
   242  122  242 1    
   243  122  243 1    
   244  124  125 1    
   245  124  244 1    
   246  124  245 1    
   247  125  126 1    
   248  126  246 1    
   249  126  247 1    
@<TRIPOS>SUBSTRUCTURE
     1 UNK         1 GROUP             0       ****    0 ROOT    
