@<TRIPOS>MOLECULE
3R540
247   249    1
SMALL
USER_CHARGES


@<TRIPOS>ATOM
      1 CA          4.8656  -13.9556  -46.9859 C.3       0 UNK        -0.1800 
      2 C           3.5018  -13.6250  -46.3996 C.2       0 UNK         0.5000 
      3 O           3.3950  -13.3897  -45.1972 O.2       0 UNK        -0.5000 
      4 N           2.4623  -13.5838  -47.2428 N.am      1 UNK        -0.5000 
      5 CA          1.0595  -13.3640  -46.8569 C.3       1 UNK         0.1400 
      6 C6          0.0904  -13.5230  -48.0567 C.3       23 UNK        -0.0398 
      7 S7          0.3115  -15.0984  -48.9447 S.3       23 UNK        -0.2404 
      8 C8         -1.2301  -15.1867  -49.9097 C.3       23 UNK        -0.0205 
      9 C9         -1.1159  -16.2348  -51.0064 C.ar      23 UNK        -0.0193 
     10 C10        -1.0938  -15.8616  -52.3544 C.ar      23 UNK        -0.1150 
     11 C11        -0.9406  -16.8233  -53.3591 C.ar      23 UNK        -0.0193 
     12 C12        -0.7824  -18.1650  -52.9945 C.ar      23 UNK        -0.1150 
     13 C13        -0.8249  -18.5551  -51.6548 C.ar      23 UNK        -0.0193 
     14 C14        -1.0093  -17.5848  -50.6666 C.ar      23 UNK        -0.1150 
     15 C15        -0.7263  -20.0284  -51.2944 C.3       23 UNK        -0.0205 
     16 S16         0.8398  -20.4637  -50.4706 S.3       23 UNK        -0.2404 
     17 C17         0.3885  -20.3456  -48.7063 C.3       23 UNK        -0.0398 
     18 CA         -0.0998  -21.6826  -48.0969 C.3       11 UNK         0.1400 
     19 N          -0.0634  -21.6301  -46.6369 N.am      11 UNK        -0.5000 
     20 C          -0.2477  -22.6883  -45.8397 C.2       10 UNK         0.5000 
     21 O          -0.4077  -23.8354  -46.2538 O.2       10 UNK        -0.5000 
     22 CA         -0.3249  -22.4054  -44.3296 C.3       10 UNK         0.1400 
     23 CB          1.0800  -22.2325  -43.7347 C.3       10 UNK        -0.1800 
     24 N          -1.1453  -21.2320  -44.0224 N.am      10 UNK        -0.5000 
     25 C          -2.4490  -21.1263  -44.3185 C.2       9 UNK         0.5000 
     26 O          -3.1014  -22.0265  -44.8478 O.2       9 UNK        -0.5000 
     27 CA         -3.1314  -19.7812  -44.0153 C.3       9 UNK         0.1400 
     28 CB         -3.4874  -19.6763  -42.5253 C.3       9 UNK        -0.1800 
     29 N          -2.3288  -18.6235  -44.4120 N.am      9 UNK        -0.5000 
     30 C          -1.9519  -18.3423  -45.6677 C.2       8 UNK         0.5000 
     31 O          -2.2318  -19.0377  -46.6407 O.2       8 UNK        -0.5000 
     32 CA         -1.0642  -17.1027  -45.8654 C.3       8 UNK         0.1400 
     33 CB         -1.8932  -15.8146  -45.7339 C.3       8 UNK        -0.1800 
     34 N           0.0604  -17.0868  -44.9298 N.am      8 UNK        -0.5000 
     35 C           1.0174  -18.0274  -44.8867 C.2       7 UNK         0.5000 
     36 O           1.0929  -18.9716  -45.6747 O.2       7 UNK        -0.5000 
     37 CA          2.0208  -17.9315  -43.7256 C.3       7 UNK         0.1400 
     38 CB          3.1471  -16.9383  -44.0499 C.3       7 UNK        -0.1800 
     39 N           1.3646  -17.5533  -42.4729 N.am      7 UNK        -0.5000 
     40 C           0.5187  -18.3478  -41.7988 C.2       6 UNK         0.5000 
     41 O           0.2398  -19.4956  -42.1421 O.2       6 UNK        -0.5000 
     42 CA         -0.1679  -17.7449  -40.5595 C.3       6 UNK         0.1400 
     43 CB          0.7321  -17.8817  -39.3226 C.3       6 UNK        -0.1800 
     44 N          -0.5277  -16.3393  -40.7441 N.am      6 UNK        -0.5000 
     45 C          -1.4149  -15.8885  -41.6434 C.2       5 UNK         0.5000 
     46 O          -2.0818  -16.6254  -42.3675 O.2       5 UNK        -0.5000 
     47 CA         -1.5414  -14.3598  -41.7914 C.3       5 UNK         0.1400 
     48 CB         -2.7005  -13.8291  -40.9355 C.3       5 UNK        -0.1800 
     49 N          -0.3076  -13.6570  -41.4283 N.am      5 UNK        -0.5000 
     50 C           0.8347  -13.7343  -42.1230 C.2       4 UNK         0.5000 
     51 O           0.9524  -14.3588  -43.1792 O.2       4 UNK        -0.5000 
     52 CA          2.0631  -13.0880  -41.4749 C.3       4 UNK         0.1400 
     53 CB          2.9722  -14.1625  -40.8514 C.3       4 UNK        -0.1800 
     54 N           2.8085  -12.3196  -42.4637 N.am      4 UNK        -0.5000 
     55 C           3.5643  -11.2525  -42.1730 C.2       3 UNK         0.5000 
     56 O           3.7251  -10.8197  -41.0307 O.2       3 UNK        -0.5000 
     57 CA          4.2419  -10.5289  -43.3474 C.3       3 UNK         0.1400 
     58 CB          5.5723  -11.2047  -43.7165 C.3       3 UNK        -0.1800 
     59 N           3.3724  -10.4735  -44.5210 N.am      3 UNK        -0.5000 
     60 C           2.4224   -9.5473  -44.7146 C.2       2 UNK         0.5000 
     61 O           2.1979   -8.6275  -43.9268 O.2       2 UNK        -0.5000 
     62 CA          1.5907   -9.6438  -46.0084 C.3       2 UNK         0.1400 
     63 CB          2.1160   -8.6506  -47.0568 C.3       2 UNK        -0.1800 
     64 N           1.5995  -10.9864  -46.5878 N.am      2 UNK        -0.5000 
     65 C           0.8233  -11.9983  -46.1764 C.2       1 UNK         0.5000 
     66 O          -0.0374  -11.8889  -45.3030 O.2       1 UNK        -0.5000 
     67 C          -1.5032  -22.0730  -48.6161 C.2       11 UNK         0.5000 
     68 O          -1.6176  -22.9349  -49.4851 O.2       11 UNK        -0.5000 
     69 N          -2.5418  -21.4012  -48.1031 N.am      12 UNK        -0.5000 
     70 CA         -3.9054  -21.4953  -48.6104 C.3       12 UNK         0.1400 
     71 CB         -4.7153  -20.2851  -48.1248 C.3       12 UNK        -0.1800 
     72 C          -4.6342  -22.7961  -48.2458 C.2       12 UNK         0.5000 
     73 O          -5.3839  -23.2957  -49.0860 O.2       12 UNK        -0.5000 
     74 N          -4.4611  -23.2775  -47.0085 N.am      13 UNK        -0.5000 
     75 CA         -5.2473  -24.3788  -46.4539 C.3       13 UNK         0.1400 
     76 CB         -5.8724  -23.9358  -45.1206 C.3       13 UNK        -0.1800 
     77 C          -4.4252  -25.6599  -46.2597 C.2       13 UNK         0.5000 
     78 O          -4.9187  -26.7362  -46.6005 O.2       13 UNK        -0.5000 
     79 N          -3.2187  -25.5477  -45.6838 N.am      14 UNK        -0.5000 
     80 CA         -2.3968  -26.7113  -45.3365 C.3       14 UNK         0.1400 
     81 CB         -1.4123  -26.3623  -44.2083 C.3       14 UNK        -0.1800 
     82 C          -1.6788  -27.2997  -46.5628 C.2       14 UNK         0.5000 
     83 O          -1.7506  -28.5094  -46.7861 O.2       14 UNK        -0.5000 
     84 N          -1.0158  -26.4382  -47.3428 N.am      15 UNK        -0.5000 
     85 CA         -0.3870  -26.7957  -48.6121 C.3       15 UNK         0.1400 
     86 CB          0.6943  -25.7574  -48.9484 C.3       15 UNK        -0.1800 
     87 C          -1.4268  -26.8827  -49.7447 C.2       15 UNK         0.5000 
     88 O          -2.4229  -26.1570  -49.7310 O.2       15 UNK        -0.5000 
     89 N          -1.1606  -27.7586  -50.7212 N.am      16 UNK        -0.5000 
     90 CA         -1.9733  -27.9066  -51.9315 C.3       16 UNK         0.1400 
     91 CB         -1.8553  -29.3526  -52.4377 C.3       16 UNK        -0.1800 
     92 C          -1.5593  -26.9184  -53.0391 C.2       16 UNK         0.5000 
     93 O          -2.3825  -26.5845  -53.8927 O.2       16 UNK        -0.5000 
     94 N          -0.2907  -26.4849  -53.0196 N.am      17 UNK        -0.5000 
     95 CA          0.3114  -25.5733  -53.9901 C.3       17 UNK         0.1400 
     96 CB          1.8313  -25.5300  -53.7600 C.3       17 UNK        -0.1800 
     97 C          -0.3108  -24.1686  -53.9031 C.2       17 UNK         0.5000 
     98 O          -0.0575  -23.4534  -52.9333 O.2       17 UNK        -0.5000 
     99 N          -1.1225  -23.8218  -54.9129 N.am      18 UNK        -0.5000 
    100 CA        -1.8796  -22.5713  -55.0456 C.3       18 UNK         0.1400 
    101 CB        -0.9308  -21.3815  -55.2877 C.3       18 UNK        -0.1800 
    102 C         -2.8761  -22.3399  -53.8882 C.2       18 UNK         0.5000 
    103 O         -3.0373  -21.2091  -53.4192 O.2       18 UNK        -0.5000 
    104 N         -3.5296  -23.4324  -53.4617 N.am      19 UNK        -0.5000 
    105 CA        -4.5350  -23.4785  -52.3986 C.3       19 UNK         0.1400 
    106 CB        -5.0710  -24.9126  -52.2769 C.3       19 UNK        -0.1800 
    107 C         -5.6940  -22.4827  -52.6053 C.2       19 UNK         0.5000 
    108 O         -6.0189  -22.1341  -53.7431 O.2       19 UNK        -0.5000 
    109 N         -6.2796  -22.0401  -51.4853 N.am      20 UNK        -0.5000 
    110 CA        -7.2474  -20.9420  -51.3753 C.3       20 UNK         0.1400 
    111 CB        -8.5642  -21.2707  -52.1100 C.3       20 UNK        -0.1800 
    112 C         -6.6441  -19.5768  -51.7806 C.2       20 UNK         0.5000 
    113 O         -7.3461  -18.7321  -52.3381 O.2       20 UNK        -0.5000 
    114 N         -5.3473  -19.3943  -51.4838 N.am      21 UNK        -0.5000 
    115 CA        -4.5404  -18.1825  -51.6690 C.3       21 UNK         0.1400 
    116 CB        -4.9554  -17.0980  -50.6527 C.3       21 UNK        -0.1800 
    117 C         -4.5433  -17.6708  -53.1230 C.2       21 UNK         0.5000 
    118 O         -4.9122  -16.5217  -53.3731 O.2       21 UNK        -0.5000 
    119 N         -4.1854  -18.5614  -54.0572 N.am      22 UNK        -0.5000 
    120 CA        -4.2595  -18.3645  -55.5168 C.3       22 UNK         0.1400 
    121 C         -5.7093  -18.2804  -56.0953 C.2       22 UNK         0.5000 
    122 N         -6.7716  -18.4417  -55.3148 N.am      22 UNK        -0.7600 
    123 O         -5.8806  -18.1037  -57.2986 O.2       22 UNK        -0.5000 
    124 C124       -3.3553  -17.2045  -56.0405 C.3       23 UNK        -0.0398 
    125 S125       -1.5737  -17.5974  -56.0077 S.3       23 UNK        -0.2404 
    126 C126       -0.8886  -16.3855  -54.8216 C.3       23 UNK        -0.0205 
    127 H127        5.2620  -14.8578  -46.5203 H         1 UNK         0.0600 
    128 H128        5.5622  -13.1388  -46.7971 H         1 UNK         0.0600 
    129 H129        4.8154  -14.1207  -48.0623 H         1 UNK         0.0600 
    130 H130        2.6094  -13.7981  -48.2192 H         1 UNK         0.3000 
    131 H131        0.8238  -14.1311  -46.1173 H         1 UNK         0.0600 
    132 H132       -0.9454  -13.4578  -47.7182 H         1 UNK         0.0800 
    133 H133        0.2303  -12.7129  -48.7751 H         1 UNK         0.0800 
    134 H134       -1.4481  -14.2074  -50.3387 H         1 UNK         0.0800 
    135 H135       -2.0621  -15.4340  -49.2488 H         1 UNK         0.0800 
    136 H136       -1.1816  -14.8180  -52.6220 H         1 UNK         0.1150 
    137 H137       -0.6395  -18.9157  -53.7566 H         1 UNK         0.1150 
    138 H138       -1.0558  -17.8649  -49.6264 H         1 UNK         0.1150 
    139 H139       -1.5879  -20.2988  -50.6877 H         1 UNK         0.0800 
    140 H140       -0.7982  -20.6424  -52.1914 H         1 UNK         0.0800 
    141 H141       -0.3399  -19.5551  -48.5396 H         1 UNK         0.0800 
    142 H142        1.2907  -20.0202  -48.1867 H         1 UNK         0.0800 
    143 H143        0.5964  -22.4659  -48.4036 H         1 UNK         0.0600 
    144 H144        0.0784  -20.7174  -46.2169 H         1 UNK         0.3000 
    145 H145       -0.7918  -23.2691  -43.8525 H         1 UNK         0.0600 
    146 H146        1.0378  -22.1317  -42.6502 H         1 UNK         0.0600 
    147 H147        1.7078  -23.0965  -43.9564 H         1 UNK         0.0600 
    148 H148        1.5805  -21.3495  -44.1334 H         1 UNK         0.0600 
    149 H149       -0.6831  -20.4671  -43.5386 H         1 UNK         0.3000 
    150 H150       -4.0604  -19.7480  -44.5879 H         1 UNK         0.0600 
    151 H151       -4.1082  -20.5165  -42.2114 H         1 UNK         0.0600 
    152 H152       -4.0454  -18.7633  -42.3171 H         1 UNK         0.0600 
    153 H153       -2.5958  -19.6729  -41.8979 H         1 UNK         0.0600 
    154 H154       -2.0831  -17.9697  -43.6725 H         1 UNK         0.3000 
    155 H155       -0.6505  -17.1411  -46.8750 H         1 UNK         0.0600 
    156 H156       -2.4518  -15.7780  -44.7995 H         1 UNK         0.0600 
    157 H157       -2.6175  -15.7409  -46.5457 H         1 UNK         0.0600 
    158 H158       -1.2688  -14.9253  -45.7737 H         1 UNK         0.0600 
    159 H159        0.0823  -16.3433  -44.2447 H         1 UNK         0.3000 
    160 H160        2.4698  -18.9178  -43.5898 H         1 UNK         0.0600 
    161 H161        2.7670  -15.9297  -44.2097 H         1 UNK         0.0600 
    162 H162        3.6753  -17.2327  -44.9575 H         1 UNK         0.0600 
    163 H163        3.8814  -16.8961  -43.2456 H         1 UNK         0.0600 
    164 H164        1.5030  -16.6048  -42.1575 H         1 UNK         0.3000 
    165 H165       -1.0861  -18.3077  -40.3795 H         1 UNK         0.0600 
    166 H166        0.2264  -17.5244  -38.4254 H         1 UNK         0.0600 
    167 H167        0.9999  -18.9249  -39.1495 H         1 UNK         0.0600 
    168 H168        1.6598  -17.3187  -39.4329 H         1 UNK         0.0600 
    169 H169       -0.0372  -15.6654  -40.1761 H         1 UNK         0.3000 
    170 H170       -1.7610  -14.1453  -42.8396 H         1 UNK         0.0600 
    171 H171       -3.6377  -14.3199  -41.2018 H         1 UNK         0.0600 
    172 H172       -2.5298  -14.0021  -39.8722 H         1 UNK         0.0600 
    173 H173       -2.8424  -12.7585  -41.0842 H         1 UNK         0.0600 
    174 H174       -0.3283  -13.1274  -40.5685 H         1 UNK         0.3000 
    175 H175        1.7177  -12.4174  -40.6848 H         1 UNK         0.0600 
    176 H176        3.3716  -14.8374  -41.6096 H         1 UNK         0.0600 
    177 H177        3.8165  -13.7117  -40.3298 H         1 UNK         0.0600 
    178 H178        2.4282  -14.7661  -40.1241 H         1 UNK         0.0600 
    179 H179        2.7402  -12.6490  -43.4237 H         1 UNK         0.3000 
    180 H180        4.4692   -9.5099  -43.0263 H         1 UNK         0.0600 
    181 H181        5.4363  -12.2466  -44.0059 H         1 UNK         0.0600 
    182 H182        6.2605  -11.1906  -42.8705 H         1 UNK         0.0600 
    183 H183        6.0619  -10.6880  -44.5421 H         1 UNK         0.0600 
    184 H184        3.4406  -11.2503  -45.1653 H         1 UNK         0.3000 
    185 H185        0.5629   -9.3672  -45.7633 H         1 UNK         0.0600 
    186 H186        2.0979   -7.6300  -46.6719 H         1 UNK         0.0600 
    187 H187        3.1439   -8.8744  -47.3451 H         1 UNK         0.0600 
    188 H188        1.5026   -8.6671  -47.9579 H         1 UNK         0.0600 
    189 H189        2.2778  -11.1652  -47.3143 H         1 UNK         0.3000 
    190 H190       -2.3692  -20.6704  -47.4150 H         1 UNK         0.3000 
    191 H191       -3.8537  -21.4433  -49.6994 H         1 UNK         0.0600 
    192 H192       -4.7858  -20.2612  -47.0366 H         1 UNK         0.0600 
    193 H193       -5.7318  -20.3020  -48.5190 H         1 UNK         0.0600 
    194 H194       -4.2548  -19.3525  -48.4475 H         1 UNK         0.0600 
    195 H195       -3.8447  -22.7881  -46.3632 H         1 UNK         0.3000 
    196 H196       -6.0735  -24.6292  -47.1228 H         1 UNK         0.0600 
    197 H197       -6.5091  -24.7204  -44.7097 H         1 UNK         0.0600 
    198 H198       -6.4930  -23.0494  -45.2524 H         1 UNK         0.0600 
    199 H199       -5.1150  -23.7051  -44.3711 H         1 UNK         0.0600 
    200 H200       -2.8550  -24.6330  -45.4568 H         1 UNK         0.3000 
    201 H201       -3.0579  -27.4872  -44.9434 H         1 UNK         0.0600 
    202 H202       -1.9282  -25.9254  -43.3532 H         1 UNK         0.0600 
    203 H203       -0.6420  -25.6643  -44.5294 H         1 UNK         0.0600 
    204 H204       -0.9021  -27.2592  -43.8555 H         1 UNK         0.0600 
    205 H205       -0.9891  -25.4562  -47.0810 H         1 UNK         0.3000 
    206 H206        0.0977  -27.7681  -48.5015 H         1 UNK         0.0600 
    207 H207        0.2638  -24.7690  -49.1038 H         1 UNK         0.0600 
    208 H208        1.4303  -25.6788  -48.1480 H         1 UNK         0.0600 
    209 H209        1.2292  -26.0271  -49.8596 H         1 UNK         0.0600 
    210 H210       -0.3392  -28.3425  -50.6526 H         1 UNK         0.3000 
    211 H211       -3.0226  -27.7207  -51.6928 H         1 UNK         0.0600 
    212 H212       -0.8275  -29.6073  -52.6993 H         1 UNK         0.0600 
    213 H213       -2.4678  -29.5055  -53.3274 H         1 UNK         0.0600 
    214 H214       -2.1964  -30.0627  -51.6842 H         1 UNK         0.0600 
    215 H215        0.3020  -26.7821  -52.2605 H         1 UNK         0.3000 
    216 H216        0.1368  -25.9775  -54.9895 H         1 UNK         0.0600 
    217 H217        2.3128  -24.8537  -54.4675 H         1 UNK         0.0600 
    218 H218        2.2793  -26.5145  -53.8958 H         1 UNK         0.0600 
    219 H219        2.0790  -25.1843  -52.7554 H         1 UNK         0.0600 
    220 H220       -1.2875  -24.5042  -55.6401 H         1 UNK         0.3000 
    221 H221       -2.4928  -22.6799  -55.9413 H         1 UNK         0.0600 
    222 H222       -0.2726  -21.2044  -54.4378 H         1 UNK         0.0600 
    223 H223       -0.3053  -21.5489  -56.1642 H         1 UNK         0.0600 
    224 H224       -1.4960  -20.4677  -55.4654 H         1 UNK         0.0600 
    225 H225       -3.3095  -24.3163  -53.9001 H         1 UNK         0.3000 
    226 H226       -4.0207  -23.2214  -51.4709 H         1 UNK         0.0600 
    227 H227       -5.5240  -25.2542  -53.2083 H         1 UNK         0.0600 
    228 H228       -4.2738  -25.6065  -52.0128 H         1 UNK         0.0600 
    229 H229       -5.8277  -24.9844  -51.4945 H         1 UNK         0.0600 
    230 H230       -5.9986  -22.4676  -50.6040 H         1 UNK         0.3000 
    231 H231       -7.4843  -20.8593  -50.3138 H         1 UNK         0.0600 
    232 H232       -8.9501  -22.2453  -51.8114 H         1 UNK         0.0600 
    233 H233       -8.4386  -21.2757  -53.1928 H         1 UNK         0.0600 
    234 H234       -9.3332  -20.5331  -51.8775 H         1 UNK         0.0600 
    235 H235       -4.8504  -20.1857  -51.1071 H         1 UNK         0.3000 
    236 H236       -3.5163  -18.4697  -51.4439 H         1 UNK         0.0600 
    237 H237       -5.9801  -16.7626  -50.8159 H         1 UNK         0.0600 
    238 H238       -4.8822  -17.4600  -49.6285 H         1 UNK         0.0600 
    239 H239       -4.3076  -16.2241  -50.7313 H         1 UNK         0.0600 
    240 H240       -3.8919  -19.4887  -53.7602 H         1 UNK         0.3000 
    241 H241       -3.8703  -19.2919  -55.9382 H         1 UNK         0.0600 
    242 H242       -6.6820  -18.5617  -54.3134 H         1 UNK         0.3800 
    243 H243       -7.6904  -18.3976  -55.7254 H         1 UNK         0.3800 
    244 H244       -3.5796  -16.9823  -57.0847 H         1 UNK         0.0800 
    245 H245       -3.5477  -16.2753  -55.5056 H         1 UNK         0.0800 
    246 H246        0.1575  -16.2163  -55.0789 H         1 UNK         0.0800 
    247 H247       -1.3929  -15.4273  -54.9550 H         1 UNK         0.0800 
@<TRIPOS>BOND
     1    1    2 1    
     2    1  127 1    
     3    1  128 1    
     4    1  129 1    
     5    2    3 2    
     6    2    4 am   BACKBONE|DICT|INTERRES
     7    4    5 1    
     8    4  130 1    
     9    5    6 1    
    10    5   65 1    
    11    5  131 1    
    12    6    7 1    
    13    6  132 1    
    14    6  133 1    
    15    7    8 1    
    16    8    9 1    
    17    8  134 1    
    18    8  135 1    
    19    9   10 ar   
    20    9   14 ar   
    21   10   11 ar   
    22   10  136 1    
    23   11   12 ar   
    24   11  126 1    
    25   12   13 ar   
    26   12  137 1    
    27   13   14 ar   
    28   13   15 1    
    29   14  138 1    
    30   15   16 1    
    31   15  139 1    
    32   15  140 1    
    33   16   17 1    
    34   17   18 1    
    35   17  141 1    
    36   17  142 1    
    37   18   19 1    
    38   18   67 1    
    39   18  143 1    
    40   19   20 am   BACKBONE|DICT|INTERRES
    41   19  144 1    
    42   20   21 2    
    43   20   22 1    
    44   22   23 1    
    45   22   24 1    
    46   22  145 1    
    47   23  146 1    
    48   23  147 1    
    49   23  148 1    
    50   24   25 am   BACKBONE|DICT|INTERRES
    51   24  149 1    
    52   25   26 2    
    53   25   27 1    
    54   27   28 1    
    55   27   29 1    
    56   27  150 1    
    57   28  151 1    
    58   28  152 1    
    59   28  153 1    
    60   29   30 am   BACKBONE|DICT|INTERRES
    61   29  154 1    
    62   30   31 2    
    63   30   32 1    
    64   32   33 1    
    65   32   34 1    
    66   32  155 1    
    67   33  156 1    
    68   33  157 1    
    69   33  158 1    
    70   34   35 am   BACKBONE|DICT|INTERRES
    71   34  159 1    
    72   35   36 2    
    73   35   37 1    
    74   37   38 1    
    75   37   39 1    
    76   37  160 1    
    77   38  161 1    
    78   38  162 1    
    79   38  163 1    
    80   39   40 am   BACKBONE|DICT|INTERRES
    81   39  164 1    
    82   40   41 2    
    83   40   42 1    
    84   42   43 1    
    85   42   44 1    
    86   42  165 1    
    87   43  166 1    
    88   43  167 1    
    89   43  168 1    
    90   44   45 am   BACKBONE|DICT|INTERRES
    91   44  169 1    
    92   45   46 2    
    93   45   47 1    
    94   47   48 1    
    95   47   49 1    
    96   47  170 1    
    97   48  171 1    
    98   48  172 1    
    99   48  173 1    
   100   49   50 am   BACKBONE|DICT|INTERRES
   101   49  174 1    
   102   50   51 2    
   103   50   52 1    
   104   52   53 1    
   105   52   54 1    
   106   52  175 1    
   107   53  176 1    
   108   53  177 1    
   109   53  178 1    
   110   54   55 am   BACKBONE|DICT|INTERRES
   111   54  179 1    
   112   55   56 2    
   113   55   57 1    
   114   57   58 1    
   115   57   59 1    
   116   57  180 1    
   117   58  181 1    
   118   58  182 1    
   119   58  183 1    
   120   59   60 am   BACKBONE|DICT|INTERRES
   121   59  184 1    
   122   60   61 2    
   123   60   62 1    
   124   62   63 1    
   125   62   64 1    
   126   62  185 1    
   127   63  186 1    
   128   63  187 1    
   129   63  188 1    
   130   64   65 am   BACKBONE|DICT|INTERRES
   131   64  189 1    
   132   65   66 2    
   133   67   68 2    
   134   67   69 am   BACKBONE|DICT|INTERRES
   135   69   70 1    
   136   69  190 1    
   137   70   71 1    
   138   70   72 1    
   139   70  191 1    
   140   71  192 1    
   141   71  193 1    
   142   71  194 1    
   143   72   73 2    
   144   72   74 am   BACKBONE|DICT|INTERRES
   145   74   75 1    
   146   74  195 1    
   147   75   76 1    
   148   75   77 1    
   149   75  196 1    
   150   76  197 1    
   151   76  198 1    
   152   76  199 1    
   153   77   78 2    
   154   77   79 am   BACKBONE|DICT|INTERRES
   155   79   80 1    
   156   79  200 1    
   157   80   81 1    
   158   80   82 1    
   159   80  201 1    
   160   81  202 1    
   161   81  203 1    
   162   81  204 1    
   163   82   83 2    
   164   82   84 am   BACKBONE|DICT|INTERRES
   165   84   85 1    
   166   84  205 1    
   167   85   86 1    
   168   85   87 1    
   169   85  206 1    
   170   86  207 1    
   171   86  208 1    
   172   86  209 1    
   173   87   88 2    
   174   87   89 am   BACKBONE|DICT|INTERRES
   175   89   90 1    
   176   89  210 1    
   177   90   91 1    
   178   90   92 1    
   179   90  211 1    
   180   91  212 1    
   181   91  213 1    
   182   91  214 1    
   183   92   93 2    
   184   92   94 am   BACKBONE|DICT|INTERRES
   185   94   95 1    
   186   94  215 1    
   187   95   96 1    
   188   95   97 1    
   189   95  216 1    
   190   96  217 1    
   191   96  218 1    
   192   96  219 1    
   193   97   98 2    
   194   97   99 am   BACKBONE|DICT|INTERRES
   195   99  100 1    
   196   99  220 1    
   197  100  101 1    
   198  100  102 1    
   199  100  221 1    
   200  101  222 1    
   201  101  223 1    
   202  101  224 1    
   203  102  103 2    
   204  102  104 am   BACKBONE|DICT|INTERRES
   205  104  105 1    
   206  104  225 1    
   207  105  106 1    
   208  105  107 1    
   209  105  226 1    
   210  106  227 1    
   211  106  228 1    
   212  106  229 1    
   213  107  108 2    
   214  107  109 am   BACKBONE|DICT|INTERRES
   215  109  110 1    
   216  109  230 1    
   217  110  111 1    
   218  110  112 1    
   219  110  231 1    
   220  111  232 1    
   221  111  233 1    
   222  111  234 1    
   223  112  113 2    
   224  112  114 am   BACKBONE|DICT|INTERRES
   225  114  115 1    
   226  114  235 1    
   227  115  116 1    
   228  115  117 1    
   229  115  236 1    
   230  116  237 1    
   231  116  238 1    
   232  116  239 1    
   233  117  118 2    
   234  117  119 am   BACKBONE|DICT|INTERRES
   235  119  120 1    
   236  119  240 1    
   237  120  121 1    
   238  120  124 1    
   239  120  241 1    
   240  121  122 am   BACKBONE|DICT|INTERRES
   241  121  123 2    
   242  122  242 1    
   243  122  243 1    
   244  124  125 1    
   245  124  244 1    
   246  124  245 1    
   247  125  126 1    
   248  126  246 1    
   249  126  247 1    
@<TRIPOS>SUBSTRUCTURE
     1 UNK         1 GROUP             0       ****    0 ROOT    
