@<TRIPOS>MOLECULE
3R540
247   249    1
SMALL
USER_CHARGES


@<TRIPOS>ATOM
      1 CA         -3.7403  -15.9553  -48.7636 C.3       0 UNK        -0.1800 
      2 C          -2.8704  -14.7376  -48.4977 C.2       0 UNK         0.5000 
      3 O          -3.2799  -13.8529  -47.7458 O.2       0 UNK        -0.5000 
      4 N          -1.6797  -14.6815  -49.1097 N.am      1 UNK        -0.5000 
      5 CA         -0.6878  -13.6211  -48.9085 C.3       1 UNK         0.1400 
      6 C6          0.4041  -13.6065  -50.0054 C.3       23 UNK        -0.0398 
      7 S7         -0.2647  -13.1043  -51.6276 S.3       23 UNK        -0.2404 
      8 C8          0.1925  -14.5106  -52.6875 C.3       23 UNK        -0.0205 
      9 C9         -0.6349  -15.7488  -52.3830 C.ar      23 UNK        -0.0193 
     10 C10        -1.9530  -15.8406  -52.8405 C.ar      23 UNK        -0.1150 
     11 C11        -2.7150  -16.9824  -52.5809 C.ar      23 UNK        -0.0193 
     12 C12        -2.1510  -18.0316  -51.8506 C.ar      23 UNK        -0.1150 
     13 C13        -0.8313  -17.9578  -51.3994 C.ar      23 UNK        -0.0193 
     14 C14        -0.0777  -16.8126  -51.6673 C.ar      23 UNK        -0.1150 
     15 C15        -0.2070  -19.1303  -50.6587 C.3       23 UNK        -0.0205 
     16 S16        -0.0593  -18.8229  -48.8718 S.3       23 UNK        -0.2404 
     17 C17        -1.8015  -18.9148  -48.3410 C.3       23 UNK        -0.0398 
     18 CA         -2.2050  -20.3192  -47.8359 C.3       11 UNK         0.1400 
     19 N          -1.4679  -20.6887  -46.6221 N.am      11 UNK        -0.5000 
     20 C          -1.2900  -21.9415  -46.1850 C.2       10 UNK         0.5000 
     21 O          -1.7520  -22.9375  -46.7359 O.2       10 UNK        -0.5000 
     22 CA         -0.4960  -22.1150  -44.8814 C.3       10 UNK         0.1400 
     23 CB          1.0118  -22.0211  -45.1593 C.3       10 UNK        -0.1800 
     24 N          -0.8755  -21.1680  -43.8294 N.am      10 UNK        -0.5000 
     25 C          -2.1082  -21.0505  -43.3136 C.2       9 UNK         0.5000 
     26 O          -3.0796  -21.6885  -43.7184 O.2       9 UNK        -0.5000 
     27 CA         -2.3004  -20.0353  -42.1741 C.3       9 UNK         0.1400 
     28 CB         -1.6574  -20.5365  -40.8720 C.3       9 UNK        -0.1800 
     29 N          -1.7686  -18.7184  -42.5113 N.am      9 UNK        -0.5000 
     30 C          -2.2740  -17.9151  -43.4585 C.2       8 UNK         0.5000 
     31 O          -3.2906  -18.1653  -44.1052 O.2       8 UNK        -0.5000 
     32 CA         -1.4812  -16.6297  -43.7583 C.3       8 UNK         0.1400 
     33 CB         -1.7776  -15.5583  -42.6971 C.3       8 UNK        -0.1800 
     34 N          -0.0379  -16.8640  -43.8262 N.am      8 UNK        -0.5000 
     35 C           0.5628  -17.7206  -44.6665 C.2       7 UNK         0.5000 
     36 O          -0.0329  -18.3971  -45.5038 O.2       7 UNK        -0.5000 
     37 CA          2.0792  -17.8996  -44.4899 C.3       7 UNK         0.1400 
     38 CB          2.8503  -16.7439  -45.1474 C.3       7 UNK        -0.1800 
     39 N           2.4510  -18.0138  -43.0778 N.am      7 UNK        -0.5000 
     40 C           2.1310  -19.0553  -42.2946 C.2       6 UNK         0.5000 
     41 O           1.5125  -20.0422  -42.6881 O.2       6 UNK        -0.5000 
     42 CA          2.5312  -18.9625  -40.8116 C.3       6 UNK         0.1400 
     43 CB          4.0041  -19.3539  -40.6209 C.3       6 UNK        -0.1800 
     44 N           2.3067  -17.6295  -40.2553 N.am      6 UNK        -0.5000 
     45 C           1.1021  -17.0608  -40.1019 C.2       5 UNK         0.5000 
     46 O           0.0395  -17.6256  -40.3613 O.2       5 UNK        -0.5000 
     47 CA          1.0953  -15.5910  -39.6365 C.3       5 UNK         0.1400 
     48 CB          1.1080  -15.5080  -38.1031 C.3       5 UNK        -0.1800 
     49 N           2.2192  -14.8173  -40.1781 N.am      5 UNK        -0.5000 
     50 C           2.4152  -14.6018  -41.4845 C.2       4 UNK         0.5000 
     51 O           1.6452  -15.0068  -42.3631 O.2       4 UNK        -0.5000 
     52 CA          3.7009  -13.8637  -41.8860 C.3       4 UNK         0.1400 
     53 CB          4.9356  -14.7689  -41.7286 C.3       4 UNK        -0.1800 
     54 N           3.5409  -13.4875  -43.2799 N.am      4 UNK        -0.5000 
     55 C           4.1457  -12.5029  -43.9477 C.2       3 UNK         0.5000 
     56 O           5.0516  -11.8087  -43.4855 O.2       3 UNK        -0.5000 
     57 CA          3.6182  -12.2424  -45.3751 C.3       3 UNK         0.1400 
     58 CB          4.5042  -12.9468  -46.4136 C.3       3 UNK        -0.1800 
     59 N           2.2324  -12.6912  -45.5558 N.am      3 UNK        -0.5000 
     60 C           1.1621  -12.1454  -44.9637 C.2       2 UNK         0.5000 
     61 O           1.2132  -11.1170  -44.2870 O.2       2 UNK        -0.5000 
     62 CA         -0.1766  -12.8855  -45.1606 C.3       2 UNK         0.1400 
     63 CB         -1.3243  -12.2616  -44.3463 C.3       2 UNK        -0.1800 
     64 N          -0.5809  -12.9385  -46.5632 N.am      2 UNK        -0.5000 
     65 C          -0.0675  -13.7407  -47.5024 C.2       1 UNK         0.5000 
     66 O           0.8420  -14.5460  -47.2912 O.2       1 UNK        -0.5000 
     67 C          -3.7410  -20.4123  -47.6765 C.2       11 UNK         0.5000 
     68 O          -4.4519  -20.2702  -48.6746 O.2       11 UNK        -0.5000 
     69 N          -4.2344  -20.6223  -46.4485 N.am      12 UNK        -0.5000 
     70 CA         -5.6447  -20.8684  -46.1550 C.3       12 UNK         0.1400 
     71 CB         -6.0491  -20.0873  -44.8953 C.3       12 UNK        -0.1800 
     72 C          -5.9108  -22.3716  -45.9770 C.2       12 UNK         0.5000 
     73 O          -6.9036  -22.8783  -46.5003 O.2       12 UNK        -0.5000 
     74 N          -5.0261  -23.0590  -45.2413 N.am      13 UNK        -0.5000 
     75 CA         -5.1146  -24.4894  -44.9457 C.3       13 UNK         0.1400 
     76 CB         -4.1469  -24.8200  -43.7987 C.3       13 UNK        -0.1800 
     77 C          -4.8249  -25.3879  -46.1619 C.2       13 UNK         0.5000 
     78 O          -5.3618  -26.4941  -46.2377 O.2       13 UNK        -0.5000 
     79 N          -3.9827  -24.9078  -47.0806 N.am      14 UNK        -0.5000 
     80 CA         -3.5650  -25.5911  -48.2971 C.3       14 UNK         0.1400 
     81 CB         -2.3368  -26.4683  -47.9835 C.3       14 UNK        -0.1800 
     82 C          -3.2621  -24.5453  -49.3814 C.2       14 UNK         0.5000 
     83 O          -3.4399  -23.3475  -49.1582 O.2       14 UNK        -0.5000 
     84 N          -2.8016  -25.0103  -50.5486 N.am      15 UNK        -0.5000 
     85 CA         -2.3628  -24.1469  -51.6482 C.3       15 UNK         0.1400 
     86 CB         -2.5141  -24.9120  -52.9697 C.3       15 UNK        -0.1800 
     87 C          -0.9251  -23.6198  -51.4655 C.2       15 UNK         0.5000 
     88 O          -0.5069  -22.7555  -52.2367 O.2       15 UNK        -0.5000 
     89 N          -0.1947  -24.1612  -50.4772 N.am      16 UNK        -0.5000 
     90 CA          1.1651  -23.8381  -50.0192 C.3       16 UNK         0.1400 
     91 CB          1.2441  -22.3899  -49.5028 C.3       16 UNK        -0.1800 
     92 C           2.2805  -24.1248  -51.0451 C.2       16 UNK         0.5000 
     93 O           3.2486  -24.8114  -50.7171 O.2       16 UNK        -0.5000 
     94 N           2.1171  -23.6071  -52.2636 N.am      17 UNK        -0.5000 
     95 CA          3.0164  -23.7510  -53.4046 C.3       17 UNK         0.1400 
     96 CB          4.0877  -22.6442  -53.3641 C.3       17 UNK        -0.1800 
     97 C           2.1920  -23.7554  -54.7051 C.2       17 UNK         0.5000 
     98 O           2.5695  -23.1037  -55.6799 O.2       17 UNK        -0.5000 
     99 N           1.0556  -24.4714  -54.6751 N.am      18 UNK        -0.5000 
    100 CA         0.0468  -24.5892  -55.7386 C.3       18 UNK         0.1400 
    101 CB         0.6323  -25.2966  -56.9790 C.3       18 UNK        -0.1800 
    102 C         -0.6465  -23.2504  -56.0844 C.2       18 UNK         0.5000 
    103 O         -1.1123  -23.0683  -57.2105 O.2       18 UNK        -0.5000 
    104 N         -0.7232  -22.3394  -55.1063 N.am      19 UNK        -0.5000 
    105 CA        -1.2633  -20.9915  -55.2400 C.3       19 UNK         0.1400 
    106 CB        -0.3677  -20.0265  -54.4414 C.3       19 UNK        -0.1800 
    107 C         -2.7338  -20.9466  -54.7888 C.2       19 UNK         0.5000 
    108 O         -3.0640  -20.2474  -53.8343 O.2       19 UNK        -0.5000 
    109 N         -3.5971  -21.7062  -55.4762 N.am      20 UNK        -0.5000 
    110 CA        -5.0716  -21.6899  -55.4416 C.3       20 UNK         0.1400 
    111 CB        -5.5909  -20.3365  -55.9664 C.3       20 UNK        -0.1800 
    112 C         -5.7772  -22.0397  -54.1091 C.2       20 UNK         0.5000 
    113 O         -6.9344  -22.4578  -54.1574 O.2       20 UNK        -0.5000 
    114 N         -5.1027  -21.8591  -52.9660 N.am      21 UNK        -0.5000 
    115 CA        -5.6090  -21.9832  -51.5926 C.3       21 UNK         0.1400 
    116 CB        -6.0946  -23.4205  -51.2988 C.3       21 UNK        -0.1800 
    117 C         -6.6744  -20.9119  -51.2801 C.2       21 UNK         0.5000 
    118 O         -7.7625  -21.2365  -50.8000 O.2       21 UNK        -0.5000 
    119 N         -6.3540  -19.6499  -51.5995 N.am      22 UNK        -0.5000 
    120 CA        -7.2549  -18.4969  -51.4312 C.3       22 UNK         0.1400 
    121 C         -7.5064  -18.0425  -49.9604 C.2       22 UNK         0.5000 
    122 N         -6.7517  -18.5043  -48.9707 N.am      22 UNK        -0.7600 
    123 O         -8.4191  -17.2589  -49.7121 O.2       22 UNK        -0.5000 
    124 C124       -6.8641  -17.3141  -52.3589 C.3       23 UNK        -0.0398 
    125 S125       -5.3220  -16.4602  -51.8785 S.3       23 UNK        -0.2404 
    126 C126       -4.1400  -17.0948  -53.0985 C.3       23 UNK        -0.0205 
    127 H127       -3.7844  -16.5910  -47.8798 H         1 UNK         0.0600 
    128 H128       -4.7565  -15.6450  -49.0063 H         1 UNK         0.0600 
    129 H129       -3.3596  -16.5417  -49.5982 H         1 UNK         0.0600 
    130 H130       -1.3993  -15.4306  -49.7273 H         1 UNK         0.3000 
    131 H131       -1.2083  -12.6619  -48.9606 H         1 UNK         0.0600 
    132 H132        1.1897  -12.8925  -49.7514 H         1 UNK         0.0800 
    133 H133        0.8945  -14.5783  -50.0760 H         1 UNK         0.0800 
    134 H134        1.2588  -14.7173  -52.5822 H         1 UNK         0.0800 
    135 H135        0.0411  -14.2272  -53.7301 H         1 UNK         0.0800 
    136 H136       -2.3847  -15.0226  -53.4001 H         1 UNK         0.1150 
    137 H137       -2.7366  -18.9171  -51.6489 H         1 UNK         0.1150 
    138 H138        0.9457  -16.7567  -51.3236 H         1 UNK         0.1150 
    139 H139       -0.7798  -20.0444  -50.8256 H         1 UNK         0.0800 
    140 H140        0.7875  -19.3179  -51.0657 H         1 UNK         0.0800 
    141 H141       -2.4339  -18.6101  -49.1731 H         1 UNK         0.0800 
    142 H142       -1.9543  -18.1733  -47.5553 H         1 UNK         0.0800 
    143 H143       -1.9434  -21.0382  -48.6155 H         1 UNK         0.0600 
    144 H144       -1.0220  -19.9231  -46.1209 H         1 UNK         0.3000 
    145 H145       -0.7061  -23.1177  -44.5035 H         1 UNK         0.0600 
    146 H146        1.5930  -22.2701  -44.2716 H         1 UNK         0.0600 
    147 H147        1.3094  -22.7150  -45.9467 H         1 UNK         0.0600 
    148 H148        1.2985  -21.0190  -45.4796 H         1 UNK         0.0600 
    149 H149       -0.1194  -20.6142  -43.4342 H         1 UNK         0.3000 
    150 H150       -3.3735  -19.9306  -42.0004 H         1 UNK         0.0600 
    151 H151       -2.0464  -21.5175  -40.5966 H         1 UNK         0.0600 
    152 H152       -1.8674  -19.8585  -40.0445 H         1 UNK         0.0600 
    153 H153       -0.5744  -20.6247  -40.9618 H         1 UNK         0.0600 
    154 H154       -0.9538  -18.4089  -41.9923 H         1 UNK         0.3000 
    155 H155       -1.7975  -16.2512  -44.7327 H         1 UNK         0.0600 
    156 H156       -1.5874  -15.9241  -41.6883 H         1 UNK         0.0600 
    157 H157       -2.8223  -15.2487  -42.7404 H         1 UNK         0.0600 
    158 H158       -1.1657  -14.6700  -42.8406 H         1 UNK         0.0600 
    159 H159        0.5403  -16.3338  -43.1806 H         1 UNK         0.3000 
    160 H160        2.3690  -18.8253  -44.9913 H         1 UNK         0.0600 
    161 H161        3.9271  -16.8671  -45.0318 H         1 UNK         0.0600 
    162 H162        2.5740  -15.7785  -44.7270 H         1 UNK         0.0600 
    163 H163        2.6398  -16.7002  -46.2170 H         1 UNK         0.0600 
    164 H164        2.9129  -17.2195  -42.6632 H         1 UNK         0.3000 
    165 H165        1.9138  -19.6706  -40.2547 H         1 UNK         0.0600 
    166 H166        4.2749  -19.3665  -39.5650 H         1 UNK         0.0600 
    167 H167        4.1962  -20.3523  -41.0164 H         1 UNK         0.0600 
    168 H168        4.6762  -18.6633  -41.1319 H         1 UNK         0.0600 
    169 H169        3.1251  -17.0927  -40.0104 H         1 UNK         0.3000 
    170 H170        0.1701  -15.1358  -39.9958 H         1 UNK         0.0600 
    171 H171        0.2702  -16.0610  -37.6759 H         1 UNK         0.0600 
    172 H172        2.0246  -15.9244  -37.6834 H         1 UNK         0.0600 
    173 H173        1.0210  -14.4758  -37.7634 H         1 UNK         0.0600 
    174 H174        2.8864  -14.4576  -39.5105 H         1 UNK         0.3000 
    175 H175        3.8033  -12.9671  -41.2716 H         1 UNK         0.0600 
    176 H176        4.8493  -15.6757  -42.3286 H         1 UNK         0.0600 
    177 H177        5.8445  -14.2522  -42.0374 H         1 UNK         0.0600 
    178 H178        5.0748  -15.0710  -40.6901 H         1 UNK         0.0600 
    179 H179        2.7681  -13.9657  -43.7251 H         1 UNK         0.3000 
    180 H180        3.6588  -11.1663  -45.5553 H         1 UNK         0.0600 
    181 H181        4.4873  -14.0303  -46.2875 H         1 UNK         0.0600 
    182 H182        5.5417  -12.6215  -46.3273 H         1 UNK         0.0600 
    183 H183        4.1767  -12.7221  -47.4289 H         1 UNK         0.0600 
    184 H184        2.0804  -13.5063  -46.1424 H         1 UNK         0.3000 
    185 H185       -0.0307  -13.9073  -44.8045 H         1 UNK         0.0600 
    186 H186       -1.0772  -12.2236  -43.2845 H         1 UNK         0.0600 
    187 H187       -1.5413  -11.2429  -44.6698 H         1 UNK         0.0600 
    188 H188       -2.2394  -12.8462  -44.4448 H         1 UNK         0.0600 
    189 H189       -1.3472  -12.3332  -46.8223 H         1 UNK         0.3000 
    190 H190       -3.5884  -20.7160  -45.6755 H         1 UNK         0.3000 
    191 H191       -6.2725  -20.5187  -46.9764 H         1 UNK         0.0600 
    192 H192       -5.4593  -20.3808  -44.0264 H         1 UNK         0.0600 
    193 H193       -7.0992  -20.2540  -44.6524 H         1 UNK         0.0600 
    194 H194       -5.9140  -19.0152  -45.0400 H         1 UNK         0.0600 
    195 H195       -4.2586  -22.5593  -44.7977 H         1 UNK         0.3000 
    196 H196       -6.1304  -24.7054  -44.6083 H         1 UNK         0.0600 
    197 H197       -4.2024  -25.8757  -43.5302 H         1 UNK         0.0600 
    198 H198       -4.3836  -24.2434  -42.9043 H         1 UNK         0.0600 
    199 H199       -3.1133  -24.6029  -44.0725 H         1 UNK         0.0600 
    200 H200       -3.5846  -23.9795  -46.9688 H         1 UNK         0.3000 
    201 H201       -4.3800  -26.2175  -48.6653 H         1 UNK         0.0600 
    202 H202       -2.0202  -27.0448  -48.8529 H         1 UNK         0.0600 
    203 H203       -2.5566  -27.1845  -47.1916 H         1 UNK         0.0600 
    204 H204       -1.4891  -25.8639  -47.6573 H         1 UNK         0.0600 
    205 H205       -2.7051  -26.0064  -50.6859 H         1 UNK         0.3000 
    206 H206       -3.0102  -23.2714  -51.6972 H         1 UNK         0.0600 
    207 H207       -3.5207  -25.3163  -53.0782 H         1 UNK         0.0600 
    208 H208       -2.3499  -24.2501  -53.8181 H         1 UNK         0.0600 
    209 H209       -1.8087  -25.7405  -53.0434 H         1 UNK         0.0600 
    210 H210       -0.6492  -24.8854  -49.9413 H         1 UNK         0.3000 
    211 H211        1.3485  -24.4940  -49.1666 H         1 UNK         0.0600 
    212 H212        1.1130  -21.6672  -50.3070 H         1 UNK         0.0600 
    213 H213        2.2127  -22.1915  -49.0428 H         1 UNK         0.0600 
    214 H214        0.4801  -22.1952  -48.7501 H         1 UNK         0.0600 
    215 H215        1.2594  -23.0832  -52.4267 H         1 UNK         0.3000 
    216 H216        3.5168  -24.7200  -53.3514 H         1 UNK         0.0600 
    217 H217        3.6392  -21.6523  -53.4319 H         1 UNK         0.0600 
    218 H218        4.7915  -22.7474  -54.1908 H         1 UNK         0.0600 
    219 H219        4.6659  -22.6878  -52.4410 H         1 UNK         0.0600 
    220 H220        0.8493  -24.9721  -53.8226 H         1 UNK         0.3000 
    221 H221       -0.7352  -25.2378  -55.3437 H         1 UNK         0.0600 
    222 H222        1.3705  -24.6778  -57.4897 H         1 UNK         0.0600 
    223 H223        1.1123  -26.2367  -56.7071 H         1 UNK         0.0600 
    224 H224       -0.1503  -25.5315  -57.7013 H         1 UNK         0.0600 
    225 H225       -0.4022  -22.5835  -54.1755 H         1 UNK         0.3000 
    226 H226       -1.2347  -20.6758  -56.2848 H         1 UNK         0.0600 
    227 H227        0.6574  -20.0430  -54.8114 H         1 UNK         0.0600 
    228 H228       -0.7265  -18.9993  -54.5206 H         1 UNK         0.0600 
    229 H229       -0.3436  -20.2842  -53.3827 H         1 UNK         0.0600 
    230 H230       -3.2006  -22.2888  -56.2021 H         1 UNK         0.3000 
    231 H231       -5.3835  -22.4565  -56.1526 H         1 UNK         0.0600 
    232 H232       -5.1919  -20.1174  -56.9568 H         1 UNK         0.0600 
    233 H233       -5.3178  -19.5137  -55.3050 H         1 UNK         0.0600 
    234 H234       -6.6785  -20.3385  -56.0497 H         1 UNK         0.0600 
    235 H235       -4.1939  -21.4119  -53.0658 H         1 UNK         0.3000 
    236 H236       -4.7641  -21.7771  -50.9352 H         1 UNK         0.0600 
    237 H237       -6.2693  -23.5545  -50.2306 H         1 UNK         0.0600 
    238 H238       -7.0282  -23.6521  -51.8118 H         1 UNK         0.0600 
    239 H239       -5.3588  -24.1619  -51.6054 H         1 UNK         0.0600 
    240 H240       -5.4364  -19.4534  -51.9690 H         1 UNK         0.3000 
    241 H241       -8.2331  -18.8318  -51.7820 H         1 UNK         0.0600 
    242 H242       -5.9879  -19.1521  -49.1381 H         1 UNK         0.3800 
    243 H243       -6.9394  -18.1895  -48.0339 H         1 UNK         0.3800 
    244 H244       -7.6633  -16.5711  -52.3627 H         1 UNK         0.0800 
    245 H245       -6.7878  -17.6579  -53.3913 H         1 UNK         0.0800 
    246 H246       -4.2515  -16.5448  -54.0339 H         1 UNK         0.0800 
    247 H247       -4.3704  -18.1344  -53.3255 H         1 UNK         0.0800 
@<TRIPOS>BOND
     1    1    2 1    
     2    1  127 1    
     3    1  128 1    
     4    1  129 1    
     5    2    3 2    
     6    2    4 am   BACKBONE|DICT|INTERRES
     7    4    5 1    
     8    4  130 1    
     9    5    6 1    
    10    5   65 1    
    11    5  131 1    
    12    6    7 1    
    13    6  132 1    
    14    6  133 1    
    15    7    8 1    
    16    8    9 1    
    17    8  134 1    
    18    8  135 1    
    19    9   10 ar   
    20    9   14 ar   
    21   10   11 ar   
    22   10  136 1    
    23   11   12 ar   
    24   11  126 1    
    25   12   13 ar   
    26   12  137 1    
    27   13   14 ar   
    28   13   15 1    
    29   14  138 1    
    30   15   16 1    
    31   15  139 1    
    32   15  140 1    
    33   16   17 1    
    34   17   18 1    
    35   17  141 1    
    36   17  142 1    
    37   18   19 1    
    38   18   67 1    
    39   18  143 1    
    40   19   20 am   BACKBONE|DICT|INTERRES
    41   19  144 1    
    42   20   21 2    
    43   20   22 1    
    44   22   23 1    
    45   22   24 1    
    46   22  145 1    
    47   23  146 1    
    48   23  147 1    
    49   23  148 1    
    50   24   25 am   BACKBONE|DICT|INTERRES
    51   24  149 1    
    52   25   26 2    
    53   25   27 1    
    54   27   28 1    
    55   27   29 1    
    56   27  150 1    
    57   28  151 1    
    58   28  152 1    
    59   28  153 1    
    60   29   30 am   BACKBONE|DICT|INTERRES
    61   29  154 1    
    62   30   31 2    
    63   30   32 1    
    64   32   33 1    
    65   32   34 1    
    66   32  155 1    
    67   33  156 1    
    68   33  157 1    
    69   33  158 1    
    70   34   35 am   BACKBONE|DICT|INTERRES
    71   34  159 1    
    72   35   36 2    
    73   35   37 1    
    74   37   38 1    
    75   37   39 1    
    76   37  160 1    
    77   38  161 1    
    78   38  162 1    
    79   38  163 1    
    80   39   40 am   BACKBONE|DICT|INTERRES
    81   39  164 1    
    82   40   41 2    
    83   40   42 1    
    84   42   43 1    
    85   42   44 1    
    86   42  165 1    
    87   43  166 1    
    88   43  167 1    
    89   43  168 1    
    90   44   45 am   BACKBONE|DICT|INTERRES
    91   44  169 1    
    92   45   46 2    
    93   45   47 1    
    94   47   48 1    
    95   47   49 1    
    96   47  170 1    
    97   48  171 1    
    98   48  172 1    
    99   48  173 1    
   100   49   50 am   BACKBONE|DICT|INTERRES
   101   49  174 1    
   102   50   51 2    
   103   50   52 1    
   104   52   53 1    
   105   52   54 1    
   106   52  175 1    
   107   53  176 1    
   108   53  177 1    
   109   53  178 1    
   110   54   55 am   BACKBONE|DICT|INTERRES
   111   54  179 1    
   112   55   56 2    
   113   55   57 1    
   114   57   58 1    
   115   57   59 1    
   116   57  180 1    
   117   58  181 1    
   118   58  182 1    
   119   58  183 1    
   120   59   60 am   BACKBONE|DICT|INTERRES
   121   59  184 1    
   122   60   61 2    
   123   60   62 1    
   124   62   63 1    
   125   62   64 1    
   126   62  185 1    
   127   63  186 1    
   128   63  187 1    
   129   63  188 1    
   130   64   65 am   BACKBONE|DICT|INTERRES
   131   64  189 1    
   132   65   66 2    
   133   67   68 2    
   134   67   69 am   BACKBONE|DICT|INTERRES
   135   69   70 1    
   136   69  190 1    
   137   70   71 1    
   138   70   72 1    
   139   70  191 1    
   140   71  192 1    
   141   71  193 1    
   142   71  194 1    
   143   72   73 2    
   144   72   74 am   BACKBONE|DICT|INTERRES
   145   74   75 1    
   146   74  195 1    
   147   75   76 1    
   148   75   77 1    
   149   75  196 1    
   150   76  197 1    
   151   76  198 1    
   152   76  199 1    
   153   77   78 2    
   154   77   79 am   BACKBONE|DICT|INTERRES
   155   79   80 1    
   156   79  200 1    
   157   80   81 1    
   158   80   82 1    
   159   80  201 1    
   160   81  202 1    
   161   81  203 1    
   162   81  204 1    
   163   82   83 2    
   164   82   84 am   BACKBONE|DICT|INTERRES
   165   84   85 1    
   166   84  205 1    
   167   85   86 1    
   168   85   87 1    
   169   85  206 1    
   170   86  207 1    
   171   86  208 1    
   172   86  209 1    
   173   87   88 2    
   174   87   89 am   BACKBONE|DICT|INTERRES
   175   89   90 1    
   176   89  210 1    
   177   90   91 1    
   178   90   92 1    
   179   90  211 1    
   180   91  212 1    
   181   91  213 1    
   182   91  214 1    
   183   92   93 2    
   184   92   94 am   BACKBONE|DICT|INTERRES
   185   94   95 1    
   186   94  215 1    
   187   95   96 1    
   188   95   97 1    
   189   95  216 1    
   190   96  217 1    
   191   96  218 1    
   192   96  219 1    
   193   97   98 2    
   194   97   99 am   BACKBONE|DICT|INTERRES
   195   99  100 1    
   196   99  220 1    
   197  100  101 1    
   198  100  102 1    
   199  100  221 1    
   200  101  222 1    
   201  101  223 1    
   202  101  224 1    
   203  102  103 2    
   204  102  104 am   BACKBONE|DICT|INTERRES
   205  104  105 1    
   206  104  225 1    
   207  105  106 1    
   208  105  107 1    
   209  105  226 1    
   210  106  227 1    
   211  106  228 1    
   212  106  229 1    
   213  107  108 2    
   214  107  109 am   BACKBONE|DICT|INTERRES
   215  109  110 1    
   216  109  230 1    
   217  110  111 1    
   218  110  112 1    
   219  110  231 1    
   220  111  232 1    
   221  111  233 1    
   222  111  234 1    
   223  112  113 2    
   224  112  114 am   BACKBONE|DICT|INTERRES
   225  114  115 1    
   226  114  235 1    
   227  115  116 1    
   228  115  117 1    
   229  115  236 1    
   230  116  237 1    
   231  116  238 1    
   232  116  239 1    
   233  117  118 2    
   234  117  119 am   BACKBONE|DICT|INTERRES
   235  119  120 1    
   236  119  240 1    
   237  120  121 1    
   238  120  124 1    
   239  120  241 1    
   240  121  122 am   BACKBONE|DICT|INTERRES
   241  121  123 2    
   242  122  242 1    
   243  122  243 1    
   244  124  125 1    
   245  124  244 1    
   246  124  245 1    
   247  125  126 1    
   248  126  246 1    
   249  126  247 1    
@<TRIPOS>SUBSTRUCTURE
     1 UNK         1 GROUP             0       ****    0 ROOT    
