@<TRIPOS>MOLECULE
3R540
247   249    1
SMALL
USER_CHARGES


@<TRIPOS>ATOM
      1 CA         -4.6516  -15.4359  -48.0145 C.3       0 UNK        -0.1800 
      2 C          -3.2930  -15.2383  -47.3567 C.2       0 UNK         0.5000 
      3 O          -2.8341  -16.1308  -46.6489 O.2       0 UNK        -0.5000 
      4 N          -2.6771  -14.0654  -47.5766 N.am      1 UNK        -0.5000 
      5 CA         -1.3255  -13.6318  -47.1702 C.3       1 UNK         0.1400 
      6 C6         -0.1944  -14.0927  -48.1341 C.3       23 UNK        -0.0398 
      7 S7          0.0555  -15.8937  -48.2553 S.3       23 UNK        -0.2404 
      8 C8          1.3992  -15.9718  -49.4742 C.3       23 UNK        -0.0205 
      9 C9          1.5611  -17.3799  -50.0250 C.ar      23 UNK        -0.0193 
     10 C10         0.7073  -17.8305  -51.0347 C.ar      23 UNK        -0.1150 
     11 C11         0.8538  -19.1117  -51.5716 C.ar      23 UNK        -0.0193 
     12 C12         1.8683  -19.9453  -51.0953 C.ar      23 UNK        -0.1150 
     13 C13         2.7299  -19.5080  -50.0844 C.ar      23 UNK        -0.0193 
     14 C14         2.5678  -18.2252  -49.5482 C.ar      23 UNK        -0.1150 
     15 C15         3.8545  -20.4107  -49.5944 C.3       23 UNK        -0.0205 
     16 S16         3.2496  -21.9677  -48.8672 S.3       23 UNK        -0.2404 
     17 C17         2.3806  -21.3590  -47.3850 C.3       23 UNK        -0.0398 
     18 CA          1.0976  -22.1603  -47.0639 C.3       11 UNK         0.1400 
     19 N           0.6604  -21.9380  -45.6845 N.am      11 UNK        -0.5000 
     20 C          -0.2981  -22.6334  -45.0587 C.2       10 UNK         0.5000 
     21 O          -0.8896  -23.5868  -45.5632 O.2       10 UNK        -0.5000 
     22 CA         -0.6930  -22.1584  -43.6482 C.3       10 UNK         0.1400 
     23 CB          0.2692  -22.7197  -42.5912 C.3       10 UNK        -0.1800 
     24 N          -0.7469  -20.7005  -43.5377 N.am      10 UNK        -0.5000 
     25 C          -1.5975  -19.9155  -44.2150 C.2       9 UNK         0.5000 
     26 O          -2.4668  -20.3439  -44.9729 O.2       9 UNK        -0.5000 
     27 CA         -1.4130  -18.3958  -44.0472 C.3       9 UNK         0.1400 
     28 CB         -2.0014  -17.9388  -42.7016 C.3       9 UNK        -0.1800 
     29 N          -0.0080  -17.9881  -44.1527 N.am      9 UNK        -0.5000 
     30 C           0.7666  -18.2054  -45.2286 C.2       8 UNK         0.5000 
     31 O           0.3702  -18.7391  -46.2629 O.2       8 UNK        -0.5000 
     32 CA          2.2611  -17.8648  -45.0916 C.3       8 UNK         0.1400 
     33 CB          2.5330  -16.3716  -45.3264 C.3       8 UNK        -0.1800 
     34 N           2.7803  -18.2681  -43.7851 N.am      8 UNK        -0.5000 
     35 C           2.9471  -19.5432  -43.4039 C.2       7 UNK         0.5000 
     36 O           2.7359  -20.5067  -44.1386 O.2       7 UNK        -0.5000 
     37 CA          3.3762  -19.7834  -41.9445 C.3       7 UNK         0.1400 
     38 CB          4.9038  -19.7006  -41.8100 C.3       7 UNK        -0.1800 
     39 N           2.7568  -18.8350  -41.0186 N.am      7 UNK        -0.5000 
     40 C           1.4420  -18.7694  -40.7619 C.2       6 UNK         0.5000 
     41 O           0.6228  -19.5698  -41.2108 O.2       6 UNK        -0.5000 
     42 CA          0.9606  -17.5764  -39.9107 C.3       6 UNK         0.1400 
     43 CB          0.9188  -17.9554  -38.4234 C.3       6 UNK        -0.1800 
     44 N           1.8027  -16.3883  -40.0883 N.am      6 UNK        -0.5000 
     45 C           1.8972  -15.7015  -41.2343 C.2       5 UNK         0.5000 
     46 O           1.2058  -15.9361  -42.2287 O.2       5 UNK        -0.5000 
     47 CA          3.0242  -14.6631  -41.3104 C.3       5 UNK         0.1400 
     48 CB          4.3673  -15.3849  -41.5588 C.3       5 UNK        -0.1800 
     49 N           2.7419  -13.7161  -42.3857 N.am      5 UNK        -0.5000 
     50 C           3.4461  -12.6106  -42.6625 C.2       4 UNK         0.5000 
     51 O           4.4334  -12.2436  -42.0240 O.2       4 UNK        -0.5000 
     52 CA          2.9466  -11.7511  -43.8355 C.3       4 UNK         0.1400 
     53 CB          3.2633  -12.4153  -45.1854 C.3       4 UNK        -0.1800 
     54 N           1.5124  -11.4871  -43.7286 N.am      4 UNK        -0.5000 
     55 C           0.9796  -10.5989  -42.8734 C.2       3 UNK         0.5000 
     56 O           1.6531   -9.8699  -42.1438 O.2       3 UNK        -0.5000 
     57 CA         -0.5583  -10.4932  -42.8125 C.3       3 UNK         0.1400 
     58 CB         -1.0498   -9.3084  -43.6583 C.3       3 UNK        -0.1800 
     59 N          -1.2390  -11.7065  -43.2594 N.am      3 UNK        -0.5000 
     60 C          -1.2139  -12.8830  -42.6195 C.2       2 UNK         0.5000 
     61 O          -0.7007  -13.0472  -41.5125 O.2       2 UNK        -0.5000 
     62 CA         -1.8392  -14.0840  -43.3540 C.3       2 UNK         0.1400 
     63 CB         -3.2103  -14.4347  -42.7569 C.3       2 UNK        -0.1800 
     64 N          -1.9847  -13.8998  -44.8011 N.am      2 UNK        -0.5000 
     65 C          -0.9705  -13.7802  -45.6693 C.2       1 UNK         0.5000 
     66 O           0.2047  -13.7074  -45.3078 O.2       1 UNK        -0.5000 
     67 C          -0.0401  -21.8978  -48.0756 C.2       11 UNK         0.5000 
     68 O          -0.2848  -22.7394  -48.9397 O.2       11 UNK        -0.5000 
     69 N          -0.7604  -20.7786  -47.9146 N.am      12 UNK        -0.5000 
     70 CA         -1.9384  -20.4374  -48.7135 C.3       12 UNK         0.1400 
     71 CB         -2.3832  -19.0039  -48.3998 C.3       12 UNK        -0.1800 
     72 C          -3.1029  -21.4256  -48.5172 C.2       12 UNK         0.5000 
     73 O          -3.7638  -21.7820  -49.4929 O.2       12 UNK        -0.5000 
     74 N          -3.3206  -21.8760  -47.2733 N.am      13 UNK        -0.5000 
     75 CA         -4.3116  -22.8949  -46.9260 C.3       13 UNK         0.1400 
     76 CB         -4.4434  -23.0056  -45.4006 C.3       13 UNK        -0.1800 
     77 C          -3.9977  -24.2651  -47.5548 C.2       13 UNK         0.5000 
     78 O          -4.9055  -24.9125  -48.0782 O.2       13 UNK        -0.5000 
     79 N          -2.7180  -24.6636  -47.5348 N.am      14 UNK        -0.5000 
     80 CA         -2.2151  -25.8625  -48.2076 C.3       14 UNK         0.1400 
     81 CB         -0.7578  -26.1162  -47.7937 C.3       14 UNK        -0.1800 
     82 C          -2.3456  -25.7739  -49.7398 C.2       14 UNK         0.5000 
     83 O          -2.7057  -26.7632  -50.3795 O.2       14 UNK        -0.5000 
     84 N          -2.1089  -24.5795  -50.2978 N.am      15 UNK        -0.5000 
     85 CA         -2.2680  -24.2390  -51.7115 C.3       15 UNK         0.1400 
     86 CB         -1.4005  -23.0115  -52.0239 C.3       15 UNK        -0.1800 
     87 C          -3.7456  -24.0370  -52.1178 C.2       15 UNK         0.5000 
     88 O          -4.1002  -22.9988  -52.6857 O.2       15 UNK        -0.5000 
     89 N          -4.5594  -25.0665  -51.8519 N.am      16 UNK        -0.5000 
     90 CA         -5.9721  -25.2163  -52.1999 C.3       16 UNK         0.1400 
     91 CB         -6.1602  -25.2335  -53.7321 C.3       16 UNK        -0.1800 
     92 C          -6.8909  -24.2068  -51.4854 C.2       16 UNK         0.5000 
     93 O          -7.7024  -23.5486  -52.1348 O.2       16 UNK        -0.5000 
     94 N          -6.7698  -24.1197  -50.1524 N.am      17 UNK        -0.5000 
     95 CA         -7.6606  -23.3828  -49.2449 C.3       17 UNK         0.1400 
     96 CB         -9.0390  -24.0734  -49.1750 C.3       17 UNK        -0.1800 
     97 C          -7.7593  -21.8769  -49.5670 C.2       17 UNK         0.5000 
     98 O          -8.8565  -21.3166  -49.5875 O.2       17 UNK        -0.5000 
     99 N          -6.5997  -21.2601  -49.8327 N.am      18 UNK        -0.5000 
    100 CA        -6.4071  -19.8556  -50.2030 C.3       18 UNK         0.1400 
    101 CB        -6.8935  -18.8995  -49.0935 C.3       18 UNK        -0.1800 
    102 C         -6.9390  -19.4865  -51.6043 C.2       18 UNK         0.5000 
    103 O         -7.0537  -18.2983  -51.9087 O.2       18 UNK        -0.5000 
    104 N         -7.1803  -20.4876  -52.4680 N.am      19 UNK        -0.5000 
    105 CA        -7.3987  -20.2900  -53.9076 C.3       19 UNK         0.1400 
    106 CB        -8.0461  -21.5416  -54.5169 C.3       19 UNK        -0.1800 
    107 C         -6.0958  -19.9376  -54.6578 C.2       19 UNK         0.5000 
    108 O         -6.1639  -19.4712  -55.7954 O.2       19 UNK        -0.5000 
    109 N         -4.9488  -20.1475  -53.9941 N.am      20 UNK        -0.5000 
    110 CA        -3.5902  -19.8091  -54.4070 C.3       20 UNK         0.1400 
    111 CB        -3.4298  -18.2945  -54.6556 C.3       20 UNK        -0.1800 
    112 C         -3.1019  -20.6831  -55.5717 C.2       20 UNK         0.5000 
    113 O         -2.7281  -20.1747  -56.6314 O.2       20 UNK        -0.5000 
    114 N         -3.0508  -21.9996  -55.3195 N.am      21 UNK        -0.5000 
    115 CA        -2.4673  -23.0091  -56.2156 C.3       21 UNK         0.1400 
    116 CB        -2.7408  -24.4096  -55.6475 C.3       21 UNK        -0.1800 
    117 C         -0.9563  -22.8194  -56.4924 C.2       21 UNK         0.5000 
    118 O         -0.4263  -23.4471  -57.4098 O.2       21 UNK        -0.5000 
    119 N         -0.3012  -21.9422  -55.7192 N.am      22 UNK        -0.5000 
    120 CA         1.0369  -21.3918  -55.9781 C.3       22 UNK         0.1400 
    121 C          1.1606  -20.5665  -57.2972 C.2       22 UNK         0.5000 
    122 N          0.0739  -20.0643  -57.8757 N.am      22 UNK        -0.7600 
    123 O          2.2636  -20.3883  -57.8067 O.2       22 UNK        -0.5000 
    124 C124        1.5559  -20.5807  -54.7585 C.3       23 UNK        -0.0398 
    125 S125        0.4899  -19.1547  -54.3186 S.3       23 UNK        -0.2404 
    126 C126       -0.0974  -19.5900  -52.6540 C.3       23 UNK        -0.0205 
    127 H127       -5.4089  -15.6439  -47.2586 H         1 UNK         0.0600 
    128 H128       -4.6123  -16.2825  -48.7000 H         1 UNK         0.0600 
    129 H129       -4.9642  -14.5562  -48.5777 H         1 UNK         0.0600 
    130 H130       -3.1657  -13.3886  -48.1461 H         1 UNK         0.3000 
    131 H131       -1.3696  -12.5485  -47.2920 H         1 UNK         0.0600 
    132 H132       -0.4174  -13.7249  -49.1363 H         1 UNK         0.0800 
    133 H133        0.7556  -13.6298  -47.8611 H         1 UNK         0.0800 
    134 H134        1.1896  -15.2859  -50.2963 H         1 UNK         0.0800 
    135 H135        2.3260  -15.6287  -49.0123 H         1 UNK         0.0800 
    136 H136       -0.0742  -17.1804  -51.4025 H         1 UNK         0.1150 
    137 H137        1.9883  -20.9377  -51.5059 H         1 UNK         0.1150 
    138 H138        3.2305  -17.8785  -48.7680 H         1 UNK         0.1150 
    139 H139        4.5053  -20.6474  -50.4371 H         1 UNK         0.0800 
    140 H140        4.4781  -19.8957  -48.8618 H         1 UNK         0.0800 
    141 H141        2.1574  -20.2963  -47.4806 H         1 UNK         0.0800 
    142 H142        3.0872  -21.4434  -46.5592 H         1 UNK         0.0800 
    143 H143        1.3468  -23.2215  -47.1341 H         1 UNK         0.0600 
    144 H144        1.1306  -21.1965  -45.1768 H         1 UNK         0.3000 
    145 H145       -1.6918  -22.5437  -43.4348 H         1 UNK         0.0600 
    146 H146       -0.0420  -22.4368  -41.5854 H         1 UNK         0.0600 
    147 H147        0.2977  -23.8093  -42.6295 H         1 UNK         0.0600 
    148 H148        1.2871  -22.3591  -42.7391 H         1 UNK         0.0600 
    149 H149       -0.1011  -20.2669  -42.8842 H         1 UNK         0.3000 
    150 H150       -1.9554  -17.8940  -44.8503 H         1 UNK         0.0600 
    151 H151       -3.0905  -17.9872  -42.7250 H         1 UNK         0.0600 
    152 H152       -1.7243  -16.9163  -42.4607 H         1 UNK         0.0600 
    153 H153       -1.6714  -18.5649  -41.8735 H         1 UNK         0.0600 
    154 H154        0.3963  -17.5100  -43.3560 H         1 UNK         0.3000 
    155 H155        2.8043  -18.4239  -45.8565 H         1 UNK         0.0600 
    156 H156        1.9362  -15.7389  -44.6716 H         1 UNK         0.0600 
    157 H157        3.5830  -16.1267  -45.1665 H         1 UNK         0.0600 
    158 H158        2.2896  -16.0918  -46.3507 H         1 UNK         0.0600 
    159 H159        2.9192  -17.5341  -43.1083 H         1 UNK         0.3000 
    160 H160        3.0600  -20.7903  -41.6638 H         1 UNK         0.0600 
    161 H161        5.2786  -18.7065  -42.0570 H         1 UNK         0.0600 
    162 H162        5.3926  -20.4112  -42.4779 H         1 UNK         0.0600 
    163 H163        5.2237  -19.9379  -40.7952 H         1 UNK         0.0600 
    164 H164        3.3649  -18.1554  -40.5883 H         1 UNK         0.3000 
    165 H165       -0.0535  -17.3275  -40.2305 H         1 UNK         0.0600 
    166 H166        0.5168  -17.1411  -37.8204 H         1 UNK         0.0600 
    167 H167        0.2801  -18.8247  -38.2609 H         1 UNK         0.0600 
    168 H168        1.9104  -18.2002  -38.0407 H         1 UNK         0.0600 
    169 H169        2.3990  -16.1385  -39.3122 H         1 UNK         0.3000 
    170 H170        3.0617  -14.1190  -40.3647 H         1 UNK         0.0600 
    171 H171        4.3851  -15.8753  -42.5327 H         1 UNK         0.0600 
    172 H172        5.2104  -14.6959  -41.5210 H         1 UNK         0.0600 
    173 H173        4.5571  -16.1468  -40.8023 H         1 UNK         0.0600 
    174 H174        1.9238  -13.9445  -42.9377 H         1 UNK         0.3000 
    175 H175        3.4781  -10.7973  -43.8058 H         1 UNK         0.0600 
    176 H176        2.9113  -11.8061  -46.0178 H         1 UNK         0.0600 
    177 H177        2.8052  -13.3998  -45.2747 H         1 UNK         0.0600 
    178 H178        4.3389  -12.5463  -45.3090 H         1 UNK         0.0600 
    179 H179        0.9017  -12.0834  -44.2765 H         1 UNK         0.3000 
    180 H180       -0.8354  -10.3112  -41.7721 H         1 UNK         0.0600 
    181 H181       -0.8128   -9.4421  -44.7145 H         1 UNK         0.0600 
    182 H182       -0.5847   -8.3768  -43.3330 H         1 UNK         0.0600 
    183 H183       -2.1286   -9.1796  -43.5686 H         1 UNK         0.0600 
    184 H184       -1.6944  -11.6672  -44.1590 H         1 UNK         0.3000 
    185 H185       -1.1607  -14.9239  -43.2048 H         1 UNK         0.0600 
    186 H186       -3.9235  -13.6194  -42.8832 H         1 UNK         0.0600 
    187 H187       -3.6301  -15.3240  -43.2275 H         1 UNK         0.0600 
    188 H188       -3.1303  -14.6402  -41.6886 H         1 UNK         0.0600 
    189 H189       -2.9203  -13.9602  -45.1751 H         1 UNK         0.3000 
    190 H190       -0.4763  -20.1045  -47.2062 H         1 UNK         0.3000 
    191 H191       -1.6460  -20.4728  -49.7644 H         1 UNK         0.0600 
    192 H192       -1.5947  -18.2918  -48.6396 H         1 UNK         0.0600 
    193 H193       -3.2616  -18.7249  -48.9825 H         1 UNK         0.0600 
    194 H194       -2.6326  -18.8798  -47.3455 H         1 UNK         0.0600 
    195 H195       -2.7848  -21.4773  -46.5070 H         1 UNK         0.3000 
    196 H196       -5.2720  -22.5588  -47.3183 H         1 UNK         0.0600 
    197 H197       -5.2088  -23.7329  -45.1275 H         1 UNK         0.0600 
    198 H198       -4.7298  -22.0508  -44.9594 H         1 UNK         0.0600 
    199 H199       -3.5102  -23.3223  -44.9361 H         1 UNK         0.0600 
    200 H200       -2.0362  -24.1029  -47.0308 H         1 UNK         0.3000 
    201 H201       -2.8152  -26.7108  -47.8721 H         1 UNK         0.0600 
    202 H202       -0.6724  -26.2473  -46.7149 H         1 UNK         0.0600 
    203 H203       -0.1061  -25.2911  -48.0815 H         1 UNK         0.0600 
    204 H204       -0.3701  -27.0207  -48.2638 H         1 UNK         0.0600 
    205 H205       -1.7764  -23.8307  -49.6980 H         1 UNK         0.3000 
    206 H206       -1.8843  -25.0701  -52.3062 H         1 UNK         0.0600 
    207 H207       -0.3604  -23.1789  -51.7433 H         1 UNK         0.0600 
    208 H208       -1.4145  -22.7815  -53.0882 H         1 UNK         0.0600 
    209 H209       -1.7561  -22.1324  -51.4870 H         1 UNK         0.0600 
    210 H210       -4.1414  -25.8549  -51.3666 H         1 UNK         0.3000 
    211 H211       -6.2690  -26.1988  -51.8304 H         1 UNK         0.0600 
    212 H212       -5.9031  -24.2763  -54.1851 H         1 UNK         0.0600 
    213 H213       -7.1958  -25.4504  -53.9963 H         1 UNK         0.0600 
    214 H214       -5.5411  -26.0013  -54.1959 H         1 UNK         0.0600 
    215 H215       -6.0335  -24.6442  -49.6890 H         1 UNK         0.3000 
    216 H216       -7.2199  -23.4524  -48.2509 H         1 UNK         0.0600 
    217 H217       -9.6716  -23.6097  -48.4172 H         1 UNK         0.0600 
    218 H218       -8.9387  -25.1262  -48.9109 H         1 UNK         0.0600 
    219 H219       -9.5705  -24.0151  -50.1254 H         1 UNK         0.0600 
    220 H220       -5.7413  -21.8037  -49.8050 H         1 UNK         0.3000 
    221 H221       -5.3269  -19.7249  -50.2741 H         1 UNK         0.0600 
    222 H222       -7.9795  -18.9003  -49.0004 H         1 UNK         0.0600 
    223 H223       -6.4707  -19.1718  -48.1264 H         1 UNK         0.0600 
    224 H224       -6.5880  -17.8733  -49.3001 H         1 UNK         0.0600 
    225 H225       -7.1252  -21.4479  -52.1474 H         1 UNK         0.3000 
    226 H226       -8.0913  -19.4563  -54.0403 H         1 UNK         0.0600 
    227 H227       -8.9552  -21.8188  -53.9829 H         1 UNK         0.0600 
    228 H228       -8.3199  -21.3702  -55.5585 H         1 UNK         0.0600 
    229 H229       -7.3675  -22.3940  -54.4963 H         1 UNK         0.0600 
    230 H230       -5.0208  -20.6197  -53.1034 H         1 UNK         0.3000 
    231 H231       -2.9577  -20.0619  -53.5560 H         1 UNK         0.0600 
    232 H232       -4.0049  -17.9562  -55.5176 H         1 UNK         0.0600 
    233 H233       -2.3863  -18.0409  -54.8449 H         1 UNK         0.0600 
    234 H234       -3.7519  -17.7171  -53.7890 H         1 UNK         0.0600 
    235 H235       -3.4164  -22.3363  -54.4329 H         1 UNK         0.3000 
    236 H236       -2.9803  -22.9270  -57.1758 H         1 UNK         0.0600 
    237 H237       -3.8047  -24.5652  -55.4728 H         1 UNK         0.0600 
    238 H238       -2.4118  -25.1830  -56.3425 H         1 UNK         0.0600 
    239 H239       -2.2139  -24.5725  -54.7083 H         1 UNK         0.0600 
    240 H240       -0.8287  -21.4674  -55.0048 H         1 UNK         0.3000 
    241 H241        1.7033  -22.2473  -56.1024 H         1 UNK         0.0600 
    242 H242        0.1676  -19.5366  -58.7287 H         1 UNK         0.3800 
    243 H243       -0.8411  -20.1707  -57.4515 H         1 UNK         0.3800 
    244 H244        1.6530  -21.2450  -53.8998 H         1 UNK         0.0800 
    245 H245        2.5640  -20.2085  -54.9487 H         1 UNK         0.0800 
    246 H246       -1.0758  -19.1356  -52.4955 H         1 UNK         0.0800 
    247 H247       -0.2423  -20.6648  -52.5812 H         1 UNK         0.0800 
@<TRIPOS>BOND
     1    1    2 1    
     2    1  127 1    
     3    1  128 1    
     4    1  129 1    
     5    2    3 2    
     6    2    4 am   BACKBONE|DICT|INTERRES
     7    4    5 1    
     8    4  130 1    
     9    5    6 1    
    10    5   65 1    
    11    5  131 1    
    12    6    7 1    
    13    6  132 1    
    14    6  133 1    
    15    7    8 1    
    16    8    9 1    
    17    8  134 1    
    18    8  135 1    
    19    9   10 ar   
    20    9   14 ar   
    21   10   11 ar   
    22   10  136 1    
    23   11   12 ar   
    24   11  126 1    
    25   12   13 ar   
    26   12  137 1    
    27   13   14 ar   
    28   13   15 1    
    29   14  138 1    
    30   15   16 1    
    31   15  139 1    
    32   15  140 1    
    33   16   17 1    
    34   17   18 1    
    35   17  141 1    
    36   17  142 1    
    37   18   19 1    
    38   18   67 1    
    39   18  143 1    
    40   19   20 am   BACKBONE|DICT|INTERRES
    41   19  144 1    
    42   20   21 2    
    43   20   22 1    
    44   22   23 1    
    45   22   24 1    
    46   22  145 1    
    47   23  146 1    
    48   23  147 1    
    49   23  148 1    
    50   24   25 am   BACKBONE|DICT|INTERRES
    51   24  149 1    
    52   25   26 2    
    53   25   27 1    
    54   27   28 1    
    55   27   29 1    
    56   27  150 1    
    57   28  151 1    
    58   28  152 1    
    59   28  153 1    
    60   29   30 am   BACKBONE|DICT|INTERRES
    61   29  154 1    
    62   30   31 2    
    63   30   32 1    
    64   32   33 1    
    65   32   34 1    
    66   32  155 1    
    67   33  156 1    
    68   33  157 1    
    69   33  158 1    
    70   34   35 am   BACKBONE|DICT|INTERRES
    71   34  159 1    
    72   35   36 2    
    73   35   37 1    
    74   37   38 1    
    75   37   39 1    
    76   37  160 1    
    77   38  161 1    
    78   38  162 1    
    79   38  163 1    
    80   39   40 am   BACKBONE|DICT|INTERRES
    81   39  164 1    
    82   40   41 2    
    83   40   42 1    
    84   42   43 1    
    85   42   44 1    
    86   42  165 1    
    87   43  166 1    
    88   43  167 1    
    89   43  168 1    
    90   44   45 am   BACKBONE|DICT|INTERRES
    91   44  169 1    
    92   45   46 2    
    93   45   47 1    
    94   47   48 1    
    95   47   49 1    
    96   47  170 1    
    97   48  171 1    
    98   48  172 1    
    99   48  173 1    
   100   49   50 am   BACKBONE|DICT|INTERRES
   101   49  174 1    
   102   50   51 2    
   103   50   52 1    
   104   52   53 1    
   105   52   54 1    
   106   52  175 1    
   107   53  176 1    
   108   53  177 1    
   109   53  178 1    
   110   54   55 am   BACKBONE|DICT|INTERRES
   111   54  179 1    
   112   55   56 2    
   113   55   57 1    
   114   57   58 1    
   115   57   59 1    
   116   57  180 1    
   117   58  181 1    
   118   58  182 1    
   119   58  183 1    
   120   59   60 am   BACKBONE|DICT|INTERRES
   121   59  184 1    
   122   60   61 2    
   123   60   62 1    
   124   62   63 1    
   125   62   64 1    
   126   62  185 1    
   127   63  186 1    
   128   63  187 1    
   129   63  188 1    
   130   64   65 am   BACKBONE|DICT|INTERRES
   131   64  189 1    
   132   65   66 2    
   133   67   68 2    
   134   67   69 am   BACKBONE|DICT|INTERRES
   135   69   70 1    
   136   69  190 1    
   137   70   71 1    
   138   70   72 1    
   139   70  191 1    
   140   71  192 1    
   141   71  193 1    
   142   71  194 1    
   143   72   73 2    
   144   72   74 am   BACKBONE|DICT|INTERRES
   145   74   75 1    
   146   74  195 1    
   147   75   76 1    
   148   75   77 1    
   149   75  196 1    
   150   76  197 1    
   151   76  198 1    
   152   76  199 1    
   153   77   78 2    
   154   77   79 am   BACKBONE|DICT|INTERRES
   155   79   80 1    
   156   79  200 1    
   157   80   81 1    
   158   80   82 1    
   159   80  201 1    
   160   81  202 1    
   161   81  203 1    
   162   81  204 1    
   163   82   83 2    
   164   82   84 am   BACKBONE|DICT|INTERRES
   165   84   85 1    
   166   84  205 1    
   167   85   86 1    
   168   85   87 1    
   169   85  206 1    
   170   86  207 1    
   171   86  208 1    
   172   86  209 1    
   173   87   88 2    
   174   87   89 am   BACKBONE|DICT|INTERRES
   175   89   90 1    
   176   89  210 1    
   177   90   91 1    
   178   90   92 1    
   179   90  211 1    
   180   91  212 1    
   181   91  213 1    
   182   91  214 1    
   183   92   93 2    
   184   92   94 am   BACKBONE|DICT|INTERRES
   185   94   95 1    
   186   94  215 1    
   187   95   96 1    
   188   95   97 1    
   189   95  216 1    
   190   96  217 1    
   191   96  218 1    
   192   96  219 1    
   193   97   98 2    
   194   97   99 am   BACKBONE|DICT|INTERRES
   195   99  100 1    
   196   99  220 1    
   197  100  101 1    
   198  100  102 1    
   199  100  221 1    
   200  101  222 1    
   201  101  223 1    
   202  101  224 1    
   203  102  103 2    
   204  102  104 am   BACKBONE|DICT|INTERRES
   205  104  105 1    
   206  104  225 1    
   207  105  106 1    
   208  105  107 1    
   209  105  226 1    
   210  106  227 1    
   211  106  228 1    
   212  106  229 1    
   213  107  108 2    
   214  107  109 am   BACKBONE|DICT|INTERRES
   215  109  110 1    
   216  109  230 1    
   217  110  111 1    
   218  110  112 1    
   219  110  231 1    
   220  111  232 1    
   221  111  233 1    
   222  111  234 1    
   223  112  113 2    
   224  112  114 am   BACKBONE|DICT|INTERRES
   225  114  115 1    
   226  114  235 1    
   227  115  116 1    
   228  115  117 1    
   229  115  236 1    
   230  116  237 1    
   231  116  238 1    
   232  116  239 1    
   233  117  118 2    
   234  117  119 am   BACKBONE|DICT|INTERRES
   235  119  120 1    
   236  119  240 1    
   237  120  121 1    
   238  120  124 1    
   239  120  241 1    
   240  121  122 am   BACKBONE|DICT|INTERRES
   241  121  123 2    
   242  122  242 1    
   243  122  243 1    
   244  124  125 1    
   245  124  244 1    
   246  124  245 1    
   247  125  126 1    
   248  126  246 1    
   249  126  247 1    
@<TRIPOS>SUBSTRUCTURE
     1 UNK         1 GROUP             0       ****    0 ROOT    
