@<TRIPOS>MOLECULE
3R540
247   249    1
SMALL
USER_CHARGES


@<TRIPOS>ATOM
      1 CA         -4.5298  -16.6421  -48.9890 C.3       0 UNK        -0.1800 
      2 C          -3.2882  -16.2982  -48.1800 C.2       0 UNK         0.5000 
      3 O          -2.8854  -17.0746  -47.3184 O.2       0 UNK        -0.5000 
      4 N          -2.6825  -15.1359  -48.4574 N.am      1 UNK        -0.5000 
      5 CA         -1.3981  -14.6556  -47.9174 C.3       1 UNK         0.1400 
      6 C6         -0.1930  -15.5892  -48.2155 C.3       23 UNK        -0.0398 
      7 S7         -0.0523  -16.1516  -49.9479 S.3       23 UNK        -0.2404 
      8 C8         -0.5288  -17.9034  -49.7899 C.3       23 UNK        -0.0205 
      9 C9          0.5199  -18.8323  -50.3734 C.ar      23 UNK        -0.0193 
     10 C10         0.4684  -19.1791  -51.7232 C.ar      23 UNK        -0.1150 
     11 C11         1.4094  -20.0523  -52.2737 C.ar      23 UNK        -0.0193 
     12 C12         2.3950  -20.6030  -51.4482 C.ar      23 UNK        -0.1150 
     13 C13         2.4492  -20.2769  -50.0881 C.ar      23 UNK        -0.0193 
     14 C14         1.5188  -19.3748  -49.5616 C.ar      23 UNK        -0.1150 
     15 C15         3.5193  -20.8946  -49.1974 C.3       23 UNK        -0.0205 
     16 S16         2.9654  -22.4541  -48.4273 S.3       23 UNK        -0.2404 
     17 C17         2.1167  -21.8389  -46.9330 C.3       23 UNK        -0.0398 
     18 CA          0.9547  -22.7305  -46.4305 C.3       11 UNK         0.1400 
     19 N           0.5085  -22.3133  -45.0955 N.am      11 UNK        -0.5000 
     20 C          -0.3955  -22.9546  -44.3401 C.2       10 UNK         0.5000 
     21 O          -0.9049  -24.0293  -44.6500 O.2       10 UNK        -0.5000 
     22 CA         -0.8577  -22.2504  -43.0506 C.3       10 UNK         0.1400 
     23 CB          0.1231  -22.5005  -41.8960 C.3       10 UNK        -0.1800 
     24 N          -1.0505  -20.8124  -43.2426 N.am      10 UNK        -0.5000 
     25 C          -1.9792  -20.2777  -44.0486 C.2       9 UNK         0.5000 
     26 O          -2.8237  -20.9464  -44.6449 O.2       9 UNK        -0.5000 
     27 CA         -1.9253  -18.7511  -44.2575 C.3       9 UNK         0.1400 
     28 CB         -2.6668  -18.0239  -43.1265 C.3       9 UNK        -0.1800 
     29 N          -0.5509  -18.2503  -44.3710 N.am      9 UNK        -0.5000 
     30 C           0.2824  -18.5737  -45.3723 C.2       8 UNK         0.5000 
     31 O          -0.0563  -19.2450  -46.3454 O.2       8 UNK        -0.5000 
     32 CA          1.7609  -18.1619  -45.2277 C.3       8 UNK         0.1400 
     33 CB          2.0393  -16.7637  -45.7930 C.3       8 UNK        -0.1800 
     34 N           2.1998  -18.2222  -43.8366 N.am      8 UNK        -0.5000 
     35 C           2.4606  -19.3640  -43.1860 C.2       7 UNK         0.5000 
     36 O           2.4032  -20.4738  -43.7150 O.2       7 UNK        -0.5000 
     37 CA          2.7975  -19.2456  -41.6873 C.3       7 UNK         0.1400 
     38 CB          4.3061  -19.0388  -41.4897 C.3       7 UNK        -0.1800 
     39 N           2.0708  -18.1532  -41.0366 N.am      7 UNK        -0.5000 
     40 C           0.7406  -18.1215  -40.8696 C.2       6 UNK         0.5000 
     41 O           0.0001  -19.0559  -41.1709 O.2       6 UNK        -0.5000 
     42 CA          0.1342  -16.8087  -40.3349 C.3       6 UNK         0.1400 
     43 CB          0.0069  -16.8568  -38.8056 C.3       6 UNK        -0.1800 
     44 N           0.9160  -15.6303  -40.7219 N.am      6 UNK        -0.5000 
     45 C           1.0378  -15.1812  -41.9779 C.2       5 UNK         0.5000 
     46 O           0.4434  -15.6698  -42.9415 O.2       5 UNK        -0.5000 
     47 CA          2.0792  -14.0777  -42.1960 C.3       5 UNK         0.1400 
     48 CB          3.4758  -14.7140  -42.3593 C.3       5 UNK        -0.1800 
     49 N           1.7441  -13.2797  -43.3732 N.am      5 UNK        -0.5000 
     50 C           2.3135  -12.1042  -43.6755 C.2       4 UNK         0.5000 
     51 O           3.1688  -11.5576  -42.9774 O.2       4 UNK        -0.5000 
     52 CA          1.8408  -11.4067  -44.9595 C.3       4 UNK         0.1400 
     53 CB          2.3514  -12.1401  -46.2116 C.3       4 UNK        -0.1800 
     54 N           0.3838  -11.3031  -44.9922 N.am      4 UNK        -0.5000 
     55 C          -0.3147  -10.3286  -44.3893 C.2       3 UNK         0.5000 
     56 O           0.2083   -9.3931  -43.7820 O.2       3 UNK        -0.5000 
     57 CA         -1.8539  -10.3886  -44.4799 C.3       3 UNK         0.1400 
     58 CB         -2.3622   -9.4609  -45.5942 C.3       3 UNK        -0.1800 
     59 N          -2.3647  -11.7369  -44.7196 N.am      3 UNK        -0.5000 
     60 C          -2.3559  -12.7281  -43.8189 C.2       2 UNK         0.5000 
     61 O          -2.0098  -12.5836  -42.6462 O.2       2 UNK        -0.5000 
     62 CA         -2.7701  -14.1240  -44.3229 C.3       2 UNK         0.1400 
     63 CB         -4.2240  -14.4362  -43.9389 C.3       2 UNK        -0.1800 
     64 N          -2.6022  -14.3259  -45.7672 N.am      2 UNK        -0.5000 
     65 C          -1.4267  -14.2977  -46.4108 C.2       1 UNK         0.5000 
     66 O          -0.3771  -13.9756  -45.8532 O.2       1 UNK        -0.5000 
     67 C          -0.2244  -22.7955  -47.4287 C.2       11 UNK         0.5000 
     68 O          -0.3878  -23.8138  -48.1050 O.2       11 UNK        -0.5000 
     69 N          -1.0629  -21.7459  -47.4432 N.am      12 UNK        -0.5000 
     70 CA         -2.3065  -21.6791  -48.2138 C.3       12 UNK         0.1400 
     71 CB         -2.9828  -20.3123  -48.0424 C.3       12 UNK        -0.1800 
     72 C          -3.2879  -22.8180  -47.8952 C.2       12 UNK         0.5000 
     73 O          -3.7994  -23.4517  -48.8179 O.2       12 UNK        -0.5000 
     74 N          -3.5079  -23.0703  -46.5988 N.am      13 UNK        -0.5000 
     75 CA         -4.3643  -24.1450  -46.1010 C.3       13 UNK         0.1400 
     76 CB         -4.5630  -23.9781  -44.5868 C.3       13 UNK        -0.1800 
     77 C          -3.8261  -25.5499  -46.4324 C.2       13 UNK         0.5000 
     78 O          -4.6057  -26.4137  -46.8346 O.2       13 UNK        -0.5000 
     79 N          -2.5116  -25.7508  -46.2639 N.am      14 UNK        -0.5000 
     80 CA         -1.8235  -27.0218  -46.4898 C.3       14 UNK         0.1400 
     81 CB         -0.3931  -26.9431  -45.9335 C.3       14 UNK        -0.1800 
     82 C          -1.8074  -27.4492  -47.9665 C.2       14 UNK         0.5000 
     83 O          -2.1261  -28.6012  -48.2648 O.2       14 UNK        -0.5000 
     84 N          -1.4413  -26.5221  -48.8624 N.am      15 UNK        -0.5000 
     85 CA         -1.3842  -26.7711  -50.3059 C.3       15 UNK         0.1400 
     86 CB         -0.3459  -25.8355  -50.9416 C.3       15 UNK        -0.1800 
     87 C          -2.7583  -26.6679  -50.9995 C.2       15 UNK         0.5000 
     88 O          -2.8982  -27.1496  -52.1246 O.2       15 UNK        -0.5000 
     89 N          -3.7432  -26.0603  -50.3220 N.am      16 UNK        -0.5000 
     90 CA         -5.1592  -25.8975  -50.6746 C.3       16 UNK         0.1400 
     91 CB         -5.8596  -27.2571  -50.8576 C.3       16 UNK        -0.1800 
     92 C          -5.4093  -24.9625  -51.8713 C.2       16 UNK         0.5000 
     93 O          -6.1175  -23.9673  -51.7239 O.2       16 UNK        -0.5000 
     94 N          -4.8021  -25.2640  -53.0264 N.am      17 UNK        -0.5000 
     95 CA         -4.8537  -24.4454  -54.2444 C.3       17 UNK         0.1400 
     96 CB         -4.2361  -25.2371  -55.4061 C.3       17 UNK        -0.1800 
     97 C          -4.1436  -23.0872  -54.0770 C.2       17 UNK         0.5000 
     98 O          -4.5000  -22.1115  -54.7379 O.2       17 UNK        -0.5000 
     99 N          -3.1788  -23.0475  -53.1503 N.am      18 UNK        -0.5000 
    100 CA        -2.4312  -21.8714  -52.7158 C.3       18 UNK         0.1400 
    101 CB        -1.3059  -22.3510  -51.7942 C.3       18 UNK        -0.1800 
    102 C         -3.2891  -20.7856  -52.0332 C.2       18 UNK         0.5000 
    103 O         -2.8444  -19.6409  -51.9516 O.2       18 UNK        -0.5000 
    104 N         -4.5199  -21.1222  -51.6137 N.am      19 UNK        -0.5000 
    105 CA        -5.5188  -20.1890  -51.0771 C.3       19 UNK         0.1400 
    106 CB        -6.7253  -20.9822  -50.5569 C.3       19 UNK        -0.1800 
    107 C         -5.9653  -19.0896  -52.0665 C.2       19 UNK         0.5000 
    108 O         -6.5475  -18.0938  -51.6375 O.2       19 UNK        -0.5000 
    109 N         -5.6376  -19.2532  -53.3567 N.am      20 UNK        -0.5000 
    110 CA        -5.7278  -18.2260  -54.3974 C.3       20 UNK         0.1400 
    111 CB        -5.5758  -18.9120  -55.7647 C.3       20 UNK        -0.1800 
    112 C         -4.6934  -17.0832  -54.2455 C.2       20 UNK         0.5000 
    113 O         -4.7569  -16.1214  -55.0114 O.2       20 UNK        -0.5000 
    114 N         -3.7670  -17.2084  -53.2812 N.am      21 UNK        -0.5000 
    115 CA        -2.6691  -16.2934  -52.9518 C.3       21 UNK         0.1400 
    116 CB        -3.1646  -14.8645  -52.6454 C.3       21 UNK        -0.1800 
    117 C         -1.5122  -16.3537  -53.9688 C.2       21 UNK         0.5000 
    118 O         -0.8179  -15.3580  -54.1808 O.2       21 UNK        -0.5000 
    119 N         -1.2990  -17.5499  -54.5338 N.am      22 UNK        -0.5000 
    120 CA        -0.1997  -17.9087  -55.4437 C.3       22 UNK         0.1400 
    121 C         -0.2758  -17.2388  -56.8499 C.2       22 UNK         0.5000 
    122 N          0.7442  -17.4041  -57.6820 N.am      22 UNK        -0.7600 
    123 O         -1.2649  -16.6109  -57.2213 O.2       22 UNK        -0.5000 
    124 C124        1.1978  -17.7780  -54.7539 C.3       23 UNK        -0.0398 
    125 S125        2.2039  -19.2992  -54.8551 S.3       23 UNK        -0.2404 
    126 C126        1.3185  -20.4451  -53.7422 C.3       23 UNK        -0.0205 
    127 H127       -4.2907  -17.4158  -49.7182 H         1 UNK         0.0600 
    128 H128       -4.9171  -15.7764  -49.5268 H         1 UNK         0.0600 
    129 H129       -5.3175  -17.0174  -48.3357 H         1 UNK         0.0600 
    130 H130       -3.0894  -14.5381  -49.1627 H         1 UNK         0.3000 
    131 H131       -1.2074  -13.7135  -48.4331 H         1 UNK         0.0600 
    132 H132       -0.2221  -16.4503  -47.5488 H         1 UNK         0.0800 
    133 H133        0.7373  -15.0677  -47.9847 H         1 UNK         0.0800 
    134 H134       -1.4842  -18.0573  -50.2906 H         1 UNK         0.0800 
    135 H135       -0.6992  -18.1739  -48.7489 H         1 UNK         0.0800 
    136 H136       -0.3198  -18.7780  -52.3411 H         1 UNK         0.1150 
    137 H137        3.1135  -21.2966  -51.8619 H         1 UNK         0.1150 
    138 H138        1.5582  -19.1001  -48.5182 H         1 UNK         0.1150 
    139 H139        4.4116  -21.0999  -49.7906 H         1 UNK         0.0800 
    140 H140        3.8294  -20.1868  -48.4270 H         1 UNK         0.0800 
    141 H141        1.7613  -20.8288  -47.1137 H         1 UNK         0.0800 
    142 H142        2.8736  -21.7514  -46.1523 H         1 UNK         0.0800 
    143 H143        1.3407  -23.7465  -46.3236 H         1 UNK         0.0600 
    144 H144        0.9213  -21.4640  -44.7265 H         1 UNK         0.3000 
    145 H145       -1.8220  -22.6778  -42.7680 H         1 UNK         0.0600 
    146 H146       -0.2207  -22.0261  -40.9767 H         1 UNK         0.0600 
    147 H147        1.1187  -22.1184  -42.1170 H         1 UNK         0.0600 
    148 H148        0.2209  -23.5681  -41.6954 H         1 UNK         0.0600 
    149 H149       -0.4497  -20.1901  -42.7114 H         1 UNK         0.3000 
    150 H150       -2.4379  -18.5234  -45.1924 H         1 UNK         0.0600 
    151 H151       -3.7244  -18.2898  -43.1274 H         1 UNK         0.0600 
    152 H152       -2.6044  -16.9447  -43.2410 H         1 UNK         0.0600 
    153 H153       -2.2706  -18.2791  -42.1449 H         1 UNK         0.0600 
    154 H154       -0.2129  -17.6482  -43.6311 H         1 UNK         0.3000 
    155 H155        2.3639  -18.8686  -45.8014 H         1 UNK         0.0600 
    156 H156        1.9815  -16.7788  -46.8803 H         1 UNK         0.0600 
    157 H157        3.0428  -16.4229  -45.5380 H         1 UNK         0.0600 
    158 H158        1.3306  -16.0227  -45.4240 H         1 UNK         0.0600 
    159 H159        2.2166  -17.3516  -43.3277 H         1 UNK         0.3000 
    160 H160        2.5118  -20.1826  -41.2048 H         1 UNK         0.0600 
    161 H161        4.6481  -18.1042  -41.9363 H         1 UNK         0.0600 
    162 H162        4.8740  -19.8492  -41.9488 H         1 UNK         0.0600 
    163 H163        4.5663  -19.0207  -40.4312 H         1 UNK         0.0600 
    164 H164        2.6135  -17.3561  -40.7408 H         1 UNK         0.3000 
    165 H165       -0.8669  -16.7076  -40.7593 H         1 UNK         0.0600 
    166 H166       -0.4834  -15.9617  -38.4225 H         1 UNK         0.0600 
    167 H167       -0.5913  -17.7132  -38.4912 H         1 UNK         0.0600 
    168 H168        0.9806  -16.9409  -38.3213 H         1 UNK         0.0600 
    169 H169        1.4389  -15.1781  -39.9853 H         1 UNK         0.3000 
    170 H170        2.0743  -13.4256  -41.3200 H         1 UNK         0.0600 
    171 H171        3.5336  -15.3277  -43.2588 H         1 UNK         0.0600 
    172 H172        4.2578  -13.9579  -42.4245 H         1 UNK         0.0600 
    173 H173        3.7249  -15.3502  -41.5095 H         1 UNK         0.0600 
    174 H174        1.0288  -13.6727  -43.9763 H         1 UNK         0.3000 
    175 H175        2.2679  -10.4015  -44.9757 H         1 UNK         0.0600 
    176 H176        2.0434  -13.1851  -46.2346 H         1 UNK         0.0600 
    177 H177        1.9905  -11.6638  -47.1232 H         1 UNK         0.0600 
    178 H178        3.4413  -12.1260  -46.2471 H         1 UNK         0.0600 
    179 H179       -0.1086  -12.0838  -45.4127 H         1 UNK         0.3000 
    180 H180       -2.2549  -10.0322  -43.5287 H         1 UNK         0.0600 
    181 H181       -3.4518   -9.4422  -45.6262 H         1 UNK         0.0600 
    182 H182       -2.0016   -9.7742  -46.5748 H         1 UNK         0.0600 
    183 H183       -2.0257   -8.4358  -45.4330 H         1 UNK         0.0600 
    184 H184       -2.6740  -11.9478  -45.6568 H         1 UNK         0.3000 
    185 H185       -2.1162  -14.8367  -43.8186 H         1 UNK         0.0600 
    186 H186       -4.9231  -13.7592  -44.4311 H         1 UNK         0.0600 
    187 H187       -4.4942  -15.4564  -44.2124 H         1 UNK         0.0600 
    188 H188       -4.3736  -14.3392  -42.8627 H         1 UNK         0.0600 
    189 H189       -3.4195  -14.6087  -46.2875 H         1 UNK         0.3000 
    190 H190       -0.8325  -20.9286  -46.8846 H         1 UNK         0.3000 
    191 H191       -2.0407  -21.7704  -49.2619 H         1 UNK         0.0600 
    192 H192       -4.0308  -20.3446  -48.3376 H         1 UNK         0.0600 
    193 H193       -2.5018  -19.5607  -48.6623 H         1 UNK         0.0600 
    194 H194       -2.9529  -19.9623  -47.0135 H         1 UNK         0.0600 
    195 H195       -3.0784  -22.4650  -45.9052 H         1 UNK         0.3000 
    196 H196       -5.3390  -24.0421  -46.5827 H         1 UNK         0.0600 
    197 H197       -5.0097  -23.0116  -44.3524 H         1 UNK         0.0600 
    198 H198       -3.6189  -24.0486  -44.0461 H         1 UNK         0.0600 
    199 H199       -5.2264  -24.7487  -44.1924 H         1 UNK         0.0600 
    200 H200       -1.9473  -24.9964  -45.8800 H         1 UNK         0.3000 
    201 H201       -2.3580  -27.7919  -45.9297 H         1 UNK         0.0600 
    202 H202       -0.3990  -26.7599  -44.8590 H         1 UNK         0.0600 
    203 H203        0.1792  -26.1436  -46.4055 H         1 UNK         0.0600 
    204 H204        0.1450  -27.8770  -46.1002 H         1 UNK         0.0600 
    205 H205       -1.1718  -25.5954  -48.5413 H         1 UNK         0.3000 
    206 H206       -1.0362  -27.7926  -50.4740 H         1 UNK         0.0600 
    207 H207       -0.4902  -24.8044  -50.6307 H         1 UNK         0.0600 
    208 H208        0.6633  -26.1219  -50.6455 H         1 UNK         0.0600 
    209 H209       -0.3856  -25.8685  -52.0312 H         1 UNK         0.0600 
    210 H210       -3.4914  -25.6305  -49.4408 H         1 UNK         0.3000 
    211 H211       -5.6157  -25.4176  -49.8071 H         1 UNK         0.0600 
    212 H212       -5.4657  -27.8134  -51.7084 H         1 UNK         0.0600 
    213 H213       -6.9290  -27.1228  -51.0244 H         1 UNK         0.0600 
    214 H214       -5.7449  -27.8785  -49.9693 H         1 UNK         0.0600 
    215 H215       -4.1959  -26.0802  -53.0356 H         1 UNK         0.3000 
    216 H216       -5.9012  -24.2451  -54.4784 H         1 UNK         0.0600 
    217 H217       -4.2730  -24.6638  -56.3334 H         1 UNK         0.0600 
    218 H218       -4.7757  -26.1685  -55.5786 H         1 UNK         0.0600 
    219 H219       -3.1916  -25.4853  -55.2132 H         1 UNK         0.0600 
    220 H220       -2.9773  -23.9074  -52.6627 H         1 UNK         0.3000 
    221 H221       -1.9838  -21.4096  -53.5976 H         1 UNK         0.0600 
    222 H222       -1.6967  -23.0163  -51.0265 H         1 UNK         0.0600 
    223 H223       -0.5426  -22.8932  -52.3524 H         1 UNK         0.0600 
    224 H224       -0.8122  -21.5240  -51.2869 H         1 UNK         0.0600 
    225 H225       -4.8236  -22.0826  -51.7170 H         1 UNK         0.3000 
    226 H226       -5.0635  -19.6738  -50.2318 H         1 UNK         0.0600 
    227 H227       -6.4209  -21.7242  -49.8180 H         1 UNK         0.0600 
    228 H228       -7.4502  -20.3235  -50.0771 H         1 UNK         0.0600 
    229 H229       -7.2398  -21.5031  -51.3651 H         1 UNK         0.0600 
    230 H230       -5.1914  -20.1202  -53.6276 H         1 UNK         0.3000 
    231 H231       -6.7205  -17.7742  -54.3472 H         1 UNK         0.0600 
    232 H232       -5.6904  -18.1965  -56.5799 H         1 UNK         0.0600 
    233 H233       -6.3313  -19.6855  -55.9048 H         1 UNK         0.0600 
    234 H234       -4.5958  -19.3788  -55.8722 H         1 UNK         0.0600 
    235 H235       -3.7686  -18.0659  -52.7382 H         1 UNK         0.3000 
    236 H236       -2.2524  -16.6799  -52.0227 H         1 UNK         0.0600 
    237 H237       -3.5002  -14.3471  -53.5441 H         1 UNK         0.0600 
    238 H238       -3.9899  -14.8771  -51.9336 H         1 UNK         0.0600 
    239 H239       -2.3663  -14.2655  -52.2059 H         1 UNK         0.0600 
    240 H240       -1.9519  -18.2886  -54.3199 H         1 UNK         0.3000 
    241 H241       -0.3884  -18.9604  -55.6580 H         1 UNK         0.0600 
    242 H242        0.6994  -16.9916  -58.6012 H         1 UNK         0.3800 
    243 H243        1.5564  -17.9414  -57.4186 H         1 UNK         0.3800 
    244 H244        1.1073  -17.5066  -53.7034 H         1 UNK         0.0800 
    245 H245        1.7765  -16.9572  -55.1809 H         1 UNK         0.0800 
    246 H246        0.2734  -20.5190  -54.0419 H         1 UNK         0.0800 
    247 H247        1.7340  -21.4448  -53.8774 H         1 UNK         0.0800 
@<TRIPOS>BOND
     1    1    2 1    
     2    1  127 1    
     3    1  128 1    
     4    1  129 1    
     5    2    3 2    
     6    2    4 am   BACKBONE|DICT|INTERRES
     7    4    5 1    
     8    4  130 1    
     9    5    6 1    
    10    5   65 1    
    11    5  131 1    
    12    6    7 1    
    13    6  132 1    
    14    6  133 1    
    15    7    8 1    
    16    8    9 1    
    17    8  134 1    
    18    8  135 1    
    19    9   10 ar   
    20    9   14 ar   
    21   10   11 ar   
    22   10  136 1    
    23   11   12 ar   
    24   11  126 1    
    25   12   13 ar   
    26   12  137 1    
    27   13   14 ar   
    28   13   15 1    
    29   14  138 1    
    30   15   16 1    
    31   15  139 1    
    32   15  140 1    
    33   16   17 1    
    34   17   18 1    
    35   17  141 1    
    36   17  142 1    
    37   18   19 1    
    38   18   67 1    
    39   18  143 1    
    40   19   20 am   BACKBONE|DICT|INTERRES
    41   19  144 1    
    42   20   21 2    
    43   20   22 1    
    44   22   23 1    
    45   22   24 1    
    46   22  145 1    
    47   23  146 1    
    48   23  147 1    
    49   23  148 1    
    50   24   25 am   BACKBONE|DICT|INTERRES
    51   24  149 1    
    52   25   26 2    
    53   25   27 1    
    54   27   28 1    
    55   27   29 1    
    56   27  150 1    
    57   28  151 1    
    58   28  152 1    
    59   28  153 1    
    60   29   30 am   BACKBONE|DICT|INTERRES
    61   29  154 1    
    62   30   31 2    
    63   30   32 1    
    64   32   33 1    
    65   32   34 1    
    66   32  155 1    
    67   33  156 1    
    68   33  157 1    
    69   33  158 1    
    70   34   35 am   BACKBONE|DICT|INTERRES
    71   34  159 1    
    72   35   36 2    
    73   35   37 1    
    74   37   38 1    
    75   37   39 1    
    76   37  160 1    
    77   38  161 1    
    78   38  162 1    
    79   38  163 1    
    80   39   40 am   BACKBONE|DICT|INTERRES
    81   39  164 1    
    82   40   41 2    
    83   40   42 1    
    84   42   43 1    
    85   42   44 1    
    86   42  165 1    
    87   43  166 1    
    88   43  167 1    
    89   43  168 1    
    90   44   45 am   BACKBONE|DICT|INTERRES
    91   44  169 1    
    92   45   46 2    
    93   45   47 1    
    94   47   48 1    
    95   47   49 1    
    96   47  170 1    
    97   48  171 1    
    98   48  172 1    
    99   48  173 1    
   100   49   50 am   BACKBONE|DICT|INTERRES
   101   49  174 1    
   102   50   51 2    
   103   50   52 1    
   104   52   53 1    
   105   52   54 1    
   106   52  175 1    
   107   53  176 1    
   108   53  177 1    
   109   53  178 1    
   110   54   55 am   BACKBONE|DICT|INTERRES
   111   54  179 1    
   112   55   56 2    
   113   55   57 1    
   114   57   58 1    
   115   57   59 1    
   116   57  180 1    
   117   58  181 1    
   118   58  182 1    
   119   58  183 1    
   120   59   60 am   BACKBONE|DICT|INTERRES
   121   59  184 1    
   122   60   61 2    
   123   60   62 1    
   124   62   63 1    
   125   62   64 1    
   126   62  185 1    
   127   63  186 1    
   128   63  187 1    
   129   63  188 1    
   130   64   65 am   BACKBONE|DICT|INTERRES
   131   64  189 1    
   132   65   66 2    
   133   67   68 2    
   134   67   69 am   BACKBONE|DICT|INTERRES
   135   69   70 1    
   136   69  190 1    
   137   70   71 1    
   138   70   72 1    
   139   70  191 1    
   140   71  192 1    
   141   71  193 1    
   142   71  194 1    
   143   72   73 2    
   144   72   74 am   BACKBONE|DICT|INTERRES
   145   74   75 1    
   146   74  195 1    
   147   75   76 1    
   148   75   77 1    
   149   75  196 1    
   150   76  197 1    
   151   76  198 1    
   152   76  199 1    
   153   77   78 2    
   154   77   79 am   BACKBONE|DICT|INTERRES
   155   79   80 1    
   156   79  200 1    
   157   80   81 1    
   158   80   82 1    
   159   80  201 1    
   160   81  202 1    
   161   81  203 1    
   162   81  204 1    
   163   82   83 2    
   164   82   84 am   BACKBONE|DICT|INTERRES
   165   84   85 1    
   166   84  205 1    
   167   85   86 1    
   168   85   87 1    
   169   85  206 1    
   170   86  207 1    
   171   86  208 1    
   172   86  209 1    
   173   87   88 2    
   174   87   89 am   BACKBONE|DICT|INTERRES
   175   89   90 1    
   176   89  210 1    
   177   90   91 1    
   178   90   92 1    
   179   90  211 1    
   180   91  212 1    
   181   91  213 1    
   182   91  214 1    
   183   92   93 2    
   184   92   94 am   BACKBONE|DICT|INTERRES
   185   94   95 1    
   186   94  215 1    
   187   95   96 1    
   188   95   97 1    
   189   95  216 1    
   190   96  217 1    
   191   96  218 1    
   192   96  219 1    
   193   97   98 2    
   194   97   99 am   BACKBONE|DICT|INTERRES
   195   99  100 1    
   196   99  220 1    
   197  100  101 1    
   198  100  102 1    
   199  100  221 1    
   200  101  222 1    
   201  101  223 1    
   202  101  224 1    
   203  102  103 2    
   204  102  104 am   BACKBONE|DICT|INTERRES
   205  104  105 1    
   206  104  225 1    
   207  105  106 1    
   208  105  107 1    
   209  105  226 1    
   210  106  227 1    
   211  106  228 1    
   212  106  229 1    
   213  107  108 2    
   214  107  109 am   BACKBONE|DICT|INTERRES
   215  109  110 1    
   216  109  230 1    
   217  110  111 1    
   218  110  112 1    
   219  110  231 1    
   220  111  232 1    
   221  111  233 1    
   222  111  234 1    
   223  112  113 2    
   224  112  114 am   BACKBONE|DICT|INTERRES
   225  114  115 1    
   226  114  235 1    
   227  115  116 1    
   228  115  117 1    
   229  115  236 1    
   230  116  237 1    
   231  116  238 1    
   232  116  239 1    
   233  117  118 2    
   234  117  119 am   BACKBONE|DICT|INTERRES
   235  119  120 1    
   236  119  240 1    
   237  120  121 1    
   238  120  124 1    
   239  120  241 1    
   240  121  122 am   BACKBONE|DICT|INTERRES
   241  121  123 2    
   242  122  242 1    
   243  122  243 1    
   244  124  125 1    
   245  124  244 1    
   246  124  245 1    
   247  125  126 1    
   248  126  246 1    
   249  126  247 1    
@<TRIPOS>SUBSTRUCTURE
     1 UNK         1 GROUP             0       ****    0 ROOT    
