@<TRIPOS>MOLECULE
3R540
247   249    1
SMALL
USER_CHARGES


@<TRIPOS>ATOM
      1 CA          0.2791  -14.9379  -49.9061 C.3       0 UNK        -0.1800 
      2 C          -0.3269  -14.7544  -48.5232 C.2       0 UNK         0.5000 
      3 O           0.3898  -14.4428  -47.5743 O.2       0 UNK        -0.5000 
      4 N          -1.6513  -14.9096  -48.4030 N.am      1 UNK        -0.5000 
      5 CA         -2.4136  -14.7637  -47.1540 C.3       1 UNK         0.1400 
      6 C6         -3.7971  -15.4593  -47.2156 C.3       23 UNK        -0.0398 
      7 S7         -4.8219  -14.9827  -48.6533 S.3       23 UNK        -0.2404 
      8 C8         -5.0012  -16.5708  -49.5279 C.3       23 UNK        -0.0205 
      9 C9         -3.7922  -16.8855  -50.3964 C.ar      23 UNK        -0.0193 
     10 C10        -3.7732  -16.4879  -51.7365 C.ar      23 UNK        -0.1150 
     11 C11        -2.6750  -16.7832  -52.5486 C.ar      23 UNK        -0.0193 
     12 C12        -1.5841  -17.4659  -52.0071 C.ar      23 UNK        -0.1150 
     13 C13        -1.5900  -17.8729  -50.6719 C.ar      23 UNK        -0.0193 
     14 C14        -2.6998  -17.5836  -49.8715 C.ar      23 UNK        -0.1150 
     15 C15        -0.3896  -18.6169  -50.1047 C.3       23 UNK        -0.0205 
     16 S16        -0.4426  -20.3848  -50.5274 S.3       23 UNK        -0.2404 
     17 C17        -1.8058  -20.9517  -49.4635 C.3       23 UNK        -0.0398 
     18 CA         -1.4234  -22.1320  -48.5422 C.3       11 UNK         0.1400 
     19 N          -0.2270  -21.8910  -47.7406 N.am      11 UNK        -0.5000 
     20 C           0.8749  -22.6514  -47.7778 C.2       10 UNK         0.5000 
     21 O           1.0896  -23.5080  -48.6354 O.2       10 UNK        -0.5000 
     22 CA          1.9056  -22.4572  -46.6464 C.3       10 UNK         0.1400 
     23 CB          3.1225  -21.6744  -47.1609 C.3       10 UNK        -0.1800 
     24 N           1.3716  -21.7882  -45.4565 N.am      10 UNK        -0.5000 
     25 C           0.3537  -22.2283  -44.7007 C.2       9 UNK         0.5000 
     26 O          -0.2494  -23.2850  -44.9026 O.2       9 UNK        -0.5000 
     27 CA         -0.1338  -21.2948  -43.5771 C.3       9 UNK         0.1400 
     28 CB          0.5352  -21.6768  -42.2491 C.3       9 UNK        -0.1800 
     29 N           0.0677  -19.8630  -43.8319 N.am      9 UNK        -0.5000 
     30 C          -0.3368  -19.1747  -44.9124 C.2       8 UNK         0.5000 
     31 O          -0.9340  -19.6782  -45.8660 O.2       8 UNK        -0.5000 
     32 CA          0.0219  -17.6787  -44.9554 C.3       8 UNK         0.1400 
     33 CB         -1.0370  -16.8585  -44.2053 C.3       8 UNK        -0.1800 
     34 N           1.3441  -17.3865  -44.3999 N.am      8 UNK        -0.5000 
     35 C           2.5057  -17.8591  -44.8754 C.2       7 UNK         0.5000 
     36 O           2.5946  -18.6061  -45.8490 O.2       7 UNK        -0.5000 
     37 CA          3.7777  -17.4594  -44.1107 C.3       7 UNK         0.1400 
     38 CB          4.2490  -16.0542  -44.5163 C.3       7 UNK        -0.1800 
     39 N           3.5565  -17.5036  -42.6665 N.am      7 UNK        -0.5000 
     40 C           3.6494  -18.6140  -41.9226 C.2       6 UNK         0.5000 
     41 O           4.0082  -19.7054  -42.3656 O.2       6 UNK        -0.5000 
     42 CA          3.2684  -18.4933  -40.4335 C.3       6 UNK         0.1400 
     43 CB          4.5084  -18.1698  -39.5865 C.3       6 UNK        -0.1800 
     44 N           2.2366  -17.4875  -40.1723 N.am      6 UNK        -0.5000 
     45 C           0.9655  -17.5769  -40.5868 C.2       5 UNK         0.5000 
     46 O           0.5226  -18.5225  -41.2375 O.2       5 UNK        -0.5000 
     47 CA          0.0470  -16.3824  -40.2646 C.3       5 UNK         0.1400 
     48 CB         -0.5460  -16.5279  -38.8552 C.3       5 UNK        -0.1800 
     49 N           0.6841  -15.0655  -40.3889 N.am      5 UNK        -0.5000 
     50 C           1.3291  -14.6110  -41.4719 C.2       4 UNK         0.5000 
     51 O           1.5756  -15.3035  -42.4618 O.2       4 UNK        -0.5000 
     52 CA          1.8153  -13.1492  -41.4194 C.3       4 UNK         0.1400 
     53 CB          3.1577  -13.0669  -40.6761 C.3       4 UNK        -0.1800 
     54 N           1.9832  -12.5649  -42.7528 N.am      4 UNK        -0.5000 
     55 C           1.0061  -12.4064  -43.6564 C.2       3 UNK         0.5000 
     56 O          -0.1805  -12.6504  -43.4220 O.2       3 UNK        -0.5000 
     57 CA          1.4478  -11.8982  -45.0464 C.3       3 UNK         0.1400 
     58 CB          2.5164  -12.8186  -45.6639 C.3       3 UNK        -0.1800 
     59 N           0.3240  -11.8060  -45.9787 N.am      3 UNK        -0.5000 
     60 C          -0.5808  -10.8155  -46.0018 C.2       2 UNK         0.5000 
     61 O          -0.5031   -9.8080  -45.2967 O.2       2 UNK        -0.5000 
     62 CA         -1.7702  -10.9592  -46.9778 C.3       2 UNK         0.1400 
     63 CB         -1.5515  -10.0889  -48.2252 C.3       2 UNK        -0.1800 
     64 N          -1.9975  -12.3407  -47.4034 N.am      2 UNK        -0.5000 
     65 C          -2.5022  -13.3106  -46.6280 C.2       1 UNK         0.5000 
     66 O          -2.9929  -13.1000  -45.5185 O.2       1 UNK        -0.5000 
     67 C          -2.5995  -22.4422  -47.6035 C.2       11 UNK         0.5000 
     68 O          -3.3150  -23.4137  -47.8372 O.2       11 UNK        -0.5000 
     69 N          -2.8144  -21.5965  -46.5841 N.am      12 UNK        -0.5000 
     70 CA         -4.0202  -21.5712  -45.7512 C.3       12 UNK         0.1400 
     71 CB         -3.9876  -20.3387  -44.8352 C.3       12 UNK        -0.1800 
     72 C          -4.2732  -22.8523  -44.9399 C.2       12 UNK         0.5000 
     73 O          -5.4329  -23.2256  -44.7642 O.2       12 UNK        -0.5000 
     74 N          -3.1993  -23.5072  -44.4840 N.am      13 UNK        -0.5000 
     75 CA         -3.2673  -24.7773  -43.7645 C.3       13 UNK         0.1400 
     76 CB         -2.3020  -24.7434  -42.5681 C.3       13 UNK        -0.1800 
     77 C          -2.9363  -25.9486  -44.7006 C.2       13 UNK         0.5000 
     78 O          -3.6166  -26.9735  -44.6522 O.2       13 UNK        -0.5000 
     79 N          -1.8974  -25.7810  -45.5306 N.am      14 UNK        -0.5000 
     80 CA         -1.3496  -26.8409  -46.3776 C.3       14 UNK         0.1400 
     81 CB          0.0521  -26.4263  -46.8432 C.3       14 UNK        -0.1800 
     82 C          -2.2259  -27.2115  -47.5899 C.2       14 UNK         0.5000 
     83 O          -2.2259  -28.3775  -47.9874 O.2       14 UNK        -0.5000 
     84 N          -2.9295  -26.2292  -48.1681 N.am      15 UNK        -0.5000 
     85 CA         -3.6909  -26.3706  -49.4145 C.3       15 UNK         0.1400 
     86 CB         -2.9456  -25.6129  -50.5283 C.3       15 UNK        -0.1800 
     87 C          -5.1448  -25.8747  -49.2919 C.2       15 UNK         0.5000 
     88 O          -5.8668  -25.8997  -50.2889 O.2       15 UNK        -0.5000 
     89 N          -5.5475  -25.4320  -48.0909 N.am      16 UNK        -0.5000 
     90 CA         -6.8365  -24.8101  -47.7612 C.3       16 UNK         0.1400 
     91 CB         -8.0024  -25.8047  -47.9474 C.3       16 UNK        -0.1800 
     92 C          -7.0613  -23.4580  -48.4789 C.2       16 UNK         0.5000 
     93 O          -8.1926  -23.1391  -48.8497 O.2       16 UNK        -0.5000 
     94 N          -5.9718  -22.6868  -48.6187 N.am      17 UNK        -0.5000 
     95 CA         -5.8460  -21.3554  -49.2266 C.3       17 UNK         0.1400 
     96 CB         -6.8399  -20.3493  -48.6082 C.3       17 UNK        -0.1800 
     97 C          -5.9182  -21.3609  -50.7664 C.2       17 UNK         0.5000 
     98 O          -6.3528  -22.3412  -51.3722 O.2       17 UNK        -0.5000 
     99 N          -5.4748  -20.2403  -51.3589 N.am      18 UNK        -0.5000 
    100 CA        -5.4312  -19.9442  -52.7958 C.3       18 UNK         0.1400 
    101 CB        -6.8571  -19.7788  -53.3601 C.3       18 UNK        -0.1800 
    102 C         -4.5833  -20.9649  -53.5826 C.2       18 UNK         0.5000 
    103 O         -5.1177  -21.7556  -54.3634 O.2       18 UNK        -0.5000 
    104 N         -3.2716  -20.9414  -53.3306 N.am      19 UNK        -0.5000 
    105 CA        -2.2786  -21.8168  -53.9453 C.3       19 UNK         0.1400 
    106 CB        -2.0734  -23.0515  -53.0451 C.3       19 UNK        -0.1800 
    107 C         -0.9812  -21.0249  -54.1809 C.2       19 UNK         0.5000 
    108 O         -0.9908  -19.7963  -54.0826 O.2       19 UNK        -0.5000 
    109 N          0.1114  -21.7365  -54.4966 N.am      20 UNK        -0.5000 
    110 CA         1.4748  -21.2256  -54.6827 C.3       20 UNK         0.1400 
    111 CB         2.0884  -20.8449  -53.3163 C.3       20 UNK        -0.1800 
    112 C          1.5330  -20.0903  -55.7258 C.2       20 UNK         0.5000 
    113 O          1.4121  -20.3666  -56.9206 O.2       20 UNK        -0.5000 
    114 N          1.6612  -18.8418  -55.2547 N.am      21 UNK        -0.5000 
    115 CA         1.6867  -17.6049  -56.0394 C.3       21 UNK         0.1400 
    116 CB         1.8795  -16.4212  -55.0782 C.3       21 UNK        -0.1800 
    117 C          0.4465  -17.3730  -56.9277 C.2       21 UNK         0.5000 
    118 O          0.5579  -16.6697  -57.9331 O.2       21 UNK        -0.5000 
    119 N         -0.6925  -17.9714  -56.5609 N.am      22 UNK        -0.5000 
    120 CA        -1.9358  -17.9849  -57.3465 C.3       22 UNK         0.1400 
    121 C         -2.4034  -19.4241  -57.7164 C.2       22 UNK         0.5000 
    122 N         -1.5478  -20.4384  -57.6411 N.am      22 UNK        -0.7600 
    123 O         -3.5469  -19.6269  -58.1153 O.2       22 UNK        -0.5000 
    124 C124       -3.0390  -17.0991  -56.7074 C.3       23 UNK        -0.0398 
    125 S125       -3.5292  -17.6140  -55.0278 S.3       23 UNK        -0.2404 
    126 C126       -2.6664  -16.3777  -54.0123 C.3       23 UNK        -0.0205 
    127 H127        0.8586  -14.0568  -50.1810 H         1 UNK         0.0600 
    128 H128       -0.4869  -15.0888  -50.6667 H         1 UNK         0.0600 
    129 H129        0.9458  -15.7996  -49.9118 H         1 UNK         0.0600 
    130 H130       -2.2024  -15.1526  -49.2157 H         1 UNK         0.3000 
    131 H131       -1.8427  -15.2922  -46.3905 H         1 UNK         0.0600 
    132 H132       -3.6487  -16.5385  -47.2180 H         1 UNK         0.0800 
    133 H133       -4.3713  -15.2644  -46.3080 H         1 UNK         0.0800 
    134 H134       -5.1781  -17.3732  -48.8109 H         1 UNK         0.0800 
    135 H135       -5.8965  -16.5238  -50.1499 H         1 UNK         0.0800 
    136 H136       -4.6178  -15.9567  -52.1528 H         1 UNK         0.1150 
    137 H137       -0.7308  -17.6938  -52.6299 H         1 UNK         0.1150 
    138 H138       -2.7067  -17.8909  -48.8362 H         1 UNK         0.1150 
    139 H139        0.5283  -18.1912  -50.5120 H         1 UNK         0.0800 
    140 H140       -0.3283  -18.4940  -49.0219 H         1 UNK         0.0800 
    141 H141       -2.6326  -21.2342  -50.1171 H         1 UNK         0.0800 
    142 H142       -2.1611  -20.1135  -48.8655 H         1 UNK         0.0800 
    143 H143       -1.2822  -23.0111  -49.1745 H         1 UNK         0.0600 
    144 H144       -0.3008  -21.1837  -47.0182 H         1 UNK         0.3000 
    145 H145        2.2396  -23.4501  -46.3388 H         1 UNK         0.0600 
    146 H146        3.8704  -21.5411  -46.3790 H         1 UNK         0.0600 
    147 H147        3.6041  -22.2008  -47.9860 H         1 UNK         0.0600 
    148 H148        2.8371  -20.6876  -47.5268 H         1 UNK         0.0600 
    149 H149        1.7692  -20.8839  -45.2398 H         1 UNK         0.3000 
    150 H150       -1.2063  -21.4582  -43.4690 H         1 UNK         0.0600 
    151 H151        0.4386  -22.7453  -42.0509 H         1 UNK         0.0600 
    152 H152        0.0742  -21.1541  -41.4113 H         1 UNK         0.0600 
    153 H153        1.5990  -21.4359  -42.2516 H         1 UNK         0.0600 
    154 H154        0.4955  -19.3400  -43.0737 H         1 UNK         0.3000 
    155 H155        0.0251  -17.3643  -46.0013 H         1 UNK         0.0600 
    156 H156       -1.1048  -17.1567  -43.1599 H         1 UNK         0.0600 
    157 H157       -2.0246  -16.9981  -44.6465 H         1 UNK         0.0600 
    158 H158       -0.8084  -15.7923  -44.2340 H         1 UNK         0.0600 
    159 H159        1.3751  -16.7356  -43.6187 H         1 UNK         0.3000 
    160 H160        4.5664  -18.1659  -44.3787 H         1 UNK         0.0600 
    161 H161        3.5234  -15.2887  -44.2436 H         1 UNK         0.0600 
    162 H162        4.4045  -15.9898  -45.5939 H         1 UNK         0.0600 
    163 H163        5.1940  -15.8031  -44.0348 H         1 UNK         0.0600 
    164 H164        3.1765  -16.6648  -42.2461 H         1 UNK         0.3000 
    165 H165        2.8804  -19.4633  -40.1151 H         1 UNK         0.0600 
    166 H166        4.2694  -18.1638  -38.5229 H         1 UNK         0.0600 
    167 H167        5.2904  -18.9150  -39.7383 H         1 UNK         0.0600 
    168 H168        4.9282  -17.1963  -39.8429 H         1 UNK         0.0600 
    169 H169        2.5175  -16.6669  -39.6561 H         1 UNK         0.3000 
    170 H170       -0.7784  -16.4057  -40.9773 H         1 UNK         0.0600 
    171 H171       -1.0441  -17.4914  -38.7381 H         1 UNK         0.0600 
    172 H172        0.2235  -16.4603  -38.0852 H         1 UNK         0.0600 
    173 H173       -1.2887  -15.7549  -38.6571 H         1 UNK         0.0600 
    174 H174        0.5495  -14.4366  -39.6103 H         1 UNK         0.3000 
    175 H175        1.0732  -12.5555  -40.8822 H         1 UNK         0.0600 
    176 H176        3.9342  -13.6408  -41.1842 H         1 UNK         0.0600 
    177 H177        3.5015  -12.0355  -40.5947 H         1 UNK         0.0600 
    178 H178        3.0716  -13.4584  -39.6617 H         1 UNK         0.0600 
    179 H179        2.9320  -12.3600  -43.0279 H         1 UNK         0.3000 
    180 H180        1.8807  -10.9039  -44.9191 H         1 UNK         0.0600 
    181 H181        2.1781  -13.8548  -45.6997 H         1 UNK         0.0600 
    182 H182        3.4437  -12.7962  -45.0911 H         1 UNK         0.0600 
    183 H183        2.7625  -12.5134  -46.6812 H         1 UNK         0.0600 
    184 H184        0.1743  -12.6198  -46.5644 H         1 UNK         0.3000 
    185 H185       -2.6649  -10.6027  -46.4631 H         1 UNK         0.0600 
    186 H186       -1.4092   -9.0426  -47.9516 H         1 UNK         0.0600 
    187 H187       -0.6709  -10.4042  -48.7864 H         1 UNK         0.0600 
    188 H188       -2.4112  -10.1344  -48.8940 H         1 UNK         0.0600 
    189 H189       -1.6272  -12.6040  -48.3046 H         1 UNK         0.3000 
    190 H190       -2.1594  -20.8336  -46.4219 H         1 UNK         0.3000 
    191 H191       -4.8717  -21.4498  -46.4201 H         1 UNK         0.0600 
    192 H192       -3.8895  -19.4195  -45.4132 H         1 UNK         0.0600 
    193 H193       -4.9081  -20.2596  -44.2554 H         1 UNK         0.0600 
    194 H194       -3.1601  -20.3789  -44.1282 H         1 UNK         0.0600 
    195 H195       -2.2742  -23.1678  -44.7178 H         1 UNK         0.3000 
    196 H196       -4.2722  -24.9400  -43.3690 H         1 UNK         0.0600 
    197 H197       -2.3800  -25.6598  -41.9819 H         1 UNK         0.0600 
    198 H198       -2.5302  -23.9112  -41.9020 H         1 UNK         0.0600 
    199 H199       -1.2625  -24.6457  -42.8806 H         1 UNK         0.0600 
    200 H200       -1.3640  -24.9204  -45.4776 H         1 UNK         0.3000 
    201 H201       -1.2439  -27.7385  -45.7642 H         1 UNK         0.0600 
    202 H202        0.7008  -26.1917  -45.9989 H         1 UNK         0.0600 
    203 H203        0.0066  -25.5499  -47.4871 H         1 UNK         0.0600 
    204 H204        0.5295  -27.2258  -47.4111 H         1 UNK         0.0600 
    205 H205       -2.8777  -25.2872  -47.7927 H         1 UNK         0.3000 
    206 H206       -3.7559  -27.4208  -49.7050 H         1 UNK         0.0600 
    207 H207       -1.9178  -25.9627  -50.6266 H         1 UNK         0.0600 
    208 H208       -3.4300  -25.7580  -51.4946 H         1 UNK         0.0600 
    209 H209       -2.9180  -24.5404  -50.3347 H         1 UNK         0.0600 
    210 H210       -4.8728  -25.4594  -47.3404 H         1 UNK         0.3000 
    211 H211       -6.7879  -24.5739  -46.6978 H         1 UNK         0.0600 
    212 H212       -8.1787  -26.0346  -48.9983 H         1 UNK         0.0600 
    213 H213       -8.9300  -25.3965  -47.5447 H         1 UNK         0.0600 
    214 H214       -7.8087  -26.7417  -47.4255 H         1 UNK         0.0600 
    215 H215       -5.0907  -23.0974  -48.3215 H         1 UNK         0.3000 
    216 H216       -4.8439  -21.0156  -48.9663 H         1 UNK         0.0600 
    217 H217       -6.6186  -19.3307  -48.9256 H         1 UNK         0.0600 
    218 H218       -6.7965  -20.3635  -47.5193 H         1 UNK         0.0600 
    219 H219       -7.8680  -20.5568  -48.9053 H         1 UNK         0.0600 
    220 H220       -5.1226  -19.5000  -50.7702 H         1 UNK         0.3000 
    221 H221       -4.9340  -18.9792  -52.8900 H         1 UNK         0.0600 
    222 H222       -7.4327  -20.7026  -53.2946 H         1 UNK         0.0600 
    223 H223       -7.4046  -19.0040  -52.8235 H         1 UNK         0.0600 
    224 H224       -6.8254  -19.4864  -54.4104 H         1 UNK         0.0600 
    225 H225       -2.8804  -20.1959  -52.7689 H         1 UNK         0.3000 
    226 H226       -2.6299  -22.1415  -54.9268 H         1 UNK         0.0600 
    227 H227       -3.0222  -23.5483  -52.8415 H         1 UNK         0.0600 
    228 H228       -1.4241  -23.7896  -53.5160 H         1 UNK         0.0600 
    229 H229       -1.6282  -22.7817  -52.0870 H         1 UNK         0.0600 
    230 H230        0.0121  -22.7360  -54.5988 H         1 UNK         0.3000 
    231 H231        2.0647  -22.0476  -55.0907 H         1 UNK         0.0600 
    232 H232        1.5254  -20.0580  -52.8136 H         1 UNK         0.0600 
    233 H233        3.1168  -20.4996  -53.4289 H         1 UNK         0.0600 
    234 H234        2.1099  -21.7054  -52.6474 H         1 UNK         0.0600 
    235 H235        1.6933  -18.7286  -54.2523 H         1 UNK         0.3000 
    236 H236        2.5534  -17.6568  -56.7011 H         1 UNK         0.0600 
    237 H237        2.8065  -16.5177  -54.5127 H         1 UNK         0.0600 
    238 H238        1.9302  -15.4776  -55.6231 H         1 UNK         0.0600 
    239 H239        1.0569  -16.3452  -54.3657 H         1 UNK         0.0600 
    240 H240       -0.7088  -18.5313  -55.7134 H         1 UNK         0.3000 
    241 H241       -1.7338  -17.5435  -58.3236 H         1 UNK         0.0600 
    242 H242       -1.8553  -21.3581  -57.9136 H         1 UNK         0.3800 
    243 H243       -0.5772  -20.2875  -57.3909 H         1 UNK         0.3800 
    244 H244       -2.7006  -16.0626  -56.6803 H         1 UNK         0.0800 
    245 H245       -3.9315  -17.0925  -57.3349 H         1 UNK         0.0800 
    246 H246       -1.6389  -16.2692  -54.3627 H         1 UNK         0.0800 
    247 H247       -3.1433  -15.4044  -54.1367 H         1 UNK         0.0800 
@<TRIPOS>BOND
     1    1    2 1    
     2    1  127 1    
     3    1  128 1    
     4    1  129 1    
     5    2    3 2    
     6    2    4 am   BACKBONE|DICT|INTERRES
     7    4    5 1    
     8    4  130 1    
     9    5    6 1    
    10    5   65 1    
    11    5  131 1    
    12    6    7 1    
    13    6  132 1    
    14    6  133 1    
    15    7    8 1    
    16    8    9 1    
    17    8  134 1    
    18    8  135 1    
    19    9   10 ar   
    20    9   14 ar   
    21   10   11 ar   
    22   10  136 1    
    23   11   12 ar   
    24   11  126 1    
    25   12   13 ar   
    26   12  137 1    
    27   13   14 ar   
    28   13   15 1    
    29   14  138 1    
    30   15   16 1    
    31   15  139 1    
    32   15  140 1    
    33   16   17 1    
    34   17   18 1    
    35   17  141 1    
    36   17  142 1    
    37   18   19 1    
    38   18   67 1    
    39   18  143 1    
    40   19   20 am   BACKBONE|DICT|INTERRES
    41   19  144 1    
    42   20   21 2    
    43   20   22 1    
    44   22   23 1    
    45   22   24 1    
    46   22  145 1    
    47   23  146 1    
    48   23  147 1    
    49   23  148 1    
    50   24   25 am   BACKBONE|DICT|INTERRES
    51   24  149 1    
    52   25   26 2    
    53   25   27 1    
    54   27   28 1    
    55   27   29 1    
    56   27  150 1    
    57   28  151 1    
    58   28  152 1    
    59   28  153 1    
    60   29   30 am   BACKBONE|DICT|INTERRES
    61   29  154 1    
    62   30   31 2    
    63   30   32 1    
    64   32   33 1    
    65   32   34 1    
    66   32  155 1    
    67   33  156 1    
    68   33  157 1    
    69   33  158 1    
    70   34   35 am   BACKBONE|DICT|INTERRES
    71   34  159 1    
    72   35   36 2    
    73   35   37 1    
    74   37   38 1    
    75   37   39 1    
    76   37  160 1    
    77   38  161 1    
    78   38  162 1    
    79   38  163 1    
    80   39   40 am   BACKBONE|DICT|INTERRES
    81   39  164 1    
    82   40   41 2    
    83   40   42 1    
    84   42   43 1    
    85   42   44 1    
    86   42  165 1    
    87   43  166 1    
    88   43  167 1    
    89   43  168 1    
    90   44   45 am   BACKBONE|DICT|INTERRES
    91   44  169 1    
    92   45   46 2    
    93   45   47 1    
    94   47   48 1    
    95   47   49 1    
    96   47  170 1    
    97   48  171 1    
    98   48  172 1    
    99   48  173 1    
   100   49   50 am   BACKBONE|DICT|INTERRES
   101   49  174 1    
   102   50   51 2    
   103   50   52 1    
   104   52   53 1    
   105   52   54 1    
   106   52  175 1    
   107   53  176 1    
   108   53  177 1    
   109   53  178 1    
   110   54   55 am   BACKBONE|DICT|INTERRES
   111   54  179 1    
   112   55   56 2    
   113   55   57 1    
   114   57   58 1    
   115   57   59 1    
   116   57  180 1    
   117   58  181 1    
   118   58  182 1    
   119   58  183 1    
   120   59   60 am   BACKBONE|DICT|INTERRES
   121   59  184 1    
   122   60   61 2    
   123   60   62 1    
   124   62   63 1    
   125   62   64 1    
   126   62  185 1    
   127   63  186 1    
   128   63  187 1    
   129   63  188 1    
   130   64   65 am   BACKBONE|DICT|INTERRES
   131   64  189 1    
   132   65   66 2    
   133   67   68 2    
   134   67   69 am   BACKBONE|DICT|INTERRES
   135   69   70 1    
   136   69  190 1    
   137   70   71 1    
   138   70   72 1    
   139   70  191 1    
   140   71  192 1    
   141   71  193 1    
   142   71  194 1    
   143   72   73 2    
   144   72   74 am   BACKBONE|DICT|INTERRES
   145   74   75 1    
   146   74  195 1    
   147   75   76 1    
   148   75   77 1    
   149   75  196 1    
   150   76  197 1    
   151   76  198 1    
   152   76  199 1    
   153   77   78 2    
   154   77   79 am   BACKBONE|DICT|INTERRES
   155   79   80 1    
   156   79  200 1    
   157   80   81 1    
   158   80   82 1    
   159   80  201 1    
   160   81  202 1    
   161   81  203 1    
   162   81  204 1    
   163   82   83 2    
   164   82   84 am   BACKBONE|DICT|INTERRES
   165   84   85 1    
   166   84  205 1    
   167   85   86 1    
   168   85   87 1    
   169   85  206 1    
   170   86  207 1    
   171   86  208 1    
   172   86  209 1    
   173   87   88 2    
   174   87   89 am   BACKBONE|DICT|INTERRES
   175   89   90 1    
   176   89  210 1    
   177   90   91 1    
   178   90   92 1    
   179   90  211 1    
   180   91  212 1    
   181   91  213 1    
   182   91  214 1    
   183   92   93 2    
   184   92   94 am   BACKBONE|DICT|INTERRES
   185   94   95 1    
   186   94  215 1    
   187   95   96 1    
   188   95   97 1    
   189   95  216 1    
   190   96  217 1    
   191   96  218 1    
   192   96  219 1    
   193   97   98 2    
   194   97   99 am   BACKBONE|DICT|INTERRES
   195   99  100 1    
   196   99  220 1    
   197  100  101 1    
   198  100  102 1    
   199  100  221 1    
   200  101  222 1    
   201  101  223 1    
   202  101  224 1    
   203  102  103 2    
   204  102  104 am   BACKBONE|DICT|INTERRES
   205  104  105 1    
   206  104  225 1    
   207  105  106 1    
   208  105  107 1    
   209  105  226 1    
   210  106  227 1    
   211  106  228 1    
   212  106  229 1    
   213  107  108 2    
   214  107  109 am   BACKBONE|DICT|INTERRES
   215  109  110 1    
   216  109  230 1    
   217  110  111 1    
   218  110  112 1    
   219  110  231 1    
   220  111  232 1    
   221  111  233 1    
   222  111  234 1    
   223  112  113 2    
   224  112  114 am   BACKBONE|DICT|INTERRES
   225  114  115 1    
   226  114  235 1    
   227  115  116 1    
   228  115  117 1    
   229  115  236 1    
   230  116  237 1    
   231  116  238 1    
   232  116  239 1    
   233  117  118 2    
   234  117  119 am   BACKBONE|DICT|INTERRES
   235  119  120 1    
   236  119  240 1    
   237  120  121 1    
   238  120  124 1    
   239  120  241 1    
   240  121  122 am   BACKBONE|DICT|INTERRES
   241  121  123 2    
   242  122  242 1    
   243  122  243 1    
   244  124  125 1    
   245  124  244 1    
   246  124  245 1    
   247  125  126 1    
   248  126  246 1    
   249  126  247 1    
@<TRIPOS>SUBSTRUCTURE
     1 UNK         1 GROUP             0       ****    0 ROOT    
