@<TRIPOS>MOLECULE
3R540
247   249    1
SMALL
USER_CHARGES


@<TRIPOS>ATOM
      1 CA          2.8189   -9.8710  -49.0204 C.3       0 UNK        -0.1800 
      2 C           2.6036  -11.2042  -48.3208 C.2       0 UNK         0.5000 
      3 O           1.7863  -11.2933  -47.4056 O.2       0 UNK        -0.5000 
      4 N           3.3128  -12.2521  -48.7569 N.am      1 UNK        -0.5000 
      5 CA          3.2626  -13.6107  -48.1968 C.3       1 UNK         0.1400 
      6 C6          4.4329  -14.4975  -48.6932 C.3       23 UNK        -0.0398 
      7 S7          4.7177  -14.4486  -50.4989 S.3       23 UNK        -0.2404 
      8 C8          4.5503  -16.1990  -50.9640 C.3       23 UNK        -0.0205 
      9 C9          3.0939  -16.6045  -51.1112 C.ar      23 UNK        -0.0193 
     10 C10         2.4009  -16.2913  -52.2840 C.ar      23 UNK        -0.1150 
     11 C11         1.0675  -16.6770  -52.4485 C.ar      23 UNK        -0.0193 
     12 C12         0.4260  -17.3661  -51.4157 C.ar      23 UNK        -0.1150 
     13 C13         1.1008  -17.6665  -50.2294 C.ar      23 UNK        -0.0193 
     14 C14         2.4398  -17.2946  -50.0869 C.ar      23 UNK        -0.1150 
     15 C15         0.3711  -18.3655  -49.0949 C.3       23 UNK        -0.0205 
     16 S16         0.5991  -20.1665  -49.1729 S.3       23 UNK        -0.2404 
     17 C17        -0.9078  -20.7367  -48.3238 C.3       23 UNK        -0.0398 
     18 CA         -0.7050  -22.0816  -47.5921 C.3       11 UNK         0.1400 
     19 N           0.1123  -21.9408  -46.3823 N.am      11 UNK        -0.5000 
     20 C           0.5758  -22.9642  -45.6519 C.2       10 UNK         0.5000 
     21 O           0.4186  -24.1455  -45.9581 O.2       10 UNK        -0.5000 
     22 CA          1.2731  -22.6148  -44.3239 C.3       10 UNK         0.1400 
     23 CB          2.7332  -22.1950  -44.5494 C.3       10 UNK        -0.1800 
     24 N           0.5573  -21.5749  -43.5821 N.am      10 UNK        -0.5000 
     25 C          -0.6670  -21.7386  -43.0597 C.2       9 UNK         0.5000 
     26 O          -1.2853  -22.8018  -43.0976 O.2       9 UNK        -0.5000 
     27 CA         -1.3354  -20.5052  -42.4268 C.3       9 UNK         0.1400 
     28 CB         -0.8843  -20.3351  -40.9689 C.3       9 UNK        -0.1800 
     29 N          -1.0845  -19.2735  -43.1772 N.am      9 UNK        -0.5000 
     30 C          -1.5087  -19.0500  -44.4302 C.2       8 UNK         0.5000 
     31 O          -2.2084  -19.8405  -45.0600 O.2       8 UNK        -0.5000 
     32 CA         -1.0209  -17.7635  -45.1219 C.3       8 UNK         0.1400 
     33 CB         -1.8838  -16.5579  -44.7229 C.3       8 UNK        -0.1800 
     34 N           0.3857  -17.4792  -44.8425 N.am      8 UNK        -0.5000 
     35 C           1.4064  -18.2778  -45.1817 C.2       7 UNK         0.5000 
     36 O           1.2672  -19.3242  -45.8135 O.2       7 UNK        -0.5000 
     37 CA          2.8028  -17.8852  -44.6704 C.3       7 UNK         0.1400 
     38 CB          3.4757  -16.8468  -45.5762 C.3       7 UNK        -0.1800 
     39 N           2.7551  -17.3758  -43.3023 N.am      7 UNK        -0.5000 
     40 C           2.5943  -18.1467  -42.2201 C.2       6 UNK         0.5000 
     41 O           2.4920  -19.3733  -42.2624 O.2       6 UNK        -0.5000 
     42 CA          2.5083  -17.4157  -40.8677 C.3       6 UNK         0.1400 
     43 CB          3.9115  -17.0738  -40.3444 C.3       6 UNK        -0.1800 
     44 N           1.7011  -16.1943  -40.9288 N.am      6 UNK        -0.5000 
     45 C           0.3780  -16.1849  -41.1384 C.2       5 UNK         0.5000 
     46 O          -0.2894  -17.1997  -41.3287 O.2       5 UNK        -0.5000 
     47 CA         -0.3206  -14.8144  -41.1641 C.3       5 UNK         0.1400 
     48 CB         -0.5889  -14.3212  -39.7341 C.3       5 UNK        -0.1800 
     49 N           0.3741  -13.7651  -41.9160 N.am      5 UNK        -0.5000 
     50 C           0.7806  -13.8538  -43.1894 C.2       4 UNK         0.5000 
     51 O           0.8251  -14.9026  -43.8324 O.2       4 UNK        -0.5000 
     52 CA          1.1915  -12.5378  -43.8721 C.3       4 UNK         0.1400 
     53 CB          2.6854  -12.5591  -44.2288 C.3       4 UNK        -0.1800 
     54 N           0.4050  -12.2914  -45.0838 N.am      4 UNK        -0.5000 
     55 C          -0.9296  -12.1546  -45.1316 C.2       3 UNK         0.5000 
     56 O          -1.6557  -12.1873  -44.1371 O.2       3 UNK        -0.5000 
     57 CA         -1.5718  -11.9239  -46.5104 C.3       3 UNK         0.1400 
     58 CB         -1.6319  -10.4204  -46.8240 C.3       3 UNK        -0.1800 
     59 N          -0.8443  -12.6010  -47.5837 N.am      3 UNK        -0.5000 
     60 C          -1.2463  -13.7249  -48.1952 C.2       2 UNK         0.5000 
     61 O          -2.2770  -14.3310  -47.9025 O.2       2 UNK        -0.5000 
     62 CA         -0.3644  -14.2593  -49.3442 C.3       2 UNK         0.1400 
     63 CB         -0.9250  -13.8162  -50.7034 C.3       2 UNK        -0.1800 
     64 N           1.0310  -13.8302  -49.2421 N.am      2 UNK        -0.5000 
     65 C           1.8872  -14.3047  -48.3278 C.2       1 UNK         0.5000 
     66 O           1.6044  -15.2242  -47.5627 O.2       1 UNK        -0.5000 
     67 C          -2.0621  -22.7614  -47.3049 C.2       11 UNK         0.5000 
     68 O          -2.4909  -23.6074  -48.0912 O.2       11 UNK        -0.5000 
     69 N          -2.6985  -22.4219  -46.1756 N.am      12 UNK        -0.5000 
     70 CA         -3.9410  -23.0416  -45.7177 C.3       12 UNK         0.1400 
     71 CB         -4.5391  -22.2297  -44.5601 C.3       12 UNK        -0.1800 
     72 C          -3.7552  -24.5179  -45.3277 C.2       12 UNK         0.5000 
     73 O          -4.5853  -25.3456  -45.7023 O.2       12 UNK        -0.5000 
     74 N          -2.6504  -24.8344  -44.6369 N.am      13 UNK        -0.5000 
     75 CA         -2.2482  -26.1998  -44.2865 C.3       13 UNK         0.1400 
     76 CB         -1.0569  -26.1531  -43.3181 C.3       13 UNK        -0.1800 
     77 C          -1.9178  -27.0615  -45.5211 C.2       13 UNK         0.5000 
     78 O          -2.2515  -28.2465  -45.5434 O.2       13 UNK        -0.5000 
     79 N          -1.3082  -26.4409  -46.5404 N.am      14 UNK        -0.5000 
     80 CA         -1.0408  -27.0354  -47.8524 C.3       14 UNK         0.1400 
     81 CB          0.0334  -26.1981  -48.5648 C.3       14 UNK        -0.1800 
     82 C          -2.2972  -27.1657  -48.7408 C.2       14 UNK         0.5000 
     83 O          -2.2319  -27.8433  -49.7672 O.2       14 UNK        -0.5000 
     84 N          -3.4021  -26.5176  -48.3403 N.am      15 UNK        -0.5000 
     85 CA         -4.6946  -26.4285  -49.0231 C.3       15 UNK         0.1400 
     86 CB         -5.3863  -27.8065  -49.0757 C.3       15 UNK        -0.1800 
     87 C          -4.5792  -25.7472  -50.4011 C.2       15 UNK         0.5000 
     88 O          -5.0558  -26.2832  -51.4042 O.2       15 UNK        -0.5000 
     89 N          -3.9339  -24.5726  -50.4242 N.am      16 UNK        -0.5000 
     90 CA         -3.6467  -23.7579  -51.6086 C.3       16 UNK         0.1400 
     91 CB         -2.5628  -22.7340  -51.2379 C.3       16 UNK        -0.1800 
     92 C          -4.8949  -23.0839  -52.2256 C.2       16 UNK         0.5000 
     93 O          -4.9643  -21.8550  -52.2968 O.2       16 UNK        -0.5000 
     94 N          -5.8539  -23.9119  -52.6603 N.am      17 UNK        -0.5000 
     95 CA         -7.0753  -23.5835  -53.4049 C.3       17 UNK         0.1400 
     96 CB         -6.7252  -23.1566  -54.8438 C.3       17 UNK        -0.1800 
     97 C          -8.0038  -22.5783  -52.6904 C.2       17 UNK         0.5000 
     98 O          -8.6056  -21.7261  -53.3457 O.2       17 UNK        -0.5000 
     99 N          -8.1122  -22.7244  -51.3612 N.am      18 UNK        -0.5000 
    100 CA        -8.9333  -21.9335  -50.4367 C.3       18 UNK         0.1400 
    101 CB       -10.4314  -22.2143  -50.6814 C.3       18 UNK        -0.1800 
    102 C         -8.5980  -20.4207  -50.4783 C.2       18 UNK         0.5000 
    103 O         -9.3780  -19.6398  -51.0236 O.2       18 UNK        -0.5000 
    104 N         -7.4600  -19.9753  -49.9284 N.am      19 UNK        -0.5000 
    105 CA        -6.4562  -20.7356  -49.1788 C.3       19 UNK         0.1400 
    106 CB        -6.8879  -20.8263  -47.7003 C.3       19 UNK        -0.1800 
    107 C         -5.0575  -20.1051  -49.3245 C.2       19 UNK         0.5000 
    108 O         -4.2003  -20.3396  -48.4740 O.2       19 UNK        -0.5000 
    109 N         -4.8453  -19.3017  -50.3752 N.am      20 UNK        -0.5000 
    110 CA        -3.6046  -18.5665  -50.6144 C.3       20 UNK         0.1400 
    111 CB        -3.5531  -17.2986  -49.7353 C.3       20 UNK        -0.1800 
    112 C         -3.4068  -18.2773  -52.1110 C.2       20 UNK         0.5000 
    113 O         -2.9899  -17.1761  -52.4720 O.2       20 UNK        -0.5000 
    114 N         -3.7003  -19.2646  -52.9663 N.am      21 UNK        -0.5000 
    115 CA        -3.3407  -19.2270  -54.3844 C.3       21 UNK         0.1400 
    116 CB        -4.2462  -20.1942  -55.1580 C.3       21 UNK        -0.1800 
    117 C         -1.8623  -19.6130  -54.5770 C.2       21 UNK         0.5000 
    118 O         -1.3319  -20.4126  -53.8030 O.2       21 UNK        -0.5000 
    119 N         -1.2317  -19.0716  -55.6227 N.am      22 UNK        -0.5000 
    120 CA         0.1606  -19.3750  -55.9954 C.3       22 UNK         0.1400 
    121 C          0.4451  -19.2669  -57.5227 C.2       22 UNK         0.5000 
    122 N         -0.5632  -19.1777  -58.3831 N.am      22 UNK        -0.7600 
    123 O          1.5979  -19.2918  -57.9457 O.2       22 UNK        -0.5000 
    124 C124        1.1966  -18.6383  -55.1012 C.3       23 UNK        -0.0398 
    125 S125        1.1605  -16.8170  -55.2512 S.3       23 UNK        -0.2404 
    126 C126        0.3027  -16.3232  -53.7199 C.3       23 UNK        -0.0205 
    127 H127        1.8814   -9.5178  -49.4495 H         1 UNK         0.0600 
    128 H128        3.5539   -9.9479  -49.8219 H         1 UNK         0.0600 
    129 H129        3.1698   -9.1267  -48.3058 H         1 UNK         0.0600 
    130 H130        3.9533  -12.1337  -49.5300 H         1 UNK         0.3000 
    131 H131        3.4110  -13.4936  -47.1227 H         1 UNK         0.0600 
    132 H132        5.3548  -14.1537  -48.2225 H         1 UNK         0.0800 
    133 H133        4.3114  -15.5276  -48.3550 H         1 UNK         0.0800 
    134 H134        5.0620  -16.8324  -50.2377 H         1 UNK         0.0800 
    135 H135        5.0632  -16.3573  -51.9139 H         1 UNK         0.0800 
    136 H136        2.9027  -15.7482  -53.0725 H         1 UNK         0.1150 
    137 H137       -0.6064  -17.6588  -51.5274 H         1 UNK         0.1150 
    138 H138        2.9640  -17.5305  -49.1717 H         1 UNK         0.1150 
    139 H139        0.7294  -17.9920  -48.1350 H         1 UNK         0.0800 
    140 H140       -0.6910  -18.1232  -49.1386 H         1 UNK         0.0800 
    141 H141       -1.6737  -20.8270  -49.0908 H         1 UNK         0.0800 
    142 H142       -1.2630  -19.9744  -47.6292 H         1 UNK         0.0800 
    143 H143       -0.1667  -22.7507  -48.2666 H         1 UNK         0.0600 
    144 H144        0.3404  -20.9929  -46.0942 H         1 UNK         0.3000 
    145 H145        1.2787  -23.5160  -43.7072 H         1 UNK         0.0600 
    146 H146        3.2295  -21.9713  -43.6048 H         1 UNK         0.0600 
    147 H147        3.2954  -22.9954  -45.0317 H         1 UNK         0.0600 
    148 H148        2.8126  -21.3140  -45.1850 H         1 UNK         0.0600 
    149 H149        1.0119  -20.6748  -43.4966 H         1 UNK         0.3000 
    150 H150       -2.4132  -20.6785  -42.4261 H         1 UNK         0.0600 
    151 H151       -1.0524  -21.2490  -40.3977 H         1 UNK         0.0600 
    152 H152       -1.4412  -19.5386  -40.4756 H         1 UNK         0.0600 
    153 H153        0.1770  -20.0944  -40.9006 H         1 UNK         0.0600 
    154 H154       -0.5651  -18.5467  -42.6933 H         1 UNK         0.3000 
    155 H155       -1.1203  -17.9062  -46.1997 H         1 UNK         0.0600 
    156 H156       -2.9345  -16.7361  -44.9544 H         1 UNK         0.0600 
    157 H157       -1.5792  -15.6606  -45.2630 H         1 UNK         0.0600 
    158 H158       -1.8110  -16.3470  -43.6560 H         1 UNK         0.0600 
    159 H159        0.5864  -16.6003  -44.3677 H         1 UNK         0.3000 
    160 H160        3.4198  -18.7864  -44.6864 H         1 UNK         0.0600 
    161 H161        2.9906  -15.8746  -45.4939 H         1 UNK         0.0600 
    162 H162        3.4355  -17.1544  -46.6217 H         1 UNK         0.0600 
    163 H163        4.5254  -16.7172  -45.3130 H         1 UNK         0.0600 
    164 H164        2.7521  -16.3723  -43.1892 H         1 UNK         0.3000 
    165 H165        2.0376  -18.0965  -40.1549 H         1 UNK         0.0600 
    166 H166        3.8643  -16.6346  -39.3478 H         1 UNK         0.0600 
    167 H167        4.5305  -17.9694  -40.2747 H         1 UNK         0.0600 
    168 H168        4.4263  -16.3689  -40.9984 H         1 UNK         0.0600 
    169 H169        2.1784  -15.3150  -40.7950 H         1 UNK         0.3000 
    170 H170       -1.2867  -14.9597  -41.6514 H         1 UNK         0.0600 
    171 H171       -1.2052  -13.4219  -39.7355 H         1 UNK         0.0600 
    172 H172       -1.1211  -15.0757  -39.1529 H         1 UNK         0.0600 
    173 H173        0.3377  -14.0930  -39.2060 H         1 UNK         0.0600 
    174 H174        0.3933  -12.8570  -41.4753 H         1 UNK         0.3000 
    175 H175        1.0133  -11.7052  -43.1889 H         1 UNK         0.0600 
    176 H176        2.9294  -13.4010  -44.8762 H         1 UNK         0.0600 
    177 H177        2.9863  -11.6433  -44.7381 H         1 UNK         0.0600 
    178 H178        3.2981  -12.6503  -43.3313 H         1 UNK         0.0600 
    179 H179        0.9300  -12.1794  -45.9447 H         1 UNK         0.3000 
    180 H180       -2.5980  -12.2937  -46.4590 H         1 UNK         0.0600 
    181 H181       -0.6359   -9.9799  -46.8853 H         1 UNK         0.0600 
    182 H182       -2.1824   -9.8818  -46.0516 H         1 UNK         0.0600 
    183 H183       -2.1381  -10.2365  -47.7717 H         1 UNK         0.0600 
    184 H184        0.0447  -12.1897  -47.8447 H         1 UNK         0.3000 
    185 H185       -0.3964  -15.3495  -49.3027 H         1 UNK         0.0600 
    186 H186       -0.3264  -14.2113  -51.5233 H         1 UNK         0.0600 
    187 H187       -1.9438  -14.1807  -50.8420 H         1 UNK         0.0600 
    188 H188       -0.9467  -12.7297  -50.7961 H         1 UNK         0.0600 
    189 H189        1.3323  -13.0814  -49.8476 H         1 UNK         0.3000 
    190 H190       -2.3409  -21.6477  -45.6225 H         1 UNK         0.3000 
    191 H191       -4.6461  -23.0146  -46.5499 H         1 UNK         0.0600 
    192 H192       -4.7223  -21.1971  -44.8583 H         1 UNK         0.0600 
    193 H193       -5.4929  -22.6510  -44.2408 H         1 UNK         0.0600 
    194 H194       -3.8793  -22.2161  -43.6932 H         1 UNK         0.0600 
    195 H195       -2.0443  -24.0848  -44.3139 H         1 UNK         0.3000 
    196 H196       -3.0867  -26.6710  -43.7696 H         1 UNK         0.0600 
    197 H197       -0.7563  -27.1580  -43.0195 H         1 UNK         0.0600 
    198 H198       -1.3089  -25.6052  -42.4100 H         1 UNK         0.0600 
    199 H199       -0.1894  -25.6708  -43.7689 H         1 UNK         0.0600 
    200 H200       -0.9937  -25.4846  -46.4066 H         1 UNK         0.3000 
    201 H201       -0.6430  -28.0406  -47.7000 H         1 UNK         0.0600 
    202 H202        0.9438  -26.1331  -47.9687 H         1 UNK         0.0600 
    203 H203       -0.3132  -25.1830  -48.7591 H         1 UNK         0.0600 
    204 H204        0.3043  -26.6409  -49.5240 H         1 UNK         0.0600 
    205 H205       -3.3337  -25.9766  -47.4882 H         1 UNK         0.3000 
    206 H206       -5.3175  -25.7741  -48.4118 H         1 UNK         0.0600 
    207 H207       -5.4708  -28.2412  -48.0797 H         1 UNK         0.0600 
    208 H208       -6.3960  -27.7200  -49.4787 H         1 UNK         0.0600 
    209 H209       -4.8436  -28.5124  -49.7049 H         1 UNK         0.0600 
    210 H210       -3.5355  -24.2308  -49.5521 H         1 UNK         0.3000 
    211 H211       -3.2293  -24.4148  -52.3742 H         1 UNK         0.0600 
    212 H212       -2.2518  -22.1601  -52.1097 H         1 UNK         0.0600 
    213 H213       -1.6739  -23.2192  -50.8344 H         1 UNK         0.0600 
    214 H214       -2.9317  -22.0295  -50.4942 H         1 UNK         0.0600 
    215 H215       -5.7055  -24.9017  -52.4745 H         1 UNK         0.3000 
    216 H216       -7.6413  -24.5136  -53.4725 H         1 UNK         0.0600 
    217 H217       -7.6217  -23.0872  -55.4608 H         1 UNK         0.0600 
    218 H218       -6.2417  -22.1820  -54.8627 H         1 UNK         0.0600 
    219 H219       -6.0583  -23.8746  -55.3211 H         1 UNK         0.0600 
    220 H220       -7.5603  -23.4556  -50.9372 H         1 UNK         0.3000 
    221 H221       -8.7148  -22.2984  -49.4343 H         1 UNK         0.0600 
    222 H222      -10.7521  -21.8997  -51.6750 H         1 UNK         0.0600 
    223 H223      -10.6539  -23.2766  -50.5806 H         1 UNK         0.0600 
    224 H224      -11.0493  -21.6835  -49.9563 H         1 UNK         0.0600 
    225 H225       -7.2809  -18.9824  -49.9697 H         1 UNK         0.3000 
    226 H226       -6.3628  -21.7431  -49.5837 H         1 UNK         0.0600 
    227 H227       -7.8730  -21.2752  -47.5830 H         1 UNK         0.0600 
    228 H228       -6.1926  -21.4320  -47.1217 H         1 UNK         0.0600 
    229 H229       -6.9197  -19.8395  -47.2371 H         1 UNK         0.0600 
    230 H230       -5.5609  -19.2136  -51.0837 H         1 UNK         0.3000 
    231 H231       -2.7618  -19.2008  -50.3369 H         1 UNK         0.0600 
    232 H232       -4.3866  -16.6298  -49.9510 H         1 UNK         0.0600 
    233 H233       -2.6321  -16.7376  -49.8982 H         1 UNK         0.0600 
    234 H234       -3.5889  -17.5476  -48.6746 H         1 UNK         0.0600 
    235 H235       -4.0327  -20.1578  -52.6122 H         1 UNK         0.3000 
    236 H236       -3.5019  -18.2192  -54.7733 H         1 UNK         0.0600 
    237 H237       -5.2988  -19.9600  -54.9983 H         1 UNK         0.0600 
    238 H238       -4.0577  -20.1354  -56.2305 H         1 UNK         0.0600 
    239 H239       -4.0775  -21.2274  -54.8524 H         1 UNK         0.0600 
    240 H240       -1.7046  -18.3956  -56.2047 H         1 UNK         0.3000 
    241 H241        0.3062  -20.4406  -55.8079 H         1 UNK         0.0600 
    242 H242       -1.5227  -19.2311  -58.0831 H         1 UNK         0.3800 
    243 H243       -0.3577  -19.1159  -59.3685 H         1 UNK         0.3800 
    244 H244        2.2063  -18.9740  -55.3418 H         1 UNK         0.0800 
    245 H245        1.0470  -18.9221  -54.0592 H         1 UNK         0.0800 
    246 H246       -0.6879  -16.7781  -53.7163 H         1 UNK         0.0800 
    247 H247        0.1442  -15.2447  -53.7422 H         1 UNK         0.0800 
@<TRIPOS>BOND
     1    1    2 1    
     2    1  127 1    
     3    1  128 1    
     4    1  129 1    
     5    2    3 2    
     6    2    4 am   BACKBONE|DICT|INTERRES
     7    4    5 1    
     8    4  130 1    
     9    5    6 1    
    10    5   65 1    
    11    5  131 1    
    12    6    7 1    
    13    6  132 1    
    14    6  133 1    
    15    7    8 1    
    16    8    9 1    
    17    8  134 1    
    18    8  135 1    
    19    9   10 ar   
    20    9   14 ar   
    21   10   11 ar   
    22   10  136 1    
    23   11   12 ar   
    24   11  126 1    
    25   12   13 ar   
    26   12  137 1    
    27   13   14 ar   
    28   13   15 1    
    29   14  138 1    
    30   15   16 1    
    31   15  139 1    
    32   15  140 1    
    33   16   17 1    
    34   17   18 1    
    35   17  141 1    
    36   17  142 1    
    37   18   19 1    
    38   18   67 1    
    39   18  143 1    
    40   19   20 am   BACKBONE|DICT|INTERRES
    41   19  144 1    
    42   20   21 2    
    43   20   22 1    
    44   22   23 1    
    45   22   24 1    
    46   22  145 1    
    47   23  146 1    
    48   23  147 1    
    49   23  148 1    
    50   24   25 am   BACKBONE|DICT|INTERRES
    51   24  149 1    
    52   25   26 2    
    53   25   27 1    
    54   27   28 1    
    55   27   29 1    
    56   27  150 1    
    57   28  151 1    
    58   28  152 1    
    59   28  153 1    
    60   29   30 am   BACKBONE|DICT|INTERRES
    61   29  154 1    
    62   30   31 2    
    63   30   32 1    
    64   32   33 1    
    65   32   34 1    
    66   32  155 1    
    67   33  156 1    
    68   33  157 1    
    69   33  158 1    
    70   34   35 am   BACKBONE|DICT|INTERRES
    71   34  159 1    
    72   35   36 2    
    73   35   37 1    
    74   37   38 1    
    75   37   39 1    
    76   37  160 1    
    77   38  161 1    
    78   38  162 1    
    79   38  163 1    
    80   39   40 am   BACKBONE|DICT|INTERRES
    81   39  164 1    
    82   40   41 2    
    83   40   42 1    
    84   42   43 1    
    85   42   44 1    
    86   42  165 1    
    87   43  166 1    
    88   43  167 1    
    89   43  168 1    
    90   44   45 am   BACKBONE|DICT|INTERRES
    91   44  169 1    
    92   45   46 2    
    93   45   47 1    
    94   47   48 1    
    95   47   49 1    
    96   47  170 1    
    97   48  171 1    
    98   48  172 1    
    99   48  173 1    
   100   49   50 am   BACKBONE|DICT|INTERRES
   101   49  174 1    
   102   50   51 2    
   103   50   52 1    
   104   52   53 1    
   105   52   54 1    
   106   52  175 1    
   107   53  176 1    
   108   53  177 1    
   109   53  178 1    
   110   54   55 am   BACKBONE|DICT|INTERRES
   111   54  179 1    
   112   55   56 2    
   113   55   57 1    
   114   57   58 1    
   115   57   59 1    
   116   57  180 1    
   117   58  181 1    
   118   58  182 1    
   119   58  183 1    
   120   59   60 am   BACKBONE|DICT|INTERRES
   121   59  184 1    
   122   60   61 2    
   123   60   62 1    
   124   62   63 1    
   125   62   64 1    
   126   62  185 1    
   127   63  186 1    
   128   63  187 1    
   129   63  188 1    
   130   64   65 am   BACKBONE|DICT|INTERRES
   131   64  189 1    
   132   65   66 2    
   133   67   68 2    
   134   67   69 am   BACKBONE|DICT|INTERRES
   135   69   70 1    
   136   69  190 1    
   137   70   71 1    
   138   70   72 1    
   139   70  191 1    
   140   71  192 1    
   141   71  193 1    
   142   71  194 1    
   143   72   73 2    
   144   72   74 am   BACKBONE|DICT|INTERRES
   145   74   75 1    
   146   74  195 1    
   147   75   76 1    
   148   75   77 1    
   149   75  196 1    
   150   76  197 1    
   151   76  198 1    
   152   76  199 1    
   153   77   78 2    
   154   77   79 am   BACKBONE|DICT|INTERRES
   155   79   80 1    
   156   79  200 1    
   157   80   81 1    
   158   80   82 1    
   159   80  201 1    
   160   81  202 1    
   161   81  203 1    
   162   81  204 1    
   163   82   83 2    
   164   82   84 am   BACKBONE|DICT|INTERRES
   165   84   85 1    
   166   84  205 1    
   167   85   86 1    
   168   85   87 1    
   169   85  206 1    
   170   86  207 1    
   171   86  208 1    
   172   86  209 1    
   173   87   88 2    
   174   87   89 am   BACKBONE|DICT|INTERRES
   175   89   90 1    
   176   89  210 1    
   177   90   91 1    
   178   90   92 1    
   179   90  211 1    
   180   91  212 1    
   181   91  213 1    
   182   91  214 1    
   183   92   93 2    
   184   92   94 am   BACKBONE|DICT|INTERRES
   185   94   95 1    
   186   94  215 1    
   187   95   96 1    
   188   95   97 1    
   189   95  216 1    
   190   96  217 1    
   191   96  218 1    
   192   96  219 1    
   193   97   98 2    
   194   97   99 am   BACKBONE|DICT|INTERRES
   195   99  100 1    
   196   99  220 1    
   197  100  101 1    
   198  100  102 1    
   199  100  221 1    
   200  101  222 1    
   201  101  223 1    
   202  101  224 1    
   203  102  103 2    
   204  102  104 am   BACKBONE|DICT|INTERRES
   205  104  105 1    
   206  104  225 1    
   207  105  106 1    
   208  105  107 1    
   209  105  226 1    
   210  106  227 1    
   211  106  228 1    
   212  106  229 1    
   213  107  108 2    
   214  107  109 am   BACKBONE|DICT|INTERRES
   215  109  110 1    
   216  109  230 1    
   217  110  111 1    
   218  110  112 1    
   219  110  231 1    
   220  111  232 1    
   221  111  233 1    
   222  111  234 1    
   223  112  113 2    
   224  112  114 am   BACKBONE|DICT|INTERRES
   225  114  115 1    
   226  114  235 1    
   227  115  116 1    
   228  115  117 1    
   229  115  236 1    
   230  116  237 1    
   231  116  238 1    
   232  116  239 1    
   233  117  118 2    
   234  117  119 am   BACKBONE|DICT|INTERRES
   235  119  120 1    
   236  119  240 1    
   237  120  121 1    
   238  120  124 1    
   239  120  241 1    
   240  121  122 am   BACKBONE|DICT|INTERRES
   241  121  123 2    
   242  122  242 1    
   243  122  243 1    
   244  124  125 1    
   245  124  244 1    
   246  124  245 1    
   247  125  126 1    
   248  126  246 1    
   249  126  247 1    
@<TRIPOS>SUBSTRUCTURE
     1 UNK         1 GROUP             0       ****    0 ROOT    
