@<TRIPOS>MOLECULE
3R540
247   249    1
SMALL
USER_CHARGES


@<TRIPOS>ATOM
      1 CA          2.6744   -9.2779  -46.6522 C.3       0 UNK        -0.1800 
      2 C           1.9458  -10.5988  -46.8496 C.2       0 UNK         0.5000 
      3 O           0.7147  -10.6180  -46.8770 O.2       0 UNK        -0.5000 
      4 N           2.6985  -11.7024  -46.9714 N.am      1 UNK        -0.5000 
      5 CA          2.2055  -13.0767  -47.1243 C.3       1 UNK         0.1400 
      6 C6          1.5657  -13.3210  -48.5202 C.3       23 UNK        -0.0398 
      7 S7          1.3022  -15.0921  -48.8808 S.3       23 UNK        -0.2404 
      8 C8          2.6130  -15.4246  -50.0943 C.3       23 UNK        -0.0205 
      9 C9          2.6205  -16.8863  -50.5191 C.ar      23 UNK        -0.0193 
     10 C10         1.8722  -17.3056  -51.6240 C.ar      23 UNK        -0.1150 
     11 C11         1.8960  -18.6431  -52.0379 C.ar      23 UNK        -0.0193 
     12 C12         2.6987  -19.5546  -51.3424 C.ar      23 UNK        -0.1150 
     13 C13         3.4593  -19.1492  -50.2403 C.ar      23 UNK        -0.0193 
     14 C14         3.4038  -17.8145  -49.8272 C.ar      23 UNK        -0.1150 
     15 C15         4.4050  -20.1231  -49.5418 C.3       23 UNK        -0.0205 
     16 S16         3.6171  -21.6778  -49.0056 S.3       23 UNK        -0.2404 
     17 C17         2.5348  -21.0964  -47.6591 C.3       23 UNK        -0.0398 
     18 CA          1.1329  -21.7510  -47.6868 C.3       11 UNK         0.1400 
     19 N           0.4313  -21.5794  -46.4101 N.am      11 UNK        -0.5000 
     20 C          -0.7606  -22.1137  -46.1079 C.2       10 UNK         0.5000 
     21 O          -1.3761  -22.8732  -46.8552 O.2       10 UNK        -0.5000 
     22 CA         -1.3961  -21.6897  -44.7717 C.3       10 UNK         0.1400 
     23 CB         -0.8169  -22.5005  -43.6036 C.3       10 UNK        -0.1800 
     24 N          -1.2344  -20.2592  -44.5106 N.am      10 UNK        -0.5000 
     25 C          -1.8148  -19.2875  -45.2301 C.2       9 UNK         0.5000 
     26 O          -2.6154  -19.4947  -46.1408 O.2       9 UNK        -0.5000 
     27 CA         -1.4009  -17.8410  -44.9012 C.3       9 UNK         0.1400 
     28 CB         -2.1863  -17.3205  -43.6850 C.3       9 UNK        -0.1800 
     29 N           0.0427  -17.7056  -44.6779 N.am      9 UNK        -0.5000 
     30 C           0.9736  -17.9605  -45.6112 C.2       8 UNK         0.5000 
     31 O           0.7043  -18.2652  -46.7699 O.2       8 UNK        -0.5000 
     32 CA          2.4485  -17.9545  -45.1709 C.3       8 UNK         0.1400 
     33 CB          3.0732  -16.5607  -45.2885 C.3       8 UNK        -0.1800 
     34 N           2.6180  -18.4603  -43.8114 N.am      8 UNK        -0.5000 
     35 C           2.4686  -19.7468  -43.4672 C.2       7 UNK         0.5000 
     36 O           2.2303  -20.6456  -44.2733 O.2       7 UNK        -0.5000 
     37 CA          2.5389  -20.0656  -41.9630 C.3       7 UNK         0.1400 
     38 CB          3.9979  -20.1994  -41.5027 C.3       7 UNK        -0.1800 
     39 N           1.8639  -19.0475  -41.1557 N.am      7 UNK        -0.5000 
     40 C           0.5451  -18.8071  -41.1937 C.2       6 UNK         0.5000 
     41 O          -0.2463  -19.4783  -41.8547 O.2       6 UNK        -0.5000 
     42 CA          0.0340  -17.5876  -40.4026 C.3       6 UNK         0.1400 
     43 CB         -0.4023  -18.0064  -38.9912 C.3       6 UNK        -0.1800 
     44 N           1.0294  -16.5163  -40.3053 N.am      6 UNK        -0.5000 
     45 C           1.4457  -15.7655  -41.3339 C.2       5 UNK         0.5000 
     46 O           1.0120  -15.8731  -42.4826 O.2       5 UNK        -0.5000 
     47 CA          2.6020  -14.8047  -41.0343 C.3       5 UNK         0.1400 
     48 CB          3.9503  -15.4875  -41.3304 C.3       5 UNK        -0.1800 
     49 N           2.4894  -13.5759  -41.8175 N.am      5 UNK        -0.5000 
     50 C           3.0187  -12.4037  -41.4376 C.2       4 UNK         0.5000 
     51 O           3.6197  -12.2432  -40.3740 O.2       4 UNK        -0.5000 
     52 CA          2.8629  -11.2029  -42.3843 C.3       4 UNK         0.1400 
     53 CB          3.9706  -11.2047  -43.4501 C.3       4 UNK        -0.1800 
     54 N           1.5548  -11.1808  -43.0346 N.am      4 UNK        -0.5000 
     55 C           0.4831  -10.5296  -42.5601 C.2       3 UNK         0.5000 
     56 O           0.4902   -9.8833  -41.5115 O.2       3 UNK        -0.5000 
     57 CA         -0.8138  -10.5830  -43.3924 C.3       3 UNK         0.1400 
     58 CB         -1.0135   -9.2664  -44.1592 C.3       3 UNK        -0.1800 
     59 N          -0.8319  -11.6949  -44.3421 N.am      3 UNK        -0.5000 
     60 C          -1.1316  -12.9590  -44.0111 C.2       2 UNK         0.5000 
     61 O          -1.5106  -13.2973  -42.8898 O.2       2 UNK        -0.5000 
     62 CA         -0.9632  -14.0313  -45.1063 C.3       2 UNK         0.1400 
     63 CB         -2.3105  -14.3150  -45.7880 C.3       2 UNK        -0.1800 
     64 N           0.0217  -13.6971  -46.1347 N.am      2 UNK        -0.5000 
     65 C           1.3199  -13.4542  -45.9136 C.2       1 UNK         0.5000 
     66 O           1.8239  -13.4627  -44.7898 O.2       1 UNK        -0.5000 
     67 C           0.2900  -21.2536  -48.8812 C.2       11 UNK         0.5000 
     68 O           0.1781  -21.9573  -49.8821 O.2       11 UNK        -0.5000 
     69 N          -0.3262  -20.0775  -48.7224 N.am      12 UNK        -0.5000 
     70 CA         -1.1535  -19.4144  -49.7249 C.3       12 UNK         0.1400 
     71 CB         -1.1397  -17.9055  -49.4402 C.3       12 UNK        -0.1800 
     72 C          -2.5985  -19.9429  -49.8219 C.2       12 UNK         0.5000 
     73 O          -3.3909  -19.3486  -50.5536 O.2       12 UNK        -0.5000 
     74 N          -2.9422  -21.0200  -49.1052 N.am      13 UNK        -0.5000 
     75 CA         -4.2618  -21.6373  -49.1549 C.3       13 UNK         0.1400 
     76 CB         -5.2492  -20.8861  -48.2383 C.3       13 UNK        -0.1800 
     77 C          -4.1483  -23.1327  -48.8484 C.2       13 UNK         0.5000 
     78 O          -3.9560  -23.9209  -49.7742 O.2       13 UNK        -0.5000 
     79 N          -4.2704  -23.4859  -47.5606 N.am      14 UNK        -0.5000 
     80 CA         -4.3786  -24.8384  -47.0021 C.3       14 UNK         0.1400 
     81 CB         -4.2646  -24.7532  -45.4724 C.3       14 UNK        -0.1800 
     82 C          -3.3886  -25.8836  -47.5505 C.2       14 UNK         0.5000 
     83 O          -3.7796  -27.0372  -47.7321 O.2       14 UNK        -0.5000 
     84 N          -2.1550  -25.4607  -47.8571 N.am      15 UNK        -0.5000 
     85 CA         -1.1016  -26.2768  -48.4689 C.3       15 UNK         0.1400 
     86 CB          0.1833  -25.4433  -48.5618 C.3       15 UNK        -0.1800 
     87 C          -1.4603  -26.8760  -49.8477 C.2       15 UNK         0.5000 
     88 O          -0.8868  -27.9019  -50.2168 O.2       15 UNK        -0.5000 
     89 N          -2.4098  -26.2612  -50.5656 N.am      16 UNK        -0.5000 
     90 CA         -3.0101  -26.7876  -51.7943 C.3       16 UNK         0.1400 
     91 CB         -2.3999  -26.0879  -53.0215 C.3       16 UNK        -0.1800 
     92 C          -4.5458  -26.6690  -51.7360 C.2       16 UNK         0.5000 
     93 O          -5.1945  -26.5394  -52.7759 O.2       16 UNK        -0.5000 
     94 N          -5.0943  -26.7168  -50.5126 N.am      17 UNK        -0.5000 
     95 CA         -6.4964  -26.5734  -50.1129 C.3       17 UNK         0.1400 
     96 CB         -7.3632  -27.7119  -50.6850 C.3       17 UNK        -0.1800 
     97 C          -7.1120  -25.1908  -50.4083 C.2       17 UNK         0.5000 
     98 O          -7.5623  -24.5201  -49.4784 O.2       17 UNK        -0.5000 
     99 N          -7.1581  -24.8061  -51.6872 N.am      18 UNK        -0.5000 
    100 CA        -7.8308  -23.6076  -52.1752 C.3       18 UNK         0.1400 
    101 CB        -8.3407  -23.8718  -53.6005 C.3       18 UNK        -0.1800 
    102 C         -6.9004  -22.3868  -52.1674 C.2       18 UNK         0.5000 
    103 O         -5.7606  -22.4731  -52.6307 O.2       18 UNK        -0.5000 
    104 N         -7.4358  -21.2418  -51.7251 N.am      19 UNK        -0.5000 
    105 CA        -6.7791  -19.9342  -51.8099 C.3       19 UNK         0.1400 
    106 CB        -7.5527  -18.9192  -50.9562 C.3       19 UNK        -0.1800 
    107 C         -6.6400  -19.4365  -53.2611 C.2       19 UNK         0.5000 
    108 O         -5.6539  -18.7777  -53.5870 O.2       19 UNK        -0.5000 
    109 N         -7.6016  -19.8056  -54.1209 N.am      20 UNK        -0.5000 
    110 CA        -7.6087  -19.5052  -55.5560 C.3       20 UNK         0.1400 
    111 CB        -8.9766  -19.8902  -56.1395 C.3       20 UNK        -0.1800 
    112 C         -6.4756  -20.2050  -56.3336 C.2       20 UNK         0.5000 
    113 O         -6.0159  -19.6748  -57.3452 O.2       20 UNK        -0.5000 
    114 N         -6.0341  -21.3676  -55.8352 N.am      21 UNK        -0.5000 
    115 CA        -4.8936  -22.1236  -56.3558 C.3       21 UNK         0.1400 
    116 CB        -5.1371  -23.6177  -56.0828 C.3       21 UNK        -0.1800 
    117 C         -3.5557  -21.6801  -55.7290 C.2       21 UNK         0.5000 
    118 O         -2.5042  -22.1479  -56.1675 O.2       21 UNK        -0.5000 
    119 N         -3.6153  -20.8154  -54.7070 N.am      22 UNK        -0.5000 
    120 CA        -2.5115  -20.4638  -53.8053 C.3       22 UNK         0.1400 
    121 C         -2.0082  -21.6876  -52.9827 C.2       22 UNK         0.5000 
    122 N         -2.9075  -22.4762  -52.4075 N.am      22 UNK        -0.7600 
    123 O         -0.8146  -21.9471  -52.8799 O.2       22 UNK        -0.5000 
    124 C124       -1.3907  -19.6358  -54.4992 C.3       23 UNK        -0.0398 
    125 S125       -0.5916  -18.4623  -53.3458 S.3       23 UNK        -0.2404 
    126 C126        1.1119  -19.1142  -53.2623 C.3       23 UNK        -0.0205 
    127 H127        2.4111   -8.5820  -47.4486 H         1 UNK         0.0600 
    128 H128        3.7570   -9.4068  -46.6560 H         1 UNK         0.0600 
    129 H129        2.3877   -8.8324  -45.6996 H         1 UNK         0.0600 
    130 H130        3.7032  -11.6139  -46.9126 H         1 UNK         0.3000 
    131 H131        3.0899  -13.7118  -47.0547 H         1 UNK         0.0600 
    132 H132        2.2134  -12.9040  -49.2925 H         1 UNK         0.0800 
    133 H133        0.6189  -12.7893  -48.6250 H         1 UNK         0.0800 
    134 H134        3.5799  -15.1551  -49.6665 H         1 UNK         0.0800 
    135 H135        2.4707  -14.7845  -50.9664 H         1 UNK         0.0800 
    136 H136        1.2731  -16.5865  -52.1644 H         1 UNK         0.1150 
    137 H137        2.7462  -20.5844  -51.6683 H         1 UNK         0.1150 
    138 H138        3.9929  -17.4872  -48.9821 H         1 UNK         0.1150 
    139 H139        5.2131  -20.3674  -50.2323 H         1 UNK         0.0800 
    140 H140        4.8769  -19.6544  -48.6767 H         1 UNK         0.0800 
    141 H141        2.4539  -20.0101  -47.6918 H         1 UNK         0.0800 
    142 H142        3.0403  -21.3355  -46.7230 H         1 UNK         0.0800 
    143 H143        1.2732  -22.8254  -47.8131 H         1 UNK         0.0600 
    144 H144        0.8988  -21.0136  -45.7094 H         1 UNK         0.3000 
    145 H145       -2.4657  -21.9008  -44.8321 H         1 UNK         0.0600 
    146 H146       -1.3105  -22.2456  -42.6656 H         1 UNK         0.0600 
    147 H147        0.2510  -22.3225  -43.4767 H         1 UNK         0.0600 
    148 H148       -0.9554  -23.5702  -43.7653 H         1 UNK         0.0600 
    149 H149       -0.6449  -19.9978  -43.7263 H         1 UNK         0.3000 
    150 H150       -1.6529  -17.2217  -45.7630 H         1 UNK         0.0600 
    151 H151       -3.2401  -17.1971  -43.9369 H         1 UNK         0.0600 
    152 H152       -1.8204  -16.3554  -43.3381 H         1 UNK         0.0600 
    153 H153       -2.1399  -18.0104  -42.8437 H         1 UNK         0.0600 
    154 H154        0.3443  -17.3974  -43.7611 H         1 UNK         0.3000 
    155 H155        2.9951  -18.6130  -45.8483 H         1 UNK         0.0600 
    156 H156        2.9166  -16.1457  -46.2846 H         1 UNK         0.0600 
    157 H157        4.1487  -16.5952  -45.1150 H         1 UNK         0.0600 
    158 H158        2.6425  -15.8714  -44.5653 H         1 UNK         0.0600 
    159 H159        2.7683  -17.7752  -43.0869 H         1 UNK         0.3000 
    160 H160        2.0367  -21.0216  -41.7993 H         1 UNK         0.0600 
    161 H161        4.5474  -19.2645  -41.6201 H         1 UNK         0.0600 
    162 H162        4.5204  -20.9624  -42.0815 H         1 UNK         0.0600 
    163 H163        4.0548  -20.4930  -40.4544 H         1 UNK         0.0600 
    164 H164        2.4447  -18.4651  -40.5717 H         1 UNK         0.3000 
    165 H165       -0.8388  -17.1927  -40.9261 H         1 UNK         0.0600 
    166 H166       -0.8324  -17.1662  -38.4458 H         1 UNK         0.0600 
    167 H167       -1.1627  -18.7875  -39.0340 H         1 UNK         0.0600 
    168 H168        0.4339  -18.3939  -38.4079 H         1 UNK         0.0600 
    169 H169        1.4410  -16.3711  -39.3943 H         1 UNK         0.3000 
    170 H170        2.5570  -14.5553  -39.9718 H         1 UNK         0.0600 
    171 H171        4.0591  -15.7158  -42.3913 H         1 UNK         0.0600 
    172 H172        4.7874  -14.8523  -41.0405 H         1 UNK         0.0600 
    173 H173        4.0511  -16.4227  -40.7785 H         1 UNK         0.0600 
    174 H174        2.0143  -13.6590  -42.7117 H         1 UNK         0.3000 
    175 H175        2.9880  -10.2953  -41.7897 H         1 UNK         0.0600 
    176 H176        3.9340  -12.0945  -44.0783 H         1 UNK         0.0600 
    177 H177        3.8951  -10.3316  -44.0974 H         1 UNK         0.0600 
    178 H178        4.9563  -11.1772  -42.9841 H         1 UNK         0.0600 
    179 H179        1.4567  -11.7669  -43.8561 H         1 UNK         0.3000 
    180 H180       -1.6483  -10.6961  -42.6971 H         1 UNK         0.0600 
    181 H181       -1.9364   -9.2825  -44.7392 H         1 UNK         0.0600 
    182 H182       -0.1892   -9.0684  -44.8445 H         1 UNK         0.0600 
    183 H183       -1.0766   -8.4213  -43.4724 H         1 UNK         0.0600 
    184 H184       -0.5131  -11.4936  -45.2834 H         1 UNK         0.3000 
    185 H185       -0.6103  -14.9398  -44.6190 H         1 UNK         0.0600 
    186 H186       -2.7113  -13.4212  -46.2678 H         1 UNK         0.0600 
    187 H187       -2.2175  -15.0872  -46.5514 H         1 UNK         0.0600 
    188 H188       -3.0504  -14.6581  -45.0638 H         1 UNK         0.0600 
    189 H189       -0.3195  -13.6602  -47.0838 H         1 UNK         0.3000 
    190 H190       -0.1438  -19.5422  -47.8773 H         1 UNK         0.3000 
    191 H191       -0.6923  -19.5792  -50.6988 H         1 UNK         0.0600 
    192 H192       -1.6130  -17.6716  -48.4858 H         1 UNK         0.0600 
    193 H193       -1.6604  -17.3475  -50.2191 H         1 UNK         0.0600 
    194 H194       -0.1174  -17.5337  -49.4075 H         1 UNK         0.0600 
    195 H195       -2.2458  -21.4791  -48.5313 H         1 UNK         0.3000 
    196 H196       -4.6402  -21.5813  -50.1758 H         1 UNK         0.0600 
    197 H197       -5.4245  -19.8737  -48.6023 H         1 UNK         0.0600 
    198 H198       -4.8792  -20.8050  -47.2158 H         1 UNK         0.0600 
    199 H199       -6.2171  -21.3886  -48.2090 H         1 UNK         0.0600 
    200 H200       -4.3774  -22.7373  -46.8930 H         1 UNK         0.3000 
    201 H201       -5.3819  -25.1920  -47.2463 H         1 UNK         0.0600 
    202 H202       -5.0370  -24.1091  -45.0518 H         1 UNK         0.0600 
    203 H203       -3.2945  -24.3610  -45.1650 H         1 UNK         0.0600 
    204 H204       -4.3803  -25.7369  -45.0152 H         1 UNK         0.0600 
    205 H205       -1.9201  -24.4917  -47.6530 H         1 UNK         0.3000 
    206 H206       -0.9125  -27.1155  -47.7961 H         1 UNK         0.0600 
    207 H207        0.0420  -24.5682  -49.1962 H         1 UNK         0.0600 
    208 H208        0.5009  -25.1013  -47.5768 H         1 UNK         0.0600 
    209 H209        1.0025  -26.0269  -48.9834 H         1 UNK         0.0600 
    210 H210       -2.8451  -25.4202  -50.1904 H         1 UNK         0.3000 
    211 H211       -2.8010  -27.8557  -51.8788 H         1 UNK         0.0600 
    212 H212       -2.6823  -25.0381  -53.0676 H         1 UNK         0.0600 
    213 H213       -2.7405  -26.5554  -53.9460 H         1 UNK         0.0600 
    214 H214       -1.3114  -26.1448  -53.0110 H         1 UNK         0.0600 
    215 H215       -4.4552  -26.8327  -49.7347 H         1 UNK         0.3000 
    216 H216       -6.4986  -26.6864  -49.0278 H         1 UNK         0.0600 
    217 H217       -8.3878  -27.6414  -50.3179 H         1 UNK         0.0600 
    218 H218       -6.9778  -28.6867  -50.3860 H         1 UNK         0.0600 
    219 H219       -7.4068  -27.6899  -51.7741 H         1 UNK         0.0600 
    220 H220       -6.6544  -25.3691  -52.3670 H         1 UNK         0.3000 
    221 H221       -8.6963  -23.4000  -51.5420 H         1 UNK         0.0600 
    222 H222       -7.5265  -24.1264  -54.2795 H         1 UNK         0.0600 
    223 H223       -9.0541  -24.6960  -53.6149 H         1 UNK         0.0600 
    224 H224       -8.8487  -22.9967  -54.0076 H         1 UNK         0.0600 
    225 H225       -8.3765  -21.2484  -51.3571 H         1 UNK         0.3000 
    226 H226       -5.7735  -20.0257  -51.4008 H         1 UNK         0.0600 
    227 H227       -7.6010  -19.2362  -49.9143 H         1 UNK         0.0600 
    228 H228       -7.0643  -17.9439  -50.9750 H         1 UNK         0.0600 
    229 H229       -8.5736  -18.7834  -51.3149 H         1 UNK         0.0600 
    230 H230       -8.3824  -20.3378  -53.7671 H         1 UNK         0.3000 
    231 H231       -7.4745  -18.4281  -55.6760 H         1 UNK         0.0600 
    232 H232       -9.0270  -19.6562  -57.2039 H         1 UNK         0.0600 
    233 H233       -9.7828  -19.3434  -55.6501 H         1 UNK         0.0600 
    234 H234       -9.1766  -20.9567  -56.0282 H         1 UNK         0.0600 
    235 H235       -6.4519  -21.7207  -54.9867 H         1 UNK         0.3000 
    236 H236       -4.8198  -21.9803  -57.4358 H         1 UNK         0.0600 
    237 H237       -5.1615  -23.8333  -55.0135 H         1 UNK         0.0600 
    238 H238       -6.0796  -23.9518  -56.5166 H         1 UNK         0.0600 
    239 H239       -4.3456  -24.2286  -56.5186 H         1 UNK         0.0600 
    240 H240       -4.5187  -20.4500  -54.4379 H         1 UNK         0.3000 
    241 H241       -2.9808  -19.8076  -53.0734 H         1 UNK         0.0600 
    242 H242       -2.5887  -23.2493  -51.8480 H         1 UNK         0.3800 
    243 H243       -3.9075  -22.3361  -52.5294 H         1 UNK         0.3800 
    244 H244       -0.6540  -20.2828  -54.9779 H         1 UNK         0.0800 
    245 H245       -1.8196  -19.0353  -55.3023 H         1 UNK         0.0800 
    246 H246        1.6500  -18.8164  -54.1628 H         1 UNK         0.0800 
    247 H247        1.0731  -20.2037  -53.2721 H         1 UNK         0.0800 
@<TRIPOS>BOND
     1    1    2 1    
     2    1  127 1    
     3    1  128 1    
     4    1  129 1    
     5    2    3 2    
     6    2    4 am   BACKBONE|DICT|INTERRES
     7    4    5 1    
     8    4  130 1    
     9    5    6 1    
    10    5   65 1    
    11    5  131 1    
    12    6    7 1    
    13    6  132 1    
    14    6  133 1    
    15    7    8 1    
    16    8    9 1    
    17    8  134 1    
    18    8  135 1    
    19    9   10 ar   
    20    9   14 ar   
    21   10   11 ar   
    22   10  136 1    
    23   11   12 ar   
    24   11  126 1    
    25   12   13 ar   
    26   12  137 1    
    27   13   14 ar   
    28   13   15 1    
    29   14  138 1    
    30   15   16 1    
    31   15  139 1    
    32   15  140 1    
    33   16   17 1    
    34   17   18 1    
    35   17  141 1    
    36   17  142 1    
    37   18   19 1    
    38   18   67 1    
    39   18  143 1    
    40   19   20 am   BACKBONE|DICT|INTERRES
    41   19  144 1    
    42   20   21 2    
    43   20   22 1    
    44   22   23 1    
    45   22   24 1    
    46   22  145 1    
    47   23  146 1    
    48   23  147 1    
    49   23  148 1    
    50   24   25 am   BACKBONE|DICT|INTERRES
    51   24  149 1    
    52   25   26 2    
    53   25   27 1    
    54   27   28 1    
    55   27   29 1    
    56   27  150 1    
    57   28  151 1    
    58   28  152 1    
    59   28  153 1    
    60   29   30 am   BACKBONE|DICT|INTERRES
    61   29  154 1    
    62   30   31 2    
    63   30   32 1    
    64   32   33 1    
    65   32   34 1    
    66   32  155 1    
    67   33  156 1    
    68   33  157 1    
    69   33  158 1    
    70   34   35 am   BACKBONE|DICT|INTERRES
    71   34  159 1    
    72   35   36 2    
    73   35   37 1    
    74   37   38 1    
    75   37   39 1    
    76   37  160 1    
    77   38  161 1    
    78   38  162 1    
    79   38  163 1    
    80   39   40 am   BACKBONE|DICT|INTERRES
    81   39  164 1    
    82   40   41 2    
    83   40   42 1    
    84   42   43 1    
    85   42   44 1    
    86   42  165 1    
    87   43  166 1    
    88   43  167 1    
    89   43  168 1    
    90   44   45 am   BACKBONE|DICT|INTERRES
    91   44  169 1    
    92   45   46 2    
    93   45   47 1    
    94   47   48 1    
    95   47   49 1    
    96   47  170 1    
    97   48  171 1    
    98   48  172 1    
    99   48  173 1    
   100   49   50 am   BACKBONE|DICT|INTERRES
   101   49  174 1    
   102   50   51 2    
   103   50   52 1    
   104   52   53 1    
   105   52   54 1    
   106   52  175 1    
   107   53  176 1    
   108   53  177 1    
   109   53  178 1    
   110   54   55 am   BACKBONE|DICT|INTERRES
   111   54  179 1    
   112   55   56 2    
   113   55   57 1    
   114   57   58 1    
   115   57   59 1    
   116   57  180 1    
   117   58  181 1    
   118   58  182 1    
   119   58  183 1    
   120   59   60 am   BACKBONE|DICT|INTERRES
   121   59  184 1    
   122   60   61 2    
   123   60   62 1    
   124   62   63 1    
   125   62   64 1    
   126   62  185 1    
   127   63  186 1    
   128   63  187 1    
   129   63  188 1    
   130   64   65 am   BACKBONE|DICT|INTERRES
   131   64  189 1    
   132   65   66 2    
   133   67   68 2    
   134   67   69 am   BACKBONE|DICT|INTERRES
   135   69   70 1    
   136   69  190 1    
   137   70   71 1    
   138   70   72 1    
   139   70  191 1    
   140   71  192 1    
   141   71  193 1    
   142   71  194 1    
   143   72   73 2    
   144   72   74 am   BACKBONE|DICT|INTERRES
   145   74   75 1    
   146   74  195 1    
   147   75   76 1    
   148   75   77 1    
   149   75  196 1    
   150   76  197 1    
   151   76  198 1    
   152   76  199 1    
   153   77   78 2    
   154   77   79 am   BACKBONE|DICT|INTERRES
   155   79   80 1    
   156   79  200 1    
   157   80   81 1    
   158   80   82 1    
   159   80  201 1    
   160   81  202 1    
   161   81  203 1    
   162   81  204 1    
   163   82   83 2    
   164   82   84 am   BACKBONE|DICT|INTERRES
   165   84   85 1    
   166   84  205 1    
   167   85   86 1    
   168   85   87 1    
   169   85  206 1    
   170   86  207 1    
   171   86  208 1    
   172   86  209 1    
   173   87   88 2    
   174   87   89 am   BACKBONE|DICT|INTERRES
   175   89   90 1    
   176   89  210 1    
   177   90   91 1    
   178   90   92 1    
   179   90  211 1    
   180   91  212 1    
   181   91  213 1    
   182   91  214 1    
   183   92   93 2    
   184   92   94 am   BACKBONE|DICT|INTERRES
   185   94   95 1    
   186   94  215 1    
   187   95   96 1    
   188   95   97 1    
   189   95  216 1    
   190   96  217 1    
   191   96  218 1    
   192   96  219 1    
   193   97   98 2    
   194   97   99 am   BACKBONE|DICT|INTERRES
   195   99  100 1    
   196   99  220 1    
   197  100  101 1    
   198  100  102 1    
   199  100  221 1    
   200  101  222 1    
   201  101  223 1    
   202  101  224 1    
   203  102  103 2    
   204  102  104 am   BACKBONE|DICT|INTERRES
   205  104  105 1    
   206  104  225 1    
   207  105  106 1    
   208  105  107 1    
   209  105  226 1    
   210  106  227 1    
   211  106  228 1    
   212  106  229 1    
   213  107  108 2    
   214  107  109 am   BACKBONE|DICT|INTERRES
   215  109  110 1    
   216  109  230 1    
   217  110  111 1    
   218  110  112 1    
   219  110  231 1    
   220  111  232 1    
   221  111  233 1    
   222  111  234 1    
   223  112  113 2    
   224  112  114 am   BACKBONE|DICT|INTERRES
   225  114  115 1    
   226  114  235 1    
   227  115  116 1    
   228  115  117 1    
   229  115  236 1    
   230  116  237 1    
   231  116  238 1    
   232  116  239 1    
   233  117  118 2    
   234  117  119 am   BACKBONE|DICT|INTERRES
   235  119  120 1    
   236  119  240 1    
   237  120  121 1    
   238  120  124 1    
   239  120  241 1    
   240  121  122 am   BACKBONE|DICT|INTERRES
   241  121  123 2    
   242  122  242 1    
   243  122  243 1    
   244  124  125 1    
   245  124  244 1    
   246  124  245 1    
   247  125  126 1    
   248  126  246 1    
   249  126  247 1    
@<TRIPOS>SUBSTRUCTURE
     1 UNK         1 GROUP             0       ****    0 ROOT    
