@<TRIPOS>MOLECULE
3R540
247   249    1
SMALL
USER_CHARGES


@<TRIPOS>ATOM
      1 CA         -4.1478  -15.1430  -49.0749 C.3       0 UNK        -0.1800 
      2 C          -2.7705  -14.5004  -49.1384 C.2       0 UNK         0.5000 
      3 O          -2.6402  -13.3816  -49.6345 O.2       0 UNK        -0.5000 
      4 N          -1.7441  -15.2071  -48.6451 N.am      1 UNK        -0.5000 
      5 CA         -0.3365  -14.7735  -48.6329 C.3       1 UNK         0.1400 
      6 C6          0.6268  -15.9196  -48.2310 C.3       23 UNK        -0.0398 
      7 S7          0.3685  -17.4269  -49.2270 S.3       23 UNK        -0.2404 
      8 C8          1.9678  -17.6512  -50.0659 C.3       23 UNK        -0.0205 
      9 C9          1.8504  -18.7687  -51.0902 C.ar      23 UNK        -0.0193 
     10 C10         1.2091  -18.5158  -52.3045 C.ar      23 UNK        -0.1150 
     11 C11         0.9711  -19.5488  -53.2118 C.ar      23 UNK        -0.0193 
     12 C12         1.3911  -20.8435  -52.8929 C.ar      23 UNK        -0.1150 
     13 C13         2.0773  -21.1134  -51.7045 C.ar      23 UNK        -0.0193 
     14 C14         2.3136  -20.0594  -50.8082 C.ar      23 UNK        -0.1150 
     15 C15         2.5202  -22.5605  -51.4549 C.3       23 UNK        -0.0205 
     16 S16         3.0568  -22.9842  -49.7600 S.3       23 UNK        -0.2404 
     17 C17         1.5186  -22.7200  -48.8148 C.3       23 UNK        -0.0398 
     18 CA          1.3800  -23.5719  -47.5207 C.3       11 UNK         0.1400 
     19 N           2.6187  -23.6010  -46.7261 N.am      11 UNK        -0.5000 
     20 C           2.9636  -24.5510  -45.8478 C.2       10 UNK         0.5000 
     21 O           2.2504  -25.5256  -45.6100 O.2       10 UNK        -0.5000 
     22 CA          4.2704  -24.3758  -45.0444 C.3       10 UNK         0.1400 
     23 CB          5.2593  -25.4995  -45.3931 C.3       10 UNK        -0.1800 
     24 N           4.9591  -23.0910  -45.2153 N.am      10 UNK        -0.5000 
     25 C           4.6403  -21.8861  -44.7172 C.2       9 UNK         0.5000 
     26 O           5.4030  -20.9281  -44.8480 O.2       9 UNK        -0.5000 
     27 CA          3.3064  -21.6736  -43.9579 C.3       9 UNK         0.1400 
     28 CB          3.5496  -21.6344  -42.4425 C.3       9 UNK        -0.1800 
     29 N           2.5967  -20.4545  -44.3583 N.am      9 UNK        -0.5000 
     30 C           2.3322  -20.0581  -45.6149 C.2       8 UNK         0.5000 
     31 O           2.7036  -20.6619  -46.6190 O.2       8 UNK        -0.5000 
     32 CA          1.4927  -18.7835  -45.7982 C.3       8 UNK         0.1400 
     33 CB          0.0615  -19.1481  -46.2220 C.3       8 UNK        -0.1800 
     34 N           1.4434  -17.9584  -44.5922 N.am      8 UNK        -0.5000 
     35 C           2.4193  -17.1198  -44.2142 C.2       7 UNK         0.5000 
     36 O           3.4523  -16.9436  -44.8601 O.2       7 UNK        -0.5000 
     37 CA          2.2088  -16.3314  -42.9073 C.3       7 UNK         0.1400 
     38 CB          1.7565  -14.9039  -43.2339 C.3       7 UNK        -0.1800 
     39 N           1.2195  -16.9430  -42.0199 N.am      7 UNK        -0.5000 
     40 C           1.4381  -18.0398  -41.2804 C.2       6 UNK         0.5000 
     41 O           2.5188  -18.6265  -41.2381 O.2       6 UNK        -0.5000 
     42 CA          0.2402  -18.5989  -40.4856 C.3       6 UNK         0.1400 
     43 CB          0.2541  -18.0635  -39.0460 C.3       6 UNK        -0.1800 
     44 N          -1.0576  -18.2952  -41.0943 N.am      6 UNK        -0.5000 
     45 C          -1.4497  -18.7023  -42.3098 C.2       5 UNK         0.5000 
     46 O          -0.7654  -19.4234  -43.0338 O.2       5 UNK        -0.5000 
     47 CA         -2.8034  -18.1813  -42.8272 C.3       5 UNK         0.1400 
     48 CB         -3.8842  -19.2629  -42.6895 C.3       5 UNK        -0.1800 
     49 N          -3.2627  -16.9564  -42.1647 N.am      5 UNK        -0.5000 
     50 C          -2.6828  -15.7550  -42.2860 C.2       4 UNK         0.5000 
     51 O          -1.6609  -15.5469  -42.9449 O.2       4 UNK        -0.5000 
     52 CA         -3.3249  -14.6093  -41.4942 C.3       4 UNK         0.1400 
     53 CB         -2.6237  -14.4370  -40.1372 C.3       4 UNK        -0.1800 
     54 N          -3.2022  -13.3723  -42.2583 N.am      4 UNK        -0.5000 
     55 C          -4.1952  -12.5065  -42.4973 C.2       3 UNK         0.5000 
     56 O          -5.3319  -12.6326  -42.0393 O.2       3 UNK        -0.5000 
     57 CA         -3.8819  -11.2843  -43.3886 C.3       3 UNK         0.1400 
     58 CB         -3.8148  -10.0052  -42.5387 C.3       3 UNK        -0.1800 
     59 N          -2.6412  -11.3968  -44.1615 N.am      3 UNK        -0.5000 
     60 C          -2.4470  -12.2333  -45.1885 C.2       2 UNK         0.5000 
     61 O          -3.3087  -13.0132  -45.6052 O.2       2 UNK        -0.5000 
     62 CA         -1.0532  -12.2068  -45.8409 C.3       2 UNK         0.1400 
     63 CB          0.0809  -12.1935  -44.7956 C.3       2 UNK        -0.1800 
     64 N          -0.9493  -13.3701  -46.7131 N.am      2 UNK        -0.5000 
     65 C          -0.1016  -13.5370  -47.7344 C.2       1 UNK         0.5000 
     66 O           0.8176  -12.7601  -47.9961 O.2       1 UNK        -0.5000 
     67 C           0.1709  -23.0870  -46.6766 C.2       11 UNK         0.5000 
     68 O          -0.6549  -22.3229  -47.1712 O.2       11 UNK        -0.5000 
     69 N           0.0869  -23.4945  -45.4030 N.am      12 UNK        -0.5000 
     70 CA         -0.8652  -22.9712  -44.4177 C.3       12 UNK         0.1400 
     71 CB         -0.4727  -23.4820  -43.0239 C.3       12 UNK        -0.1800 
     72 C          -2.3436  -23.2877  -44.7203 C.2       12 UNK         0.5000 
     73 O          -3.2183  -22.5656  -44.2417 O.2       12 UNK        -0.5000 
     74 N          -2.5910  -24.3466  -45.5058 N.am      13 UNK        -0.5000 
     75 CA         -3.9009  -24.8431  -45.9332 C.3       13 UNK         0.1400 
     76 CB         -3.6904  -26.0624  -46.8462 C.3       13 UNK        -0.1800 
     77 C          -4.7531  -23.7631  -46.6291 C.2       13 UNK         0.5000 
     78 O          -4.5544  -23.4890  -47.8151 O.2       13 UNK        -0.5000 
     79 N          -5.6543  -23.1435  -45.8525 N.am      14 UNK        -0.5000 
     80 CA         -6.5518  -22.0469  -46.2321 C.3       14 UNK         0.1400 
     81 CB         -7.6645  -22.5698  -47.1640 C.3       14 UNK        -0.1800 
     82 C          -5.8080  -20.8205  -46.8051 C.2       14 UNK         0.5000 
     83 O          -6.3005  -20.1885  -47.7402 O.2       14 UNK        -0.5000 
     84 N          -4.6159  -20.5332  -46.2561 N.am      15 UNK        -0.5000 
     85 CA         -3.6727  -19.5016  -46.7064 C.3       15 UNK         0.1400 
     86 CB         -4.2325  -18.0897  -46.4306 C.3       15 UNK        -0.1800 
     87 C          -3.2682  -19.7060  -48.1824 C.2       15 UNK         0.5000 
     88 O          -3.4403  -18.8074  -49.0077 O.2       15 UNK        -0.5000 
     89 N          -2.7954  -20.9212  -48.4879 N.am      16 UNK        -0.5000 
     90 CA         -2.4234  -21.4280  -49.8107 C.3       16 UNK         0.1400 
     91 CB         -1.2048  -20.6624  -50.3535 C.3       16 UNK        -0.1800 
     92 C          -3.6096  -21.4415  -50.7934 C.2       16 UNK         0.5000 
     93 O          -3.4511  -21.0717  -51.9597 O.2       16 UNK        -0.5000 
     94 N          -4.7864  -21.8401  -50.2877 N.am      17 UNK        -0.5000 
     95 CA         -6.0921  -21.7914  -50.9561 C.3       17 UNK         0.1400 
     96 CB         -6.1476  -22.8192  -52.1063 C.3       17 UNK        -0.1800 
     97 C          -6.4675  -20.3595  -51.3992 C.2       17 UNK         0.5000 
     98 O          -6.9211  -20.1589  -52.5255 O.2       17 UNK        -0.5000 
     99 N          -6.2331  -19.3894  -50.5034 N.am      18 UNK        -0.5000 
    100 CA        -6.2983  -17.9408  -50.7185 C.3       18 UNK         0.1400 
    101 CB        -7.7508  -17.4814  -50.9615 C.3       18 UNK        -0.1800 
    102 C         -5.3124  -17.4738  -51.8126 C.2       18 UNK         0.5000 
    103 O         -5.6947  -16.7306  -52.7184 O.2       18 UNK        -0.5000 
    104 N         -4.0596  -17.9400  -51.6976 N.am      19 UNK        -0.5000 
    105 CA        -2.9361  -17.7354  -52.6174 C.3       19 UNK         0.1400 
    106 CB        -2.4020  -16.2937  -52.5119 C.3       19 UNK        -0.1800 
    107 C         -3.2420  -18.1756  -54.0655 C.2       19 UNK         0.5000 
    108 O         -2.9915  -17.4228  -55.0087 O.2       19 UNK        -0.5000 
    109 N         -3.7665  -19.3982  -54.2094 N.am      20 UNK        -0.5000 
    110 CA        -4.1038  -20.0228  -55.4903 C.3       20 UNK         0.1400 
    111 CB        -5.6168  -20.2775  -55.5463 C.3       20 UNK        -0.1800 
    112 C         -3.3384  -21.3362  -55.7276 C.2       20 UNK         0.5000 
    113 O         -3.2472  -21.7651  -56.8788 O.2       20 UNK        -0.5000 
    114 N         -2.7862  -21.9528  -54.6691 N.am      21 UNK        -0.5000 
    115 CA        -2.0999  -23.2535  -54.7107 C.3       21 UNK         0.1400 
    116 CB        -1.7107  -23.6570  -53.2798 C.3       21 UNK        -0.1800 
    117 C         -0.8658  -23.3132  -55.6376 C.2       21 UNK         0.5000 
    118 O         -0.5148  -24.3917  -56.1171 O.2       21 UNK        -0.5000 
    119 N         -0.2451  -22.1539  -55.8750 N.am      22 UNK        -0.5000 
    120 CA         0.8680  -21.9348  -56.8064 C.3       22 UNK         0.1400 
    121 C          0.4300  -21.6768  -58.2800 C.2       22 UNK         0.5000 
    122 N         -0.8576  -21.6267  -58.6039 N.am      22 UNK        -0.7600 
    123 O          1.2789  -21.5407  -59.1570 O.2       22 UNK        -0.5000 
    124 C124        1.8556  -20.8581  -56.2735 C.3       23 UNK        -0.0398 
    125 S125        1.1641  -19.1800  -56.0107 S.3       23 UNK        -0.2404 
    126 C126        0.1717  -19.2726  -54.4782 C.3       23 UNK        -0.0205 
    127 H127       -4.7564  -14.6525  -48.3152 H         1 UNK         0.0600 
    128 H128       -4.6523  -15.0454  -50.0360 H         1 UNK         0.0600 
    129 H129       -4.0838  -16.2027  -48.8322 H         1 UNK         0.0600 
    130 H130       -1.9090  -16.1435  -48.3045 H         1 UNK         0.3000 
    131 H131       -0.0873  -14.4747  -49.6534 H         1 UNK         0.0600 
    132 H132        1.6651  -15.5971  -48.3276 H         1 UNK         0.0800 
    133 H133        0.4880  -16.1825  -47.1811 H         1 UNK         0.0800 
    134 H134        2.2609  -16.7241  -50.5607 H         1 UNK         0.0800 
    135 H135        2.7397  -17.8788  -49.3290 H         1 UNK         0.0800 
    136 H136        0.8477  -17.5191  -52.5155 H         1 UNK         0.1150 
    137 H137        1.1687  -21.6589  -53.5641 H         1 UNK         0.1150 
    138 H138        2.8234  -20.2381  -49.8730 H         1 UNK         0.1150 
    139 H139        1.7110  -23.2379  -51.7327 H         1 UNK         0.0800 
    140 H140        3.3464  -22.7803  -52.1320 H         1 UNK         0.0800 
    141 H141        0.6708  -22.9204  -49.4719 H         1 UNK         0.0800 
    142 H142        1.4680  -21.6571  -48.5812 H         1 UNK         0.0800 
    143 H143        1.1554  -24.5944  -47.8304 H         1 UNK         0.0600 
    144 H144        3.2095  -22.7850  -46.8339 H         1 UNK         0.3000 
    145 H145        4.0116  -24.4810  -43.9891 H         1 UNK         0.0600 
    146 H146        5.5730  -25.4488  -46.4366 H         1 UNK         0.0600 
    147 H147        6.1528  -25.4475  -44.7705 H         1 UNK         0.0600 
    148 H148        4.8136  -26.4823  -45.2323 H         1 UNK         0.0600 
    149 H149        5.8225  -23.1518  -45.7342 H         1 UNK         0.3000 
    150 H150        2.6156  -22.4888  -44.1526 H         1 UNK         0.0600 
    151 H151        4.0385  -22.5471  -42.0999 H         1 UNK         0.0600 
    152 H152        2.6126  -21.5417  -41.8928 H         1 UNK         0.0600 
    153 H153        4.1864  -20.7945  -42.1612 H         1 UNK         0.0600 
    154 H154        2.2714  -19.8646  -43.6063 H         1 UNK         0.3000 
    155 H155        1.9471  -18.2040  -46.6043 H         1 UNK         0.0600 
    156 H156        0.0610  -19.6374  -47.1969 H         1 UNK         0.0600 
    157 H157       -0.5727  -18.2655  -46.2997 H         1 UNK         0.0600 
    158 H158       -0.4048  -19.8392  -45.5228 H         1 UNK         0.0600 
    159 H159        0.6411  -18.0910  -43.9894 H         1 UNK         0.3000 
    160 H160        3.1662  -16.2809  -42.3842 H         1 UNK         0.0600 
    161 H161        0.8368  -14.9182  -43.8183 H         1 UNK         0.0600 
    162 H162        2.5100  -14.3768  -43.8204 H         1 UNK         0.0600 
    163 H163        1.5777  -14.3217  -42.3298 H         1 UNK         0.0600 
    164 H164        0.2957  -16.5303  -42.0242 H         1 UNK         0.3000 
    165 H165        0.3477  -19.6851  -40.4514 H         1 UNK         0.0600 
    166 H166       -0.5383  -18.5152  -38.4490 H         1 UNK         0.0600 
    167 H167        1.2003  -18.2918  -38.5534 H         1 UNK         0.0600 
    168 H168        0.1218  -16.9811  -39.0179 H         1 UNK         0.0600 
    169 H169       -1.6823  -17.7076  -40.5630 H         1 UNK         0.3000 
    170 H170       -2.6709  -17.9595  -43.8877 H         1 UNK         0.0600 
    171 H171       -4.0622  -19.5245  -41.6458 H         1 UNK         0.0600 
    172 H172       -4.8308  -18.9377  -43.1211 H         1 UNK         0.0600 
    173 H173       -3.5891  -20.1740  -43.2095 H         1 UNK         0.0600 
    174 H174       -4.0894  -17.0442  -41.5909 H         1 UNK         0.3000 
    175 H175       -4.3757  -14.8534  -41.3243 H         1 UNK         0.0600 
    176 H176       -2.7010  -15.3440  -39.5364 H         1 UNK         0.0600 
    177 H177       -1.5633  -14.2103  -40.2573 H         1 UNK         0.0600 
    178 H178       -3.0749  -13.6279  -39.5626 H         1 UNK         0.0600 
    179 H179       -2.3151  -13.2410  -42.7237 H         1 UNK         0.3000 
    180 H180       -4.7096  -11.1807  -44.0933 H         1 UNK         0.0600 
    181 H181       -3.6764   -9.1224  -43.1632 H         1 UNK         0.0600 
    182 H182       -2.9946  -10.0425  -41.8207 H         1 UNK         0.0600 
    183 H183       -4.7375   -9.8596  -41.9751 H         1 UNK         0.0600 
    184 H184       -1.8833  -10.7939  -43.8756 H         1 UNK         0.3000 
    185 H185       -0.9892  -11.3078  -46.4571 H         1 UNK         0.0600 
    186 H186        0.1793  -11.2080  -44.3400 H         1 UNK         0.0600 
    187 H187       -0.1129  -12.9020  -43.9916 H         1 UNK         0.0600 
    188 H188        1.0480  -12.4367  -45.2354 H         1 UNK         0.0600 
    189 H189       -1.7222  -14.0171  -46.6122 H         1 UNK         0.3000 
    190 H190        0.7578  -24.1820  -45.0823 H         1 UNK         0.3000 
    191 H191       -0.7692  -21.8842  -44.4113 H         1 UNK         0.0600 
    192 H192       -0.5099  -24.5706  -42.9691 H         1 UNK         0.0600 
    193 H193       -1.1461  -23.0896  -42.2606 H         1 UNK         0.0600 
    194 H194        0.5352  -23.1644  -42.7566 H         1 UNK         0.0600 
    195 H195       -1.7921  -24.8497  -45.8612 H         1 UNK         0.3000 
    196 H196       -4.4333  -25.1817  -45.0423 H         1 UNK         0.0600 
    197 H197       -4.6452  -26.4598  -47.1931 H         1 UNK         0.0600 
    198 H198       -3.1771  -26.8669  -46.3192 H         1 UNK         0.0600 
    199 H199       -3.1006  -25.8093  -47.7283 H         1 UNK         0.0600 
    200 H200       -5.6827  -23.4010  -44.8753 H         1 UNK         0.3000 
    201 H201       -7.0272  -21.7024  -45.3127 H         1 UNK         0.0600 
    202 H202       -8.2263  -23.3736  -46.6885 H         1 UNK         0.0600 
    203 H203       -7.2601  -22.9573  -48.0983 H         1 UNK         0.0600 
    204 H204       -8.3775  -21.7828  -47.4126 H         1 UNK         0.0600 
    205 H205       -4.2835  -21.1430  -45.5170 H         1 UNK         0.3000 
    206 H206       -2.7714  -19.6278  -46.1068 H         1 UNK         0.0600 
    207 H207       -5.0857  -17.8582  -47.0691 H         1 UNK         0.0600 
    208 H208       -4.5594  -17.9842  -45.3973 H         1 UNK         0.0600 
    209 H209       -3.4723  -17.3293  -46.6114 H         1 UNK         0.0600 
    210 H210       -2.6499  -21.5837  -47.7366 H         1 UNK         0.3000 
    211 H211       -2.1279  -22.4686  -49.6712 H         1 UNK         0.0600 
    212 H212       -1.4316  -19.6163  -50.5474 H         1 UNK         0.0600 
    213 H213       -0.8524  -21.1014  -51.2846 H         1 UNK         0.0600 
    214 H214       -0.3797  -20.6827  -49.6445 H         1 UNK         0.0600 
    215 H215       -4.7922  -22.1748  -49.3285 H         1 UNK         0.3000 
    216 H216       -6.8349  -22.0838  -50.2145 H         1 UNK         0.0600 
    217 H217       -7.1454  -22.8622  -52.5442 H         1 UNK         0.0600 
    218 H218       -5.9070  -23.8205  -51.7493 H         1 UNK         0.0600 
    219 H219       -5.4498  -22.5742  -52.9072 H         1 UNK         0.0600 
    220 H220       -5.9223  -19.6707  -49.5771 H         1 UNK         0.3000 
    221 H221       -5.9641  -17.4847  -49.7861 H         1 UNK         0.0600 
    222 H222       -8.1467  -17.8615  -51.9036 H         1 UNK         0.0600 
    223 H223       -8.4087  -17.8180  -50.1604 H         1 UNK         0.0600 
    224 H224       -7.8128  -16.3932  -50.9971 H         1 UNK         0.0600 
    225 H225       -3.8493  -18.5002  -50.8752 H         1 UNK         0.3000 
    226 H226       -2.1373  -18.3941  -52.2797 H         1 UNK         0.0600 
    227 H227       -3.1588  -15.5577  -52.7843 H         1 UNK         0.0600 
    228 H228       -2.0687  -16.0789  -51.4977 H         1 UNK         0.0600 
    229 H229       -1.5428  -16.1426  -53.1662 H         1 UNK         0.0600 
    230 H230       -3.9166  -19.9558  -53.3715 H         1 UNK         0.3000 
    231 H231       -3.8457  -19.3574  -56.3164 H         1 UNK         0.0600 
    232 H232       -5.9153  -20.6410  -56.5303 H         1 UNK         0.0600 
    233 H233       -6.1797  -19.3647  -55.3501 H         1 UNK         0.0600 
    234 H234       -5.9246  -21.0253  -54.8156 H         1 UNK         0.0600 
    235 H235       -2.9273  -21.5572  -53.7444 H         1 UNK         0.3000 
    236 H236       -2.8167  -23.9863  -55.0866 H         1 UNK         0.0600 
    237 H237       -1.0338  -22.9314  -52.8287 H         1 UNK         0.0600 
    238 H238       -2.5901  -23.7412  -52.6413 H         1 UNK         0.0600 
    239 H239       -1.2093  -24.6256  -53.2668 H         1 UNK         0.0600 
    240 H240       -0.6369  -21.3214  -55.4661 H         1 UNK         0.3000 
    241 H241        1.4367  -22.8653  -56.8532 H         1 UNK         0.0600 
    242 H242       -1.1144  -21.4676  -59.5651 H         1 UNK         0.3800 
    243 H243       -1.5880  -21.7505  -57.9100 H         1 UNK         0.3800 
    244 H244        2.6839  -20.7511  -56.9758 H         1 UNK         0.0800 
    245 H245        2.3352  -21.2031  -55.3608 H         1 UNK         0.0800 
    246 H246       -0.3240  -18.3065  -54.3798 H         1 UNK         0.0800 
    247 H247       -0.6397  -19.9894  -54.5664 H         1 UNK         0.0800 
@<TRIPOS>BOND
     1    1    2 1    
     2    1  127 1    
     3    1  128 1    
     4    1  129 1    
     5    2    3 2    
     6    2    4 am   BACKBONE|DICT|INTERRES
     7    4    5 1    
     8    4  130 1    
     9    5    6 1    
    10    5   65 1    
    11    5  131 1    
    12    6    7 1    
    13    6  132 1    
    14    6  133 1    
    15    7    8 1    
    16    8    9 1    
    17    8  134 1    
    18    8  135 1    
    19    9   10 ar   
    20    9   14 ar   
    21   10   11 ar   
    22   10  136 1    
    23   11   12 ar   
    24   11  126 1    
    25   12   13 ar   
    26   12  137 1    
    27   13   14 ar   
    28   13   15 1    
    29   14  138 1    
    30   15   16 1    
    31   15  139 1    
    32   15  140 1    
    33   16   17 1    
    34   17   18 1    
    35   17  141 1    
    36   17  142 1    
    37   18   19 1    
    38   18   67 1    
    39   18  143 1    
    40   19   20 am   BACKBONE|DICT|INTERRES
    41   19  144 1    
    42   20   21 2    
    43   20   22 1    
    44   22   23 1    
    45   22   24 1    
    46   22  145 1    
    47   23  146 1    
    48   23  147 1    
    49   23  148 1    
    50   24   25 am   BACKBONE|DICT|INTERRES
    51   24  149 1    
    52   25   26 2    
    53   25   27 1    
    54   27   28 1    
    55   27   29 1    
    56   27  150 1    
    57   28  151 1    
    58   28  152 1    
    59   28  153 1    
    60   29   30 am   BACKBONE|DICT|INTERRES
    61   29  154 1    
    62   30   31 2    
    63   30   32 1    
    64   32   33 1    
    65   32   34 1    
    66   32  155 1    
    67   33  156 1    
    68   33  157 1    
    69   33  158 1    
    70   34   35 am   BACKBONE|DICT|INTERRES
    71   34  159 1    
    72   35   36 2    
    73   35   37 1    
    74   37   38 1    
    75   37   39 1    
    76   37  160 1    
    77   38  161 1    
    78   38  162 1    
    79   38  163 1    
    80   39   40 am   BACKBONE|DICT|INTERRES
    81   39  164 1    
    82   40   41 2    
    83   40   42 1    
    84   42   43 1    
    85   42   44 1    
    86   42  165 1    
    87   43  166 1    
    88   43  167 1    
    89   43  168 1    
    90   44   45 am   BACKBONE|DICT|INTERRES
    91   44  169 1    
    92   45   46 2    
    93   45   47 1    
    94   47   48 1    
    95   47   49 1    
    96   47  170 1    
    97   48  171 1    
    98   48  172 1    
    99   48  173 1    
   100   49   50 am   BACKBONE|DICT|INTERRES
   101   49  174 1    
   102   50   51 2    
   103   50   52 1    
   104   52   53 1    
   105   52   54 1    
   106   52  175 1    
   107   53  176 1    
   108   53  177 1    
   109   53  178 1    
   110   54   55 am   BACKBONE|DICT|INTERRES
   111   54  179 1    
   112   55   56 2    
   113   55   57 1    
   114   57   58 1    
   115   57   59 1    
   116   57  180 1    
   117   58  181 1    
   118   58  182 1    
   119   58  183 1    
   120   59   60 am   BACKBONE|DICT|INTERRES
   121   59  184 1    
   122   60   61 2    
   123   60   62 1    
   124   62   63 1    
   125   62   64 1    
   126   62  185 1    
   127   63  186 1    
   128   63  187 1    
   129   63  188 1    
   130   64   65 am   BACKBONE|DICT|INTERRES
   131   64  189 1    
   132   65   66 2    
   133   67   68 2    
   134   67   69 am   BACKBONE|DICT|INTERRES
   135   69   70 1    
   136   69  190 1    
   137   70   71 1    
   138   70   72 1    
   139   70  191 1    
   140   71  192 1    
   141   71  193 1    
   142   71  194 1    
   143   72   73 2    
   144   72   74 am   BACKBONE|DICT|INTERRES
   145   74   75 1    
   146   74  195 1    
   147   75   76 1    
   148   75   77 1    
   149   75  196 1    
   150   76  197 1    
   151   76  198 1    
   152   76  199 1    
   153   77   78 2    
   154   77   79 am   BACKBONE|DICT|INTERRES
   155   79   80 1    
   156   79  200 1    
   157   80   81 1    
   158   80   82 1    
   159   80  201 1    
   160   81  202 1    
   161   81  203 1    
   162   81  204 1    
   163   82   83 2    
   164   82   84 am   BACKBONE|DICT|INTERRES
   165   84   85 1    
   166   84  205 1    
   167   85   86 1    
   168   85   87 1    
   169   85  206 1    
   170   86  207 1    
   171   86  208 1    
   172   86  209 1    
   173   87   88 2    
   174   87   89 am   BACKBONE|DICT|INTERRES
   175   89   90 1    
   176   89  210 1    
   177   90   91 1    
   178   90   92 1    
   179   90  211 1    
   180   91  212 1    
   181   91  213 1    
   182   91  214 1    
   183   92   93 2    
   184   92   94 am   BACKBONE|DICT|INTERRES
   185   94   95 1    
   186   94  215 1    
   187   95   96 1    
   188   95   97 1    
   189   95  216 1    
   190   96  217 1    
   191   96  218 1    
   192   96  219 1    
   193   97   98 2    
   194   97   99 am   BACKBONE|DICT|INTERRES
   195   99  100 1    
   196   99  220 1    
   197  100  101 1    
   198  100  102 1    
   199  100  221 1    
   200  101  222 1    
   201  101  223 1    
   202  101  224 1    
   203  102  103 2    
   204  102  104 am   BACKBONE|DICT|INTERRES
   205  104  105 1    
   206  104  225 1    
   207  105  106 1    
   208  105  107 1    
   209  105  226 1    
   210  106  227 1    
   211  106  228 1    
   212  106  229 1    
   213  107  108 2    
   214  107  109 am   BACKBONE|DICT|INTERRES
   215  109  110 1    
   216  109  230 1    
   217  110  111 1    
   218  110  112 1    
   219  110  231 1    
   220  111  232 1    
   221  111  233 1    
   222  111  234 1    
   223  112  113 2    
   224  112  114 am   BACKBONE|DICT|INTERRES
   225  114  115 1    
   226  114  235 1    
   227  115  116 1    
   228  115  117 1    
   229  115  236 1    
   230  116  237 1    
   231  116  238 1    
   232  116  239 1    
   233  117  118 2    
   234  117  119 am   BACKBONE|DICT|INTERRES
   235  119  120 1    
   236  119  240 1    
   237  120  121 1    
   238  120  124 1    
   239  120  241 1    
   240  121  122 am   BACKBONE|DICT|INTERRES
   241  121  123 2    
   242  122  242 1    
   243  122  243 1    
   244  124  125 1    
   245  124  244 1    
   246  124  245 1    
   247  125  126 1    
   248  126  246 1    
   249  126  247 1    
@<TRIPOS>SUBSTRUCTURE
     1 UNK         1 GROUP             0       ****    0 ROOT    
