@<TRIPOS>MOLECULE
3R540
247   249    1
SMALL
USER_CHARGES


@<TRIPOS>ATOM
      1 CA          3.8150  -16.7417  -46.1207 C.3       0 UNK        -0.1800 
      2 C           3.3701  -15.2873  -46.1016 C.2       0 UNK         0.5000 
      3 O           3.3969  -14.6550  -45.0475 O.2       0 UNK        -0.5000 
      4 N           2.9916  -14.7442  -47.2668 N.am      1 UNK        -0.5000 
      5 CA          2.4672  -13.3806  -47.4585 C.3       1 UNK         0.1400 
      6 C6          2.0051  -13.1322  -48.9177 C.3       23 UNK        -0.0398 
      7 S7          0.7810  -14.3608  -49.4901 S.3       23 UNK        -0.2404 
      8 C8          1.7649  -15.3523  -50.6567 C.3       23 UNK        -0.0205 
      9 C9          1.2665  -16.7877  -50.7121 C.ar      23 UNK        -0.0193 
     10 C10         0.2469  -17.1541  -51.5962 C.ar      23 UNK        -0.1150 
     11 C11        -0.2061  -18.4797  -51.6571 C.ar      23 UNK        -0.0193 
     12 C12         0.3822  -19.4341  -50.8196 C.ar      23 UNK        -0.1150 
     13 C13         1.4071  -19.0828  -49.9356 C.ar      23 UNK        -0.0193 
     14 C14         1.8443  -17.7572  -49.8890 C.ar      23 UNK        -0.1150 
     15 C15         2.0659  -20.1401  -49.0599 C.3       23 UNK        -0.0205 
     16 S16         1.8373  -19.7921  -47.2877 S.3       23 UNK        -0.2404 
     17 C17         2.1544  -21.4281  -46.5455 C.3       23 UNK        -0.0398 
     18 CA          0.8898  -22.2321  -46.1461 C.3       11 UNK         0.1400 
     19 N           0.1395  -21.6504  -45.0276 N.am      11 UNK        -0.5000 
     20 C          -0.7583  -22.3472  -44.3127 C.2       10 UNK         0.5000 
     21 O          -1.0360  -23.5268  -44.5364 O.2       10 UNK        -0.5000 
     22 CA         -1.4949  -21.6100  -43.1807 C.3       10 UNK         0.1400 
     23 CB         -0.5755  -21.3929  -41.9694 C.3       10 UNK        -0.1800 
     24 N          -2.0707  -20.3361  -43.6069 N.am      10 UNK        -0.5000 
     25 C          -3.0273  -20.2103  -44.5380 C.2       9 UNK         0.5000 
     26 O          -3.5319  -21.1599  -45.1358 O.2       9 UNK        -0.5000 
     27 CA         -3.4706  -18.7795  -44.8904 C.3       9 UNK         0.1400 
     28 CB         -4.4581  -18.2376  -43.8463 C.3       9 UNK        -0.1800 
     29 N          -2.3438  -17.8585  -45.0279 N.am      9 UNK        -0.5000 
     30 C          -1.3644  -17.9967  -45.9329 C.2       8 UNK         0.5000 
     31 O          -1.3307  -18.8967  -46.7682 O.2       8 UNK        -0.5000 
     32 CA         -0.2091  -16.9867  -45.8585 C.3       8 UNK         0.1400 
     33 CB         -0.6538  -15.6302  -46.4175 C.3       8 UNK        -0.1800 
     34 N           0.3022  -16.8230  -44.4976 N.am      8 UNK        -0.5000 
     35 C           0.8020  -17.8086  -43.7359 C.2       7 UNK         0.5000 
     36 O           0.9508  -18.9708  -44.1132 O.2       7 UNK        -0.5000 
     37 CA          1.1350  -17.4454  -42.2798 C.3       7 UNK         0.1400 
     38 CB          2.4998  -16.7478  -42.1764 C.3       7 UNK        -0.1800 
     39 N           0.0970  -16.6041  -41.6841 N.am      7 UNK        -0.5000 
     40 C          -1.1466  -17.0226  -41.4065 C.2       6 UNK         0.5000 
     41 O          -1.5340  -18.1787  -41.5753 O.2       6 UNK        -0.5000 
     42 CA         -2.1327  -15.9577  -40.8926 C.3       6 UNK         0.1400 
     43 CB         -1.9628  -15.7455  -39.3809 C.3       6 UNK        -0.1800 
     44 N          -1.9764  -14.6766  -41.5830 N.am      6 UNK        -0.5000 
     45 C          -2.2693  -14.4731  -42.8757 C.2       5 UNK         0.5000 
     46 O          -2.7659  -15.3319  -43.6033 O.2       5 UNK        -0.5000 
     47 CA         -1.9018  -13.0949  -43.4624 C.3       5 UNK         0.1400 
     48 CB         -3.0645  -12.1069  -43.2887 C.3       5 UNK        -0.1800 
     49 N          -0.6871  -12.5276  -42.8676 N.am      5 UNK        -0.5000 
     50 C           0.5309  -13.0731  -42.9800 C.2       4 UNK         0.5000 
     51 O           0.7621  -14.0876  -43.6386 O.2       4 UNK        -0.5000 
     52 CA          1.6427  -12.4329  -42.1408 C.3       4 UNK         0.1400 
     53 CB          1.5166  -12.9112  -40.6778 C.3       4 UNK        -0.1800 
     54 N           2.9561  -12.7871  -42.6793 N.am      4 UNK        -0.5000 
     55 C           4.1128  -12.2388  -42.2824 C.2       3 UNK         0.5000 
     56 O           4.1887  -11.3171  -41.4684 O.2       3 UNK        -0.5000 
     57 CA          5.4045  -12.8006  -42.8933 C.3       3 UNK         0.1400 
     58 CB          5.6254  -14.2703  -42.4953 C.3       3 UNK        -0.1800 
     59 N           5.3887  -12.6757  -44.3473 N.am      3 UNK        -0.5000 
     60 C           5.9103  -11.6446  -45.0273 C.2       2 UNK         0.5000 
     61 O           6.4745  -10.6901  -44.4905 O.2       2 UNK        -0.5000 
     62 CA          5.8109  -11.6795  -46.5665 C.3       2 UNK         0.1400 
     63 CB          7.1457  -12.1317  -47.1792 C.3       2 UNK        -0.1800 
     64 N           4.7491  -12.5569  -47.0572 N.am      2 UNK        -0.5000 
     65 C           3.4415  -12.2692  -47.0122 C.2       1 UNK         0.5000 
     66 O           2.9940  -11.1899  -46.6227 O.2       1 UNK        -0.5000 
     67 C          -0.0204  -22.5587  -47.3476 C.2       11 UNK         0.5000 
     68 O           0.1515  -23.6123  -47.9604 O.2       11 UNK        -0.5000 
     69 N          -0.9919  -21.6824  -47.6439 N.am      12 UNK        -0.5000 
     70 CA         -1.9480  -21.8678  -48.7328 C.3       12 UNK         0.1400 
     71 CB         -2.7064  -20.5591  -48.9947 C.3       12 UNK        -0.1800 
     72 C          -2.9238  -23.0316  -48.4898 C.2       12 UNK         0.5000 
     73 O          -3.3293  -23.6789  -49.4529 O.2       12 UNK        -0.5000 
     74 N          -3.2798  -23.2847  -47.2228 N.am      13 UNK        -0.5000 
     75 CA         -4.0906  -24.4329  -46.8179 C.3       13 UNK         0.1400 
     76 CB         -4.6469  -24.1972  -45.4057 C.3       13 UNK        -0.1800 
     77 C          -3.3063  -25.7571  -46.8755 C.2       13 UNK         0.5000 
     78 O          -3.8942  -26.7927  -47.1898 O.2       13 UNK        -0.5000 
     79 N          -2.0037  -25.7067  -46.5613 N.am      14 UNK        -0.5000 
     80 CA         -1.0982  -26.8548  -46.6091 C.3       14 UNK         0.1400 
     81 CB          0.1733  -26.5350  -45.8078 C.3       14 UNK        -0.1800 
     82 C          -0.7472  -27.2733  -48.0494 C.2       14 UNK         0.5000 
     83 O          -0.6915  -28.4698  -48.3384 O.2       14 UNK        -0.5000 
     84 N          -0.5096  -26.2848  -48.9203 N.am      15 UNK        -0.5000 
     85 CA         -0.2094  -26.4664  -50.3395 C.3       15 UNK         0.1400 
     86 CB          0.3184  -25.1355  -50.8977 C.3       15 UNK        -0.1800 
     87 C          -1.4268  -26.9506  -51.1529 C.2       15 UNK         0.5000 
     88 O          -2.5723  -26.6879  -50.7810 O.2       15 UNK        -0.5000 
     89 N          -1.1510  -27.6272  -52.2751 N.am      16 UNK        -0.5000 
     90 CA         -2.1512  -28.0147  -53.2711 C.3       16 UNK         0.1400 
     91 CB         -1.5616  -29.1074  -54.1760 C.3       16 UNK        -0.1800 
     92 C          -2.5838  -26.7950  -54.1055 C.2       16 UNK         0.5000 
     93 O          -1.7419  -25.9466  -54.4106 O.2       16 UNK        -0.5000 
     94 N          -3.8748  -26.7453  -54.4681 N.am      17 UNK        -0.5000 
     95 CA         -4.5720  -25.6300  -55.1218 C.3       17 UNK         0.1400 
     96 CB         -4.0426  -25.3806  -56.5518 C.3       17 UNK        -0.1800 
     97 C          -4.5550  -24.3819  -54.2183 C.2       17 UNK         0.5000 
     98 O          -5.4159  -24.2812  -53.3444 O.2       17 UNK        -0.5000 
     99 N          -3.5618  -23.5035  -54.4254 N.am      18 UNK        -0.5000 
    100 CA        -3.1023  -22.4011  -53.5732 C.3       18 UNK         0.1400 
    101 CB        -2.1390  -22.9488  -52.5096 C.3       18 UNK        -0.1800 
    102 C         -4.2189  -21.5226  -52.9791 C.2       18 UNK         0.5000 
    103 O         -4.5806  -20.5253  -53.6023 O.2       18 UNK        -0.5000 
    104 N         -4.7694  -21.9078  -51.8161 N.am      19 UNK        -0.5000 
    105 CA        -5.9102  -21.2662  -51.1462 C.3       19 UNK         0.1400 
    106 CB        -6.2516  -22.0276  -49.8562 C.3       19 UNK        -0.1800 
    107 C         -7.1718  -21.1152  -52.0194 C.2       19 UNK         0.5000 
    108 O         -7.9664  -20.2089  -51.7690 O.2       19 UNK        -0.5000 
    109 N         -7.3036  -21.9493  -53.0608 N.am      20 UNK        -0.5000 
    110 CA        -8.3009  -21.8199  -54.1264 C.3       20 UNK         0.1400 
    111 CB        -8.1266  -22.9861  -55.1115 C.3       20 UNK        -0.1800 
    112 C         -8.2445  -20.4695  -54.8775 C.2       20 UNK         0.5000 
    113 O         -9.2750  -20.0236  -55.3840 O.2       20 UNK        -0.5000 
    114 N         -7.0606  -19.8421  -54.9194 N.am      21 UNK        -0.5000 
    115 CA        -6.8324  -18.5027  -55.4573 C.3       21 UNK         0.1400 
    116 CB        -5.7098  -18.5687  -56.5053 C.3       21 UNK        -0.1800 
    117 C         -6.4660  -17.5089  -54.3400 C.2       21 UNK         0.5000 
    118 O         -6.9711  -16.3855  -54.3441 O.2       21 UNK        -0.5000 
    119 N         -5.5894  -17.9260  -53.4164 N.am      22 UNK        -0.5000 
    120 CA        -5.0279  -17.0826  -52.3459 C.3       22 UNK         0.1400 
    121 C         -5.9715  -16.8345  -51.1337 C.2       22 UNK         0.5000 
    122 N         -7.0819  -17.5443  -50.9802 N.am      22 UNK        -0.7600 
    123 O         -5.6944  -15.9629  -50.3147 O.2       22 UNK        -0.5000 
    124 C124       -3.6402  -17.5931  -51.8718 C.3       23 UNK        -0.0398 
    125 S125       -2.4275  -17.6527  -53.2349 S.3       23 UNK        -0.2404 
    126 C126       -1.2689  -18.9404  -52.6570 C.3       23 UNK        -0.0205 
    127 H127        3.1349  -17.3506  -45.5267 H         1 UNK         0.0600 
    128 H128        4.8136  -16.8332  -45.6942 H         1 UNK         0.0600 
    129 H129        3.8385  -17.1475  -47.1317 H         1 UNK         0.0600 
    130 H130        2.9846  -15.3217  -48.0934 H         1 UNK         0.3000 
    131 H131        1.5953  -13.2817  -46.8106 H         1 UNK         0.0600 
    132 H132        1.5386  -12.1487  -49.0004 H         1 UNK         0.0800 
    133 H133        2.8581  -13.1157  -49.5983 H         1 UNK         0.0800 
    134 H134        1.7162  -14.8958  -51.6465 H         1 UNK         0.0800 
    135 H135        2.8171  -15.3446  -50.3692 H         1 UNK         0.0800 
    136 H136       -0.1784  -16.4014  -52.2438 H         1 UNK         0.1150 
    137 H137        0.0536  -20.4623  -50.8706 H         1 UNK         0.1150 
    138 H138        2.6397  -17.4849  -49.2111 H         1 UNK         0.1150 
    139 H139        1.6628  -21.1259  -49.2948 H         1 UNK         0.0800 
    140 H140        3.1328  -20.1815  -49.2826 H         1 UNK         0.0800 
    141 H141        2.7707  -22.0169  -47.2269 H         1 UNK         0.0800 
    142 H142        2.7725  -21.2712  -45.6607 H         1 UNK         0.0800 
    143 H143        1.2614  -23.1951  -45.7883 H         1 UNK         0.0600 
    144 H144        0.3250  -20.6757  -44.8013 H         1 UNK         0.3000 
    145 H145       -2.3208  -22.2483  -42.8597 H         1 UNK         0.0600 
    146 H146       -1.1224  -20.9563  -41.1336 H         1 UNK         0.0600 
    147 H147       -0.1552  -22.3384  -41.6244 H         1 UNK         0.0600 
    148 H148        0.2572  -20.7308  -42.2053 H         1 UNK         0.0600 
    149 H149       -1.7267  -19.5028  -43.1418 H         1 UNK         0.3000 
    150 H150       -3.9830  -18.8201  -45.8538 H         1 UNK         0.0600 
    151 H151       -5.3155  -18.9030  -43.7373 H         1 UNK         0.0600 
    152 H152       -4.8402  -17.2589  -44.1369 H         1 UNK         0.0600 
    153 H153       -3.9931  -18.1363  -42.8654 H         1 UNK         0.0600 
    154 H154       -2.3260  -17.0595  -44.4009 H         1 UNK         0.3000 
    155 H155        0.6107  -17.3502  -46.4780 H         1 UNK         0.0600 
    156 H156       -1.5167  -15.2302  -45.8885 H         1 UNK         0.0600 
    157 H157       -0.9325  -15.7212  -47.4675 H         1 UNK         0.0600 
    158 H158        0.1459  -14.8977  -46.3487 H         1 UNK         0.0600 
    159 H159        0.2861  -15.8804  -44.1180 H         1 UNK         0.3000 
    160 H160        1.1880  -18.3743  -41.7081 H         1 UNK         0.0600 
    161 H161        2.5122  -15.7999  -42.7121 H         1 UNK         0.0600 
    162 H162        3.2882  -17.3703  -42.6014 H         1 UNK         0.0600 
    163 H163        2.7653  -16.5487  -41.1383 H         1 UNK         0.0600 
    164 H164        0.3174  -15.6275  -41.5673 H         1 UNK         0.3000 
    165 H165       -3.1453  -16.3238  -41.0754 H         1 UNK         0.0600 
    166 H166       -2.7060  -15.0474  -38.9951 H         1 UNK         0.0600 
    167 H167       -2.0883  -16.6841  -38.8393 H         1 UNK         0.0600 
    168 H168       -0.9747  -15.3541  -39.1354 H         1 UNK         0.0600 
    169 H169       -1.5866  -13.9135  -41.0508 H         1 UNK         0.3000 
    170 H170       -1.7228  -13.2258  -44.5314 H         1 UNK         0.0600 
    171 H171       -3.9772  -12.4956  -43.7425 H         1 UNK         0.0600 
    172 H172       -3.2773  -11.9143  -42.2364 H         1 UNK         0.0600 
    173 H173       -2.8460  -11.1525  -43.7681 H         1 UNK         0.0600 
    174 H174       -0.8063  -11.6982  -42.3037 H         1 UNK         0.3000 
    175 H175        1.5252  -11.3484  -42.1870 H         1 UNK         0.0600 
    176 H176        1.6983  -13.9831  -40.5903 H         1 UNK         0.0600 
    177 H177        2.2238  -12.4019  -40.0238 H         1 UNK         0.0600 
    178 H178        0.5221  -12.7121  -40.2769 H         1 UNK         0.0600 
    179 H179        2.9493  -13.5093  -43.3971 H         1 UNK         0.3000 
    180 H180        6.2408  -12.2296  -42.4838 H         1 UNK         0.0600 
    181 H181        4.8462  -14.9256  -42.8825 H         1 UNK         0.0600 
    182 H182        5.6357  -14.3818  -41.4104 H         1 UNK         0.0600 
    183 H183        6.5816  -14.6367  -42.8687 H         1 UNK         0.0600 
    184 H184        4.8615  -13.3853  -44.8459 H         1 UNK         0.3000 
    185 H185        5.6073  -10.6620  -46.9070 H         1 UNK         0.0600 
    186 H186        7.9618  -11.4811  -46.8621 H         1 UNK         0.0600 
    187 H187        7.4018  -13.1489  -46.8801 H         1 UNK         0.0600 
    188 H188        7.1113  -12.0994  -48.2684 H         1 UNK         0.0600 
    189 H189        5.0280  -13.4701  -47.3851 H         1 UNK         0.3000 
    190 H190       -1.0520  -20.8063  -47.1303 H         1 UNK         0.3000 
    191 H191       -1.3699  -22.1079  -49.6252 H         1 UNK         0.0600 
    192 H192       -3.3215  -20.2737  -48.1404 H         1 UNK         0.0600 
    193 H193       -3.3614  -20.6526  -49.8578 H         1 UNK         0.0600 
    194 H194       -2.0209  -19.7384  -49.2046 H         1 UNK         0.0600 
    195 H195       -2.9749  -22.6572  -46.4864 H         1 UNK         0.3000 
    196 H196       -4.9365  -24.5172  -47.5037 H         1 UNK         0.0600 
    197 H197       -5.2516  -25.0429  -45.0763 H         1 UNK         0.0600 
    198 H198       -5.2832  -23.3126  -45.3770 H         1 UNK         0.0600 
    199 H199       -3.8477  -24.0587  -44.6765 H         1 UNK         0.0600 
    200 H200       -1.6077  -24.8233  -46.2644 H         1 UNK         0.3000 
    201 H201       -1.5935  -27.7008  -46.1278 H         1 UNK         0.0600 
    202 H202       -0.0642  -26.2953  -44.7711 H         1 UNK         0.0600 
    203 H203        0.7152  -25.6886  -46.2301 H         1 UNK         0.0600 
    204 H204        0.8529  -27.3880  -45.7978 H         1 UNK         0.0600 
    205 H205       -0.5406  -25.3262  -48.5869 H         1 UNK         0.3000 
    206 H206        0.5802  -27.2156  -50.4263 H         1 UNK         0.0600 
    207 H207        1.2514  -24.8484  -50.4124 H         1 UNK         0.0600 
    208 H208        0.5138  -25.2008  -51.9688 H         1 UNK         0.0600 
    209 H209       -0.3975  -24.3288  -50.7398 H         1 UNK         0.0600 
    210 H210       -0.1864  -27.7644  -52.5393 H         1 UNK         0.3000 
    211 H211       -3.0224  -28.4237  -52.7546 H         1 UNK         0.0600 
    212 H212       -0.6827  -28.7527  -54.7162 H         1 UNK         0.0600 
    213 H213       -2.2913  -29.4359  -54.9171 H         1 UNK         0.0600 
    214 H214       -1.2696  -29.9840  -53.5975 H         1 UNK         0.0600 
    215 H215       -4.4783  -27.4943  -54.1582 H         1 UNK         0.3000 
    216 H216       -5.6174  -25.9290  -55.2132 H         1 UNK         0.0600 
    217 H217       -4.5811  -24.5595  -57.0267 H         1 UNK         0.0600 
    218 H218       -4.1870  -26.2626  -57.1757 H         1 UNK         0.0600 
    219 H219       -2.9813  -25.1345  -56.5760 H         1 UNK         0.0600 
    220 H220       -2.9343  -23.7260  -55.1853 H         1 UNK         0.3000 
    221 H221       -2.5207  -21.7423  -54.2202 H         1 UNK         0.0600 
    222 H222       -2.5926  -23.7492  -51.9255 H         1 UNK         0.0600 
    223 H223       -1.2424  -23.3575  -52.9758 H         1 UNK         0.0600 
    224 H224       -1.8174  -22.1639  -51.8277 H         1 UNK         0.0600 
    225 H225       -4.4333  -22.7643  -51.3928 H         1 UNK         0.3000 
    226 H226       -5.6005  -20.2565  -50.8713 H         1 UNK         0.0600 
    227 H227       -5.4675  -21.9130  -49.1108 H         1 UNK         0.0600 
    228 H228       -7.1695  -21.6499  -49.4034 H         1 UNK         0.0600 
    229 H229       -6.3906  -23.0932  -50.0424 H         1 UNK         0.0600 
    230 H230       -6.6156  -22.6892  -53.1671 H         1 UNK         0.3000 
    231 H231       -9.2876  -21.8998  -53.6661 H         1 UNK         0.0600 
    232 H232       -8.8803  -22.9493  -55.8991 H         1 UNK         0.0600 
    233 H233       -8.2292  -23.9476  -54.6079 H         1 UNK         0.0600 
    234 H234       -7.1475  -22.9618  -55.5917 H         1 UNK         0.0600 
    235 H235       -6.2645  -20.2764  -54.4625 H         1 UNK         0.3000 
    236 H236       -7.7317  -18.1276  -55.9501 H         1 UNK         0.0600 
    237 H237       -5.9831  -19.2244  -57.3321 H         1 UNK         0.0600 
    238 H238       -5.5079  -17.5822  -56.9245 H         1 UNK         0.0600 
    239 H239       -4.7782  -18.9415  -56.0770 H         1 UNK         0.0600 
    240 H240       -5.1897  -18.8578  -53.5001 H         1 UNK         0.3000 
    241 H241       -4.8627  -16.0934  -52.7777 H         1 UNK         0.0600 
    242 H242       -7.6775  -17.3498  -50.1915 H         1 UNK         0.3800 
    243 H243       -7.3314  -18.2978  -51.6095 H         1 UNK         0.3800 
    244 H244       -3.2296  -16.9456  -51.0948 H         1 UNK         0.0800 
    245 H245       -3.7380  -18.5840  -51.4269 H         1 UNK         0.0800 
    246 H246       -1.8438  -19.7639  -52.2343 H         1 UNK         0.0800 
    247 H247       -0.7533  -19.3445  -53.5289 H         1 UNK         0.0800 
@<TRIPOS>BOND
     1    1    2 1    
     2    1  127 1    
     3    1  128 1    
     4    1  129 1    
     5    2    3 2    
     6    2    4 am   BACKBONE|DICT|INTERRES
     7    4    5 1    
     8    4  130 1    
     9    5    6 1    
    10    5   65 1    
    11    5  131 1    
    12    6    7 1    
    13    6  132 1    
    14    6  133 1    
    15    7    8 1    
    16    8    9 1    
    17    8  134 1    
    18    8  135 1    
    19    9   10 ar   
    20    9   14 ar   
    21   10   11 ar   
    22   10  136 1    
    23   11   12 ar   
    24   11  126 1    
    25   12   13 ar   
    26   12  137 1    
    27   13   14 ar   
    28   13   15 1    
    29   14  138 1    
    30   15   16 1    
    31   15  139 1    
    32   15  140 1    
    33   16   17 1    
    34   17   18 1    
    35   17  141 1    
    36   17  142 1    
    37   18   19 1    
    38   18   67 1    
    39   18  143 1    
    40   19   20 am   BACKBONE|DICT|INTERRES
    41   19  144 1    
    42   20   21 2    
    43   20   22 1    
    44   22   23 1    
    45   22   24 1    
    46   22  145 1    
    47   23  146 1    
    48   23  147 1    
    49   23  148 1    
    50   24   25 am   BACKBONE|DICT|INTERRES
    51   24  149 1    
    52   25   26 2    
    53   25   27 1    
    54   27   28 1    
    55   27   29 1    
    56   27  150 1    
    57   28  151 1    
    58   28  152 1    
    59   28  153 1    
    60   29   30 am   BACKBONE|DICT|INTERRES
    61   29  154 1    
    62   30   31 2    
    63   30   32 1    
    64   32   33 1    
    65   32   34 1    
    66   32  155 1    
    67   33  156 1    
    68   33  157 1    
    69   33  158 1    
    70   34   35 am   BACKBONE|DICT|INTERRES
    71   34  159 1    
    72   35   36 2    
    73   35   37 1    
    74   37   38 1    
    75   37   39 1    
    76   37  160 1    
    77   38  161 1    
    78   38  162 1    
    79   38  163 1    
    80   39   40 am   BACKBONE|DICT|INTERRES
    81   39  164 1    
    82   40   41 2    
    83   40   42 1    
    84   42   43 1    
    85   42   44 1    
    86   42  165 1    
    87   43  166 1    
    88   43  167 1    
    89   43  168 1    
    90   44   45 am   BACKBONE|DICT|INTERRES
    91   44  169 1    
    92   45   46 2    
    93   45   47 1    
    94   47   48 1    
    95   47   49 1    
    96   47  170 1    
    97   48  171 1    
    98   48  172 1    
    99   48  173 1    
   100   49   50 am   BACKBONE|DICT|INTERRES
   101   49  174 1    
   102   50   51 2    
   103   50   52 1    
   104   52   53 1    
   105   52   54 1    
   106   52  175 1    
   107   53  176 1    
   108   53  177 1    
   109   53  178 1    
   110   54   55 am   BACKBONE|DICT|INTERRES
   111   54  179 1    
   112   55   56 2    
   113   55   57 1    
   114   57   58 1    
   115   57   59 1    
   116   57  180 1    
   117   58  181 1    
   118   58  182 1    
   119   58  183 1    
   120   59   60 am   BACKBONE|DICT|INTERRES
   121   59  184 1    
   122   60   61 2    
   123   60   62 1    
   124   62   63 1    
   125   62   64 1    
   126   62  185 1    
   127   63  186 1    
   128   63  187 1    
   129   63  188 1    
   130   64   65 am   BACKBONE|DICT|INTERRES
   131   64  189 1    
   132   65   66 2    
   133   67   68 2    
   134   67   69 am   BACKBONE|DICT|INTERRES
   135   69   70 1    
   136   69  190 1    
   137   70   71 1    
   138   70   72 1    
   139   70  191 1    
   140   71  192 1    
   141   71  193 1    
   142   71  194 1    
   143   72   73 2    
   144   72   74 am   BACKBONE|DICT|INTERRES
   145   74   75 1    
   146   74  195 1    
   147   75   76 1    
   148   75   77 1    
   149   75  196 1    
   150   76  197 1    
   151   76  198 1    
   152   76  199 1    
   153   77   78 2    
   154   77   79 am   BACKBONE|DICT|INTERRES
   155   79   80 1    
   156   79  200 1    
   157   80   81 1    
   158   80   82 1    
   159   80  201 1    
   160   81  202 1    
   161   81  203 1    
   162   81  204 1    
   163   82   83 2    
   164   82   84 am   BACKBONE|DICT|INTERRES
   165   84   85 1    
   166   84  205 1    
   167   85   86 1    
   168   85   87 1    
   169   85  206 1    
   170   86  207 1    
   171   86  208 1    
   172   86  209 1    
   173   87   88 2    
   174   87   89 am   BACKBONE|DICT|INTERRES
   175   89   90 1    
   176   89  210 1    
   177   90   91 1    
   178   90   92 1    
   179   90  211 1    
   180   91  212 1    
   181   91  213 1    
   182   91  214 1    
   183   92   93 2    
   184   92   94 am   BACKBONE|DICT|INTERRES
   185   94   95 1    
   186   94  215 1    
   187   95   96 1    
   188   95   97 1    
   189   95  216 1    
   190   96  217 1    
   191   96  218 1    
   192   96  219 1    
   193   97   98 2    
   194   97   99 am   BACKBONE|DICT|INTERRES
   195   99  100 1    
   196   99  220 1    
   197  100  101 1    
   198  100  102 1    
   199  100  221 1    
   200  101  222 1    
   201  101  223 1    
   202  101  224 1    
   203  102  103 2    
   204  102  104 am   BACKBONE|DICT|INTERRES
   205  104  105 1    
   206  104  225 1    
   207  105  106 1    
   208  105  107 1    
   209  105  226 1    
   210  106  227 1    
   211  106  228 1    
   212  106  229 1    
   213  107  108 2    
   214  107  109 am   BACKBONE|DICT|INTERRES
   215  109  110 1    
   216  109  230 1    
   217  110  111 1    
   218  110  112 1    
   219  110  231 1    
   220  111  232 1    
   221  111  233 1    
   222  111  234 1    
   223  112  113 2    
   224  112  114 am   BACKBONE|DICT|INTERRES
   225  114  115 1    
   226  114  235 1    
   227  115  116 1    
   228  115  117 1    
   229  115  236 1    
   230  116  237 1    
   231  116  238 1    
   232  116  239 1    
   233  117  118 2    
   234  117  119 am   BACKBONE|DICT|INTERRES
   235  119  120 1    
   236  119  240 1    
   237  120  121 1    
   238  120  124 1    
   239  120  241 1    
   240  121  122 am   BACKBONE|DICT|INTERRES
   241  121  123 2    
   242  122  242 1    
   243  122  243 1    
   244  124  125 1    
   245  124  244 1    
   246  124  245 1    
   247  125  126 1    
   248  126  246 1    
   249  126  247 1    
@<TRIPOS>SUBSTRUCTURE
     1 UNK         1 GROUP             0       ****    0 ROOT    
