@<TRIPOS>MOLECULE
3R540
247   249    1
SMALL
USER_CHARGES


@<TRIPOS>ATOM
      1 CA         -4.9595  -17.4536  -46.9497 C.3       0 UNK        -0.1800 
      2 C          -3.9739  -16.5356  -47.6581 C.2       0 UNK         0.5000 
      3 O          -3.9519  -16.5006  -48.8879 O.2       0 UNK        -0.5000 
      4 N          -3.1696  -15.7957  -46.8887 N.am      1 UNK        -0.5000 
      5 CA         -2.1780  -14.8356  -47.3728 C.3       1 UNK         0.1400 
      6 C6         -0.7223  -15.2952  -47.1148 C.3       23 UNK        -0.0398 
      7 S7         -0.3313  -16.8981  -47.8841 S.3       23 UNK        -0.2404 
      8 C8          0.8690  -16.4224  -49.1610 C.3       23 UNK        -0.0205 
      9 C9          1.2618  -17.6386  -49.9802 C.ar      23 UNK        -0.0193 
     10 C10         0.3384  -18.2055  -50.8618 C.ar      23 UNK        -0.1150 
     11 C11         0.6543  -19.3558  -51.5864 C.ar      23 UNK        -0.0193 
     12 C12         1.9141  -19.9383  -51.4247 C.ar      23 UNK        -0.1150 
     13 C13         2.8297  -19.4093  -50.5072 C.ar      23 UNK        -0.0193 
     14 C14         2.5111  -18.2406  -49.8100 C.ar      23 UNK        -0.1150 
     15 C15         4.1010  -20.1798  -50.1693 C.3       23 UNK        -0.0205 
     16 S16         3.9655  -21.0788  -48.5745 S.3       23 UNK        -0.2404 
     17 C17         2.2006  -21.5485  -48.5636 C.3       23 UNK        -0.0398 
     18 CA          1.7897  -22.6512  -47.5629 C.3       11 UNK         0.1400 
     19 N           2.1050  -22.3179  -46.1766 N.am      11 UNK        -0.5000 
     20 C           2.5941  -23.1928  -45.2899 C.2       10 UNK         0.5000 
     21 O           2.7275  -24.3967  -45.5131 O.2       10 UNK        -0.5000 
     22 CA          3.0414  -22.6253  -43.9320 C.3       10 UNK         0.1400 
     23 CB          4.2900  -21.7433  -44.0932 C.3       10 UNK        -0.1800 
     24 N           1.9882  -21.8709  -43.2572 N.am      10 UNK        -0.5000 
     25 C           0.9055  -22.4246  -42.6943 C.2       9 UNK         0.5000 
     26 O           0.6863  -23.6361  -42.6769 O.2       9 UNK        -0.5000 
     27 CA         -0.1033  -21.4662  -42.0335 C.3       9 UNK         0.1400 
     28 CB          0.3334  -21.1222  -40.6014 C.3       9 UNK        -0.1800 
     29 N          -0.2955  -20.2305  -42.7910 N.am      9 UNK        -0.5000 
     30 C          -0.8527  -20.1720  -44.0076 C.2       8 UNK         0.5000 
     31 O          -1.3062  -21.1513  -44.5966 O.2       8 UNK        -0.5000 
     32 CA         -0.8607  -18.7989  -44.7020 C.3       8 UNK         0.1400 
     33 CB         -1.9916  -17.9115  -44.1632 C.3       8 UNK        -0.1800 
     34 N           0.4202  -18.1089  -44.5718 N.am      8 UNK        -0.5000 
     35 C           1.5730  -18.5549  -45.0908 C.2       7 UNK         0.5000 
     36 O           1.6715  -19.5775  -45.7687 O.2       7 UNK        -0.5000 
     37 CA          2.8355  -17.7487  -44.7496 C.3       7 UNK         0.1400 
     38 CB          3.0196  -16.5852  -45.7351 C.3       7 UNK        -0.1800 
     39 N           2.7977  -17.2435  -43.3756 N.am      7 UNK        -0.5000 
     40 C           2.9170  -18.0183  -42.2872 C.2       6 UNK         0.5000 
     41 O           3.1147  -19.2319  -42.3327 O.2       6 UNK        -0.5000 
     42 CA          2.7424  -17.3310  -40.9198 C.3       6 UNK         0.1400 
     43 CB          4.0441  -16.6383  -40.4897 C.3       6 UNK        -0.1800 
     44 N           1.6483  -16.3589  -40.9126 N.am      6 UNK        -0.5000 
     45 C           0.3536  -16.6760  -41.0551 C.2       5 UNK         0.5000 
     46 O          -0.0567  -17.8318  -41.1536 O.2       5 UNK        -0.5000 
     47 CA         -0.6473  -15.5062  -41.1526 C.3       5 UNK         0.1400 
     48 CB         -1.1705  -15.1298  -39.7588 C.3       5 UNK        -0.1800 
     49 N          -0.1136  -14.3071  -41.8092 N.am      5 UNK        -0.5000 
     50 C           0.4025  -14.2706  -43.0450 C.2       4 UNK         0.5000 
     51 O           0.5071  -15.2633  -43.7657 O.2       4 UNK        -0.5000 
     52 CA          0.8717  -12.8965  -43.5390 C.3       4 UNK         0.1400 
     53 CB          1.6021  -12.9500  -44.8931 C.3       4 UNK        -0.1800 
     54 N          -0.2783  -12.0038  -43.6413 N.am      4 UNK        -0.5000 
     55 C          -0.2675  -10.7052  -43.3142 C.2       3 UNK         0.5000 
     56 O           0.7132  -10.1380  -42.8283 O.2       3 UNK        -0.5000 
     57 CA         -1.5684   -9.9091  -43.5657 C.3       3 UNK         0.1400 
     58 CB         -1.3220   -8.3929  -43.7166 C.3       3 UNK        -0.1800 
     59 N          -2.3664  -10.4145  -44.6899 N.am      3 UNK        -0.5000 
     60 C          -1.9940  -10.5103  -45.9749 C.2       2 UNK         0.5000 
     61 O          -0.8898  -10.1789  -46.4108 O.2       2 UNK        -0.5000 
     62 CA         -3.0420  -11.1055  -46.9338 C.3       2 UNK         0.1400 
     63 CB         -3.2811  -10.1822  -48.1398 C.3       2 UNK        -0.1800 
     64 N          -2.6671  -12.4355  -47.4164 N.am      2 UNK        -0.5000 
     65 C          -2.4664  -13.5133  -46.6467 C.2       1 UNK         0.5000 
     66 O          -2.5258  -13.5035  -45.4133 O.2       1 UNK        -0.5000 
     67 C           0.2891  -22.9396  -47.7268 C.2       11 UNK         0.5000 
     68 O          -0.0743  -24.0630  -48.0705 O.2       11 UNK        -0.5000 
     69 N          -0.5511  -21.9089  -47.5447 N.am      12 UNK        -0.5000 
     70 CA         -1.9506  -21.8923  -47.9861 C.3       12 UNK         0.1400 
     71 CB         -2.5521  -20.4933  -47.7811 C.3       12 UNK        -0.1800 
     72 C          -2.8289  -22.9694  -47.3290 C.2       12 UNK         0.5000 
     73 O          -3.6482  -23.5854  -48.0102 O.2       12 UNK        -0.5000 
     74 N          -2.6097  -23.2081  -46.0311 N.am      13 UNK        -0.5000 
     75 CA         -3.2747  -24.2480  -45.2480 C.3       13 UNK         0.1400 
     76 CB         -2.9699  -24.0238  -43.7594 C.3       13 UNK        -0.1800 
     77 C          -2.8811  -25.6769  -45.6715 C.2       13 UNK         0.5000 
     78 O          -3.7052  -26.5848  -45.5587 O.2       13 UNK        -0.5000 
     79 N          -1.6439  -25.8532  -46.1561 N.am      14 UNK        -0.5000 
     80 CA         -1.1303  -27.1261  -46.6635 C.3       14 UNK         0.1400 
     81 CB          0.4011  -27.1503  -46.5356 C.3       14 UNK        -0.1800 
     82 C          -1.5680  -27.3701  -48.1181 C.2       14 UNK         0.5000 
     83 O          -1.9397  -28.4924  -48.4628 O.2       14 UNK        -0.5000 
     84 N          -1.5355  -26.3099  -48.9374 N.am      15 UNK        -0.5000 
     85 CA         -1.9814  -26.3036  -50.3320 C.3       15 UNK         0.1400 
     86 CB         -1.5007  -25.0051  -51.0014 C.3       15 UNK        -0.1800 
     87 C          -3.5087  -26.4391  -50.4811 C.2       15 UNK         0.5000 
     88 O          -3.9721  -26.9309  -51.5105 O.2       15 UNK        -0.5000 
     89 N          -4.2486  -25.9848  -49.4587 N.am      16 UNK        -0.5000 
     90 CA         -5.7066  -25.8630  -49.3876 C.3       16 UNK         0.1400 
     91 CB         -6.3895  -27.2452  -49.4531 C.3       16 UNK        -0.1800 
     92 C          -6.2518  -24.8540  -50.4200 C.2       16 UNK         0.5000 
     93 O          -7.3119  -25.0769  -51.0083 O.2       16 UNK        -0.5000 
     94 N          -5.5090  -23.7594  -50.6223 N.am      17 UNK        -0.5000 
     95 CA         -5.8152  -22.6913  -51.5653 C.3       17 UNK         0.1400 
     96 CB         -5.3824  -23.0974  -52.9833 C.3       17 UNK        -0.1800 
     97 C          -5.0933  -21.4154  -51.1207 C.2       17 UNK         0.5000 
     98 O          -3.9405  -21.4863  -50.6915 O.2       17 UNK        -0.5000 
     99 N          -5.7855  -20.2785  -51.2406 N.am      18 UNK        -0.5000 
    100 CA        -5.2828  -18.9476  -50.9040 C.3       18 UNK         0.1400 
    101 CB        -6.4894  -18.0035  -50.7641 C.3       18 UNK        -0.1800 
    102 C         -4.2862  -18.4076  -51.9482 C.2       18 UNK         0.5000 
    103 O         -4.1499  -18.9744  -53.0364 O.2       18 UNK        -0.5000 
    104 N         -3.6313  -17.2956  -51.5933 N.am      19 UNK        -0.5000 
    105 CA        -2.6954  -16.5334  -52.4201 C.3       19 UNK         0.1400 
    106 CB        -2.2135  -15.3154  -51.6171 C.3       19 UNK        -0.1800 
    107 C         -3.2690  -16.0913  -53.7779 C.2       19 UNK         0.5000 
    108 O         -4.4818  -15.9194  -53.9194 O.2       19 UNK        -0.5000 
    109 N         -2.3666  -15.9399  -54.7560 N.am      20 UNK        -0.5000 
    110 CA        -2.5873  -15.6567  -56.1809 C.3       20 UNK         0.1400 
    111 CB        -3.4018  -14.3674  -56.4028 C.3       20 UNK        -0.1800 
    112 C         -3.1783  -16.8461  -56.9638 C.2       20 UNK         0.5000 
    113 O         -2.7769  -17.0641  -58.1076 O.2       20 UNK        -0.5000 
    114 N         -4.0856  -17.6091  -56.3413 N.am      21 UNK        -0.5000 
    115 CA        -4.5997  -18.8756  -56.8516 C.3       21 UNK         0.1400 
    116 CB        -5.9442  -19.2002  -56.1768 C.3       21 UNK        -0.1800 
    117 C         -3.5635  -19.9938  -56.6459 C.2       21 UNK         0.5000 
    118 O         -3.0311  -20.5154  -57.6259 O.2       21 UNK        -0.5000 
    119 N         -3.2904  -20.3224  -55.3753 N.am      22 UNK        -0.5000 
    120 CA        -2.3113  -21.3205  -54.9063 C.3       22 UNK         0.1400 
    121 C         -2.5378  -22.7886  -55.3912 C.2       22 UNK         0.5000 
    122 N         -3.6862  -23.1381  -55.9572 N.am      22 UNK        -0.7600 
    123 O         -1.6729  -23.6423  -55.2159 O.2       22 UNK        -0.5000 
    124 C124       -0.8409  -20.8512  -55.1035 C.3       23 UNK        -0.0398 
    125 S125       -0.4235  -19.3466  -54.1540 S.3       23 UNK        -0.2404 
    126 C126       -0.3927  -20.0254  -52.4640 C.3       23 UNK        -0.0205 
    127 H127       -4.7555  -18.4924  -47.2066 H         1 UNK         0.0600 
    128 H128       -5.9778  -17.2196  -47.2600 H         1 UNK         0.0600 
    129 H129       -4.9017  -17.3526  -45.8658 H         1 UNK         0.0600 
    130 H130       -3.2747  -15.8127  -45.8840 H         1 UNK         0.3000 
    131 H131       -2.2999  -14.6726  -48.4453 H         1 UNK         0.0600 
    132 H132       -0.0169  -14.5439  -47.4723 H         1 UNK         0.0800 
    133 H133       -0.5419  -15.4017  -46.0464 H         1 UNK         0.0800 
    134 H134        1.7441  -15.9738  -48.6887 H         1 UNK         0.0800 
    135 H135        0.4395  -15.6622  -49.8139 H         1 UNK         0.0800 
    136 H136       -0.6465  -17.7751  -50.9357 H         1 UNK         0.1150 
    137 H137        2.1503  -20.8515  -51.9528 H         1 UNK         0.1150 
    138 H138        3.2093  -17.8421  -49.0877 H         1 UNK         0.1150 
    139 H139        4.3295  -20.8968  -50.9593 H         1 UNK         0.0800 
    140 H140        4.9478  -19.4938  -50.1243 H         1 UNK         0.0800 
    141 H141        1.9433  -21.8839  -49.5693 H         1 UNK         0.0800 
    142 H142        1.6317  -20.6349  -48.3808 H         1 UNK         0.0800 
    143 H143        2.3279  -23.5564  -47.8530 H         1 UNK         0.0600 
    144 H144        2.0054  -21.3377  -45.9174 H         1 UNK         0.3000 
    145 H145        3.3142  -23.4690  -43.2944 H         1 UNK         0.0600 
    146 H146        4.6739  -21.4240  -43.1242 H         1 UNK         0.0600 
    147 H147        5.0903  -22.2869  -44.5967 H         1 UNK         0.0600 
    148 H148        4.0808  -20.8493  -44.6811 H         1 UNK         0.0600 
    149 H149        2.1238  -20.8694  -43.1786 H         1 UNK         0.3000 
    150 H150       -1.0649  -21.9810  -41.9813 H         1 UNK         0.0600 
    151 H151        0.4726  -22.0258  -40.0066 H         1 UNK         0.0600 
    152 H152       -0.4166  -20.5125  -40.0972 H         1 UNK         0.0600 
    153 H153        1.2743  -20.5708  -40.5895 H         1 UNK         0.0600 
    154 H154        0.0032  -19.3685  -42.3441 H         1 UNK         0.3000 
    155 H155       -1.0307  -18.9569  -45.7672 H         1 UNK         0.0600 
    156 H156       -1.9472  -17.8124  -43.0793 H         1 UNK         0.0600 
    157 H157       -1.9477  -16.9105  -44.5902 H         1 UNK         0.0600 
    158 H158       -2.9650  -18.3354  -44.4119 H         1 UNK         0.0600 
    159 H159        0.4251  -17.2243  -44.0745 H         1 UNK         0.3000 
    160 H160        3.6969  -18.4124  -44.8467 H         1 UNK         0.0600 
    161 H161        2.1579  -15.9178  -45.7421 H         1 UNK         0.0600 
    162 H162        3.1452  -16.9603  -46.7511 H         1 UNK         0.0600 
    163 H163        3.9036  -15.9951  -45.4938 H         1 UNK         0.0600 
    164 H164        2.5503  -16.2714  -43.2593 H         1 UNK         0.3000 
    165 H165        2.5109  -18.1063  -40.1863 H         1 UNK         0.0600 
    166 H166        3.9545  -16.2184  -39.4877 H         1 UNK         0.0600 
    167 H167        4.8741  -17.3459  -40.4713 H         1 UNK         0.0600 
    168 H168        4.3164  -15.8303  -41.1699 H         1 UNK         0.0600 
    169 H169        1.8996  -15.3847  -40.8348 H         1 UNK         0.3000 
    170 H170       -1.4931  -15.8512  -41.7497 H         1 UNK         0.0600 
    171 H171       -1.5963  -15.9980  -39.2537 H         1 UNK         0.0600 
    172 H172       -0.3761  -14.7369  -39.1231 H         1 UNK         0.0600 
    173 H173       -1.9553  -14.3759  -39.8218 H         1 UNK         0.0600 
    174 H174       -0.1745  -13.4443  -41.2880 H         1 UNK         0.3000 
    175 H175        1.5756  -12.5260  -42.7910 H         1 UNK         0.0600 
    176 H176        0.9454  -13.2985  -45.6889 H         1 UNK         0.0600 
    177 H177        1.9724  -11.9650  -45.1777 H         1 UNK         0.0600 
    178 H178        2.4616  -13.6195  -44.8503 H         1 UNK         0.0600 
    179 H179       -1.1229  -12.4093  -44.0301 H         1 UNK         0.3000 
    180 H180       -2.1795  -10.0525  -42.6735 H         1 UNK         0.0600 
    181 H181       -0.6598   -8.1719  -44.5543 H         1 UNK         0.0600 
    182 H182       -0.8624   -7.9781  -42.8186 H         1 UNK         0.0600 
    183 H183       -2.2565   -7.8553  -43.8769 H         1 UNK         0.0600 
    184 H184       -3.2832  -10.7594  -44.4403 H         1 UNK         0.3000 
    185 H185       -3.9895  -11.2042  -46.3997 H         1 UNK         0.0600 
    186 H186       -3.5657   -9.1810  -47.8137 H         1 UNK         0.0600 
    187 H187       -2.3873  -10.0841  -48.7574 H         1 UNK         0.0600 
    188 H188       -4.0861  -10.5579  -48.7718 H         1 UNK         0.0600 
    189 H189       -2.5810  -12.5290  -48.4178 H         1 UNK         0.3000 
    190 H190       -0.1814  -21.0383  -47.1906 H         1 UNK         0.3000 
    191 H191       -1.9399  -22.0943  -49.0584 H         1 UNK         0.0600 
    192 H192       -2.6690  -20.2521  -46.7258 H         1 UNK         0.0600 
    193 H193       -3.5428  -20.4338  -48.2315 H         1 UNK         0.0600 
    194 H194       -1.9392  -19.7202  -48.2456 H         1 UNK         0.0600 
    195 H195       -1.9610  -22.5995  -45.5345 H         1 UNK         0.3000 
    196 H196       -4.3516  -24.1438  -45.3962 H         1 UNK         0.0600 
    197 H197       -3.4781  -24.7630  -43.1390 H         1 UNK         0.0600 
    198 H198       -3.3029  -23.0385  -43.4324 H         1 UNK         0.0600 
    199 H199       -1.9016  -24.0999  -43.5550 H         1 UNK         0.0600 
    200 H200       -1.0479  -25.0448  -46.2743 H         1 UNK         0.3000 
    201 H201       -1.5278  -27.9392  -46.0522 H         1 UNK         0.0600 
    202 H202        0.7119  -27.0134  -45.4996 H         1 UNK         0.0600 
    203 H203        0.8740  -26.3679  -47.1295 H         1 UNK         0.0600 
    204 H204        0.8043  -28.1058  -46.8731 H         1 UNK         0.0600 
    205 H205       -1.1447  -25.4390  -48.5831 H         1 UNK         0.3000 
    206 H206       -1.5179  -27.1496  -50.8434 H         1 UNK         0.0600 
    207 H207       -0.4157  -24.9121  -50.9507 H         1 UNK         0.0600 
    208 H208       -1.7815  -24.9795  -52.0553 H         1 UNK         0.0600 
    209 H209       -1.9344  -24.1243  -50.5260 H         1 UNK         0.0600 
    210 H210       -3.7533  -25.5205  -48.7059 H         1 UNK         0.3000 
    211 H211       -5.9239  -25.4378  -48.4067 H         1 UNK         0.0600 
    212 H212       -6.2828  -27.7071  -50.4348 H         1 UNK         0.0600 
    213 H213       -7.4572  -27.1615  -49.2474 H         1 UNK         0.0600 
    214 H214       -5.9693  -27.9267  -48.7134 H         1 UNK         0.0600 
    215 H215       -4.6783  -23.6105  -50.0585 H         1 UNK         0.3000 
    216 H216       -6.8915  -22.5055  -51.5568 H         1 UNK         0.0600 
    217 H217       -5.5405  -22.2822  -53.6906 H         1 UNK         0.0600 
    218 H218       -5.9498  -23.9559  -53.3425 H         1 UNK         0.0600 
    219 H219       -4.3248  -23.3616  -53.0123 H         1 UNK         0.0600 
    220 H220       -6.7091  -20.3106  -51.6457 H         1 UNK         0.3000 
    221 H221       -4.7679  -19.0037  -49.9427 H         1 UNK         0.0600 
    222 H222       -7.0344  -17.9071  -51.7040 H         1 UNK         0.0600 
    223 H223       -7.1852  -18.3625  -50.0056 H         1 UNK         0.0600 
    224 H224       -6.1785  -17.0023  -50.4638 H         1 UNK         0.0600 
    225 H225       -3.8072  -16.9170  -50.6640 H         1 UNK         0.3000 
    226 H226       -1.8473  -17.1840  -52.6279 H         1 UNK         0.0600 
    227 H227       -1.4501  -14.7585  -52.1614 H         1 UNK         0.0600 
    228 H228       -3.0342  -14.6298  -51.4024 H         1 UNK         0.0600 
    229 H229       -1.7797  -15.6193  -50.6654 H         1 UNK         0.0600 
    230 H230       -1.4015  -16.1298  -54.5231 H         1 UNK         0.3000 
    231 H231       -1.5925  -15.4817  -56.5940 H         1 UNK         0.0600 
    232 H232       -3.4142  -14.0974  -57.4593 H         1 UNK         0.0600 
    233 H233       -2.9700  -13.5282  -55.8576 H         1 UNK         0.0600 
    234 H234       -4.4396  -14.4765  -56.0876 H         1 UNK         0.0600 
    235 H235       -4.3661  -17.3404  -55.4047 H         1 UNK         0.3000 
    236 H236       -4.7819  -18.7786  -57.9242 H         1 UNK         0.0600 
    237 H237       -6.6934  -18.4466  -56.4199 H         1 UNK         0.0600 
    238 H238       -6.3297  -20.1619  -56.5174 H         1 UNK         0.0600 
    239 H239       -5.8624  -19.2442  -55.0907 H         1 UNK         0.0600 
    240 H240       -3.7505  -19.8064  -54.6273 H         1 UNK         0.3000 
    241 H241       -2.4865  -21.3865  -53.8322 H         1 UNK         0.0600 
    242 H242       -4.4055  -22.4540  -56.1218 H         1 UNK         0.3800 
    243 H243       -3.8208  -24.0914  -56.2541 H         1 UNK         0.3800 
    244 H244       -0.1325  -21.6272  -54.8094 H         1 UNK         0.0800 
    245 H245       -0.6452  -20.6593  -56.1591 H         1 UNK         0.0800 
    246 H246       -0.2032  -21.0995  -52.4922 H         1 UNK         0.0800 
    247 H247       -1.3824  -19.9100  -52.0180 H         1 UNK         0.0800 
@<TRIPOS>BOND
     1    1    2 1    
     2    1  127 1    
     3    1  128 1    
     4    1  129 1    
     5    2    3 2    
     6    2    4 am   BACKBONE|DICT|INTERRES
     7    4    5 1    
     8    4  130 1    
     9    5    6 1    
    10    5   65 1    
    11    5  131 1    
    12    6    7 1    
    13    6  132 1    
    14    6  133 1    
    15    7    8 1    
    16    8    9 1    
    17    8  134 1    
    18    8  135 1    
    19    9   10 ar   
    20    9   14 ar   
    21   10   11 ar   
    22   10  136 1    
    23   11   12 ar   
    24   11  126 1    
    25   12   13 ar   
    26   12  137 1    
    27   13   14 ar   
    28   13   15 1    
    29   14  138 1    
    30   15   16 1    
    31   15  139 1    
    32   15  140 1    
    33   16   17 1    
    34   17   18 1    
    35   17  141 1    
    36   17  142 1    
    37   18   19 1    
    38   18   67 1    
    39   18  143 1    
    40   19   20 am   BACKBONE|DICT|INTERRES
    41   19  144 1    
    42   20   21 2    
    43   20   22 1    
    44   22   23 1    
    45   22   24 1    
    46   22  145 1    
    47   23  146 1    
    48   23  147 1    
    49   23  148 1    
    50   24   25 am   BACKBONE|DICT|INTERRES
    51   24  149 1    
    52   25   26 2    
    53   25   27 1    
    54   27   28 1    
    55   27   29 1    
    56   27  150 1    
    57   28  151 1    
    58   28  152 1    
    59   28  153 1    
    60   29   30 am   BACKBONE|DICT|INTERRES
    61   29  154 1    
    62   30   31 2    
    63   30   32 1    
    64   32   33 1    
    65   32   34 1    
    66   32  155 1    
    67   33  156 1    
    68   33  157 1    
    69   33  158 1    
    70   34   35 am   BACKBONE|DICT|INTERRES
    71   34  159 1    
    72   35   36 2    
    73   35   37 1    
    74   37   38 1    
    75   37   39 1    
    76   37  160 1    
    77   38  161 1    
    78   38  162 1    
    79   38  163 1    
    80   39   40 am   BACKBONE|DICT|INTERRES
    81   39  164 1    
    82   40   41 2    
    83   40   42 1    
    84   42   43 1    
    85   42   44 1    
    86   42  165 1    
    87   43  166 1    
    88   43  167 1    
    89   43  168 1    
    90   44   45 am   BACKBONE|DICT|INTERRES
    91   44  169 1    
    92   45   46 2    
    93   45   47 1    
    94   47   48 1    
    95   47   49 1    
    96   47  170 1    
    97   48  171 1    
    98   48  172 1    
    99   48  173 1    
   100   49   50 am   BACKBONE|DICT|INTERRES
   101   49  174 1    
   102   50   51 2    
   103   50   52 1    
   104   52   53 1    
   105   52   54 1    
   106   52  175 1    
   107   53  176 1    
   108   53  177 1    
   109   53  178 1    
   110   54   55 am   BACKBONE|DICT|INTERRES
   111   54  179 1    
   112   55   56 2    
   113   55   57 1    
   114   57   58 1    
   115   57   59 1    
   116   57  180 1    
   117   58  181 1    
   118   58  182 1    
   119   58  183 1    
   120   59   60 am   BACKBONE|DICT|INTERRES
   121   59  184 1    
   122   60   61 2    
   123   60   62 1    
   124   62   63 1    
   125   62   64 1    
   126   62  185 1    
   127   63  186 1    
   128   63  187 1    
   129   63  188 1    
   130   64   65 am   BACKBONE|DICT|INTERRES
   131   64  189 1    
   132   65   66 2    
   133   67   68 2    
   134   67   69 am   BACKBONE|DICT|INTERRES
   135   69   70 1    
   136   69  190 1    
   137   70   71 1    
   138   70   72 1    
   139   70  191 1    
   140   71  192 1    
   141   71  193 1    
   142   71  194 1    
   143   72   73 2    
   144   72   74 am   BACKBONE|DICT|INTERRES
   145   74   75 1    
   146   74  195 1    
   147   75   76 1    
   148   75   77 1    
   149   75  196 1    
   150   76  197 1    
   151   76  198 1    
   152   76  199 1    
   153   77   78 2    
   154   77   79 am   BACKBONE|DICT|INTERRES
   155   79   80 1    
   156   79  200 1    
   157   80   81 1    
   158   80   82 1    
   159   80  201 1    
   160   81  202 1    
   161   81  203 1    
   162   81  204 1    
   163   82   83 2    
   164   82   84 am   BACKBONE|DICT|INTERRES
   165   84   85 1    
   166   84  205 1    
   167   85   86 1    
   168   85   87 1    
   169   85  206 1    
   170   86  207 1    
   171   86  208 1    
   172   86  209 1    
   173   87   88 2    
   174   87   89 am   BACKBONE|DICT|INTERRES
   175   89   90 1    
   176   89  210 1    
   177   90   91 1    
   178   90   92 1    
   179   90  211 1    
   180   91  212 1    
   181   91  213 1    
   182   91  214 1    
   183   92   93 2    
   184   92   94 am   BACKBONE|DICT|INTERRES
   185   94   95 1    
   186   94  215 1    
   187   95   96 1    
   188   95   97 1    
   189   95  216 1    
   190   96  217 1    
   191   96  218 1    
   192   96  219 1    
   193   97   98 2    
   194   97   99 am   BACKBONE|DICT|INTERRES
   195   99  100 1    
   196   99  220 1    
   197  100  101 1    
   198  100  102 1    
   199  100  221 1    
   200  101  222 1    
   201  101  223 1    
   202  101  224 1    
   203  102  103 2    
   204  102  104 am   BACKBONE|DICT|INTERRES
   205  104  105 1    
   206  104  225 1    
   207  105  106 1    
   208  105  107 1    
   209  105  226 1    
   210  106  227 1    
   211  106  228 1    
   212  106  229 1    
   213  107  108 2    
   214  107  109 am   BACKBONE|DICT|INTERRES
   215  109  110 1    
   216  109  230 1    
   217  110  111 1    
   218  110  112 1    
   219  110  231 1    
   220  111  232 1    
   221  111  233 1    
   222  111  234 1    
   223  112  113 2    
   224  112  114 am   BACKBONE|DICT|INTERRES
   225  114  115 1    
   226  114  235 1    
   227  115  116 1    
   228  115  117 1    
   229  115  236 1    
   230  116  237 1    
   231  116  238 1    
   232  116  239 1    
   233  117  118 2    
   234  117  119 am   BACKBONE|DICT|INTERRES
   235  119  120 1    
   236  119  240 1    
   237  120  121 1    
   238  120  124 1    
   239  120  241 1    
   240  121  122 am   BACKBONE|DICT|INTERRES
   241  121  123 2    
   242  122  242 1    
   243  122  243 1    
   244  124  125 1    
   245  124  244 1    
   246  124  245 1    
   247  125  126 1    
   248  126  246 1    
   249  126  247 1    
@<TRIPOS>SUBSTRUCTURE
     1 UNK         1 GROUP             0       ****    0 ROOT    
