@<TRIPOS>MOLECULE
3R540
247   249    1
SMALL
USER_CHARGES


@<TRIPOS>ATOM
      1 CA         -1.2242   -9.1613  -42.9138 C.3       0 UNK        -0.1800 
      2 C          -0.5589  -10.1498  -43.8614 C.2       0 UNK         0.5000 
      3 O           0.6692  -10.1883  -43.9429 O.2       0 UNK        -0.5000 
      4 N          -1.3632  -10.9405  -44.5827 N.am      1 UNK        -0.5000 
      5 CA         -0.9046  -11.9998  -45.4854 C.3       1 UNK         0.1400 
      6 C6         -2.0344  -12.4324  -46.4513 C.3       23 UNK        -0.0398 
      7 S7         -1.4162  -13.3703  -47.8879 S.3       23 UNK        -0.2404 
      8 C8         -2.9044  -13.4134  -48.9321 C.3       23 UNK        -0.0205 
      9 C9         -2.9296  -14.6808  -49.7677 C.ar      23 UNK        -0.0193 
     10 C10        -2.4923  -14.6771  -51.0966 C.ar      23 UNK        -0.1150 
     11 C11        -2.4840  -15.8626  -51.8397 C.ar      23 UNK        -0.0193 
     12 C12        -2.9253  -17.0456  -51.2450 C.ar      23 UNK        -0.1150 
     13 C13        -3.3717  -17.0624  -49.9237 C.ar      23 UNK        -0.0193 
     14 C14        -3.3692  -15.8739  -49.1895 C.ar      23 UNK        -0.1150 
     15 C15        -3.7844  -18.3732  -49.2739 C.3       23 UNK        -0.0205 
     16 S16        -5.4257  -18.2686  -48.4828 S.3       23 UNK        -0.2404 
     17 C17        -5.6140  -19.8589  -47.5951 C.3       23 UNK        -0.0398 
     18 CA         -4.3251  -20.4589  -46.9792 C.3       11 UNK         0.1400 
     19 N          -3.5812  -19.4844  -46.1757 N.am      11 UNK        -0.5000 
     20 C          -2.3674  -19.6808  -45.6464 C.2       10 UNK         0.5000 
     21 O          -1.7736  -20.7567  -45.6932 O.2       10 UNK        -0.5000 
     22 CA         -1.7091  -18.4925  -44.9225 C.3       10 UNK         0.1400 
     23 CB         -2.3278  -17.1215  -45.2736 C.3       10 UNK        -0.1800 
     24 N          -1.6742  -18.6674  -43.4705 N.am      10 UNK        -0.5000 
     25 C          -2.6960  -18.9734  -42.6515 C.2       9 UNK         0.5000 
     26 O          -3.8244  -19.2833  -43.0377 O.2       9 UNK        -0.5000 
     27 CA         -2.4180  -18.9066  -41.1343 C.3       9 UNK         0.1400 
     28 CB         -2.1688  -20.3107  -40.5660 C.3       9 UNK        -0.1800 
     29 N          -1.2764  -18.0554  -40.7939 N.am      9 UNK        -0.5000 
     30 C          -1.2146  -16.7296  -40.9832 C.2       8 UNK         0.5000 
     31 O          -2.1831  -16.0463  -41.3149 O.2       8 UNK        -0.5000 
     32 CA          0.1628  -16.0584  -40.8000 C.3       8 UNK         0.1400 
     33 CB          0.1767  -15.1864  -39.5352 C.3       8 UNK        -0.1800 
     34 N           1.2953  -16.9921  -40.7410 N.am      8 UNK        -0.5000 
     35 C           1.7209  -17.7815  -41.7366 C.2       7 UNK         0.5000 
     36 O           1.1727  -17.8580  -42.8395 O.2       7 UNK        -0.5000 
     37 CA          2.9460  -18.6579  -41.4290 C.3       7 UNK         0.1400 
     38 CB          2.5989  -20.1518  -41.5205 C.3       7 UNK        -0.1800 
     39 N           4.0429  -18.3496  -42.3435 N.am      7 UNK        -0.5000 
     40 C           4.8430  -17.2790  -42.2095 C.2       6 UNK         0.5000 
     41 O           4.7317  -16.4771  -41.2807 O.2       6 UNK        -0.5000 
     42 CA          5.9531  -17.0448  -43.2529 C.3       6 UNK         0.1400 
     43 CB          7.3458  -17.0293  -42.5948 C.3       6 UNK        -0.1800 
     44 N           5.9310  -18.0334  -44.3262 N.am      6 UNK        -0.5000 
     45 C           6.3662  -17.8496  -45.5746 C.2       5 UNK         0.5000 
     46 O           6.8896  -16.8093  -45.9760 O.2       5 UNK        -0.5000 
     47 CA          6.1869  -19.0354  -46.5424 C.3       5 UNK         0.1400 
     48 CB          7.0807  -20.2284  -46.1502 C.3       5 UNK        -0.1800 
     49 N           4.7899  -19.4493  -46.7229 N.am      5 UNK        -0.5000 
     50 C           3.9287  -19.9610  -45.8326 C.2       4 UNK         0.5000 
     51 O           4.2030  -20.1780  -44.6494 O.2       4 UNK        -0.5000 
     52 CA          2.5061  -20.2249  -46.3625 C.3       4 UNK         0.1400 
     53 CB          1.6235  -20.9817  -45.3601 C.3       4 UNK        -0.1800 
     54 N           1.8447  -18.9701  -46.7157 N.am      4 UNK        -0.5000 
     55 C           2.0379  -18.2897  -47.8519 C.2       3 UNK         0.5000 
     56 O           2.7621  -18.6897  -48.7647 O.2       3 UNK        -0.5000 
     57 CA          1.3300  -16.9277  -47.9894 C.3       3 UNK         0.1400 
     58 CB          0.0288  -17.0916  -48.7881 C.3       3 UNK        -0.1800 
     59 N           1.0272  -16.2435  -46.7258 N.am      3 UNK        -0.5000 
     60 C           1.9214  -15.8648  -45.7995 C.2       2 UNK         0.5000 
     61 O           3.1235  -16.1235  -45.8581 O.2       2 UNK        -0.5000 
     62 CA          1.3660  -14.9995  -44.6573 C.3       2 UNK         0.1400 
     63 CB          2.4431  -14.5276  -43.6624 C.3       2 UNK        -0.1800 
     64 N           0.6882  -13.8433  -45.2346 N.am      2 UNK        -0.5000 
     65 C          -0.3437  -13.1969  -44.6841 C.2       1 UNK         0.5000 
     66 O          -0.8601  -13.5180  -43.6110 O.2       1 UNK        -0.5000 
     67 C          -4.6498  -21.7550  -46.2104 C.2       11 UNK         0.5000 
     68 O          -4.7049  -22.8156  -46.8324 O.2       11 UNK        -0.5000 
     69 N          -4.8243  -21.6605  -44.8837 N.am      12 UNK        -0.5000 
     70 CA         -5.0673  -22.8090  -44.0106 C.3       12 UNK         0.1400 
     71 CB         -5.5956  -22.3202  -42.6540 C.3       12 UNK        -0.1800 
     72 C          -3.8124  -23.6816  -43.8280 C.2       12 UNK         0.5000 
     73 O          -3.9255  -24.9071  -43.8052 O.2       12 UNK        -0.5000 
     74 N          -2.6393  -23.0403  -43.7339 N.am      13 UNK        -0.5000 
     75 CA         -1.3407  -23.7092  -43.6326 C.3       13 UNK         0.1400 
     76 CB         -0.3139  -22.7496  -43.0135 C.3       13 UNK        -0.1800 
     77 C          -0.8594  -24.2494  -44.9907 C.2       13 UNK         0.5000 
     78 O          -0.2685  -25.3282  -45.0412 O.2       13 UNK        -0.5000 
     79 N          -1.1558  -23.5116  -46.0691 N.am      14 UNK        -0.5000 
     80 CA         -0.8781  -23.8981  -47.4537 C.3       14 UNK         0.1400 
     81 CB         -0.9203  -22.6414  -48.3394 C.3       14 UNK        -0.1800 
     82 C          -1.8458  -24.9677  -48.0021 C.2       14 UNK         0.5000 
     83 O          -1.6247  -25.4546  -49.1102 O.2       14 UNK        -0.5000 
     84 N          -2.9163  -25.2830  -47.2556 N.am      15 UNK        -0.5000 
     85 CA         -3.9993  -26.2137  -47.6007 C.3       15 UNK         0.1400 
     86 CB         -3.4832  -27.6672  -47.5997 C.3       15 UNK        -0.1800 
     87 C          -4.7146  -25.8258  -48.9138 C.2       15 UNK         0.5000 
     88 O          -5.0255  -26.6881  -49.7367 O.2       15 UNK        -0.5000 
     89 N          -4.9155  -24.5119  -49.0894 N.am      16 UNK        -0.5000 
     90 CA         -5.4877  -23.8163  -50.2462 C.3       16 UNK         0.1400 
     91 CB         -6.9539  -24.2343  -50.4730 C.3       16 UNK        -0.1800 
     92 C          -4.6591  -23.9011  -51.5475 C.2       16 UNK         0.5000 
     93 O          -5.0998  -23.3581  -52.5611 O.2       16 UNK        -0.5000 
     94 N          -3.4671  -24.5186  -51.5212 N.am      17 UNK        -0.5000 
     95 CA         -2.5986  -24.6698  -52.6944 C.3       17 UNK         0.1400 
     96 CB         -1.4483  -25.6342  -52.3731 C.3       17 UNK        -0.1800 
     97 C          -2.0514  -23.3262  -53.2071 C.2       17 UNK         0.5000 
     98 O          -1.9474  -23.1320  -54.4179 O.2       17 UNK        -0.5000 
     99 N          -1.7597  -22.4061  -52.2765 N.am      18 UNK        -0.5000 
    100 CA        -1.3567  -21.0324  -52.5764 C.3       18 UNK         0.1400 
    101 CB        -0.8601  -20.3480  -51.2923 C.3       18 UNK        -0.1800 
    102 C         -2.4977  -20.2235  -53.2166 C.2       18 UNK         0.5000 
    103 O         -2.2546  -19.4692  -54.1573 O.2       18 UNK        -0.5000 
    104 N         -3.7245  -20.4100  -52.7060 N.am      19 UNK        -0.5000 
    105 CA        -4.9360  -19.7560  -53.2057 C.3       19 UNK         0.1400 
    106 CB        -6.0944  -19.9766  -52.2205 C.3       19 UNK        -0.1800 
    107 C         -5.3094  -20.2427  -54.6145 C.2       19 UNK         0.5000 
    108 O         -5.6706  -19.4300  -55.4650 O.2       19 UNK        -0.5000 
    109 N         -5.1613  -21.5533  -54.8510 N.am      20 UNK        -0.5000 
    110 CA        -5.3213  -22.1844  -56.1604 C.3       20 UNK         0.1400 
    111 CB        -5.2522  -23.7103  -55.9975 C.3       20 UNK        -0.1800 
    112 C         -4.2863  -21.6977  -57.1945 C.2       20 UNK         0.5000 
    113 O         -4.6097  -21.6272  -58.3808 O.2       20 UNK        -0.5000 
    114 N         -3.0740  -21.3613  -56.7309 N.am      21 UNK        -0.5000 
    115 CA        -2.0026  -20.8063  -57.5521 C.3       21 UNK         0.1400 
    116 CB        -0.6488  -20.9753  -56.8438 C.3       21 UNK        -0.1800 
    117 C         -2.2588  -19.3382  -57.9383 C.2       21 UNK         0.5000 
    118 O         -2.1977  -19.0214  -59.1277 O.2       21 UNK        -0.5000 
    119 N         -2.5267  -18.4679  -56.9511 N.am      22 UNK        -0.5000 
    120 CA        -2.7542  -17.0301  -57.1945 C.3       22 UNK         0.1400 
    121 C         -4.1747  -16.6561  -57.7080 C.2       22 UNK         0.5000 
    122 N         -5.1977  -17.4776  -57.5131 N.am      22 UNK        -0.7600 
    123 O         -4.3469  -15.6049  -58.3197 O.2       22 UNK        -0.5000 
    124 C124       -2.2844  -16.1274  -56.0244 C.3       23 UNK        -0.0398 
    125 S125       -3.2567  -16.2502  -54.4832 S.3       23 UNK        -0.2404 
    126 C126       -1.9523  -15.8897  -53.2648 C.3       23 UNK        -0.0205 
    127 H127       -0.9094   -9.3553  -41.8884 H         1 UNK         0.0600 
    128 H128       -2.3117   -9.2293  -42.9541 H         1 UNK         0.0600 
    129 H129       -0.9376   -8.1420  -43.1726 H         1 UNK         0.0600 
    130 H130       -2.3618  -10.8834  -44.4436 H         1 UNK         0.3000 
    131 H131       -0.0930  -11.5785  -46.0834 H         1 UNK         0.0600 
    132 H132       -2.5451  -11.5485  -46.8371 H         1 UNK         0.0800 
    133 H133       -2.7934  -13.0217  -45.9328 H         1 UNK         0.0800 
    134 H134       -2.9291  -12.5272  -49.5681 H         1 UNK         0.0800 
    135 H135       -3.8010  -13.3751  -48.3113 H         1 UNK         0.0800 
    136 H136       -2.1390  -13.7580  -51.5424 H         1 UNK         0.1150 
    137 H137       -2.9033  -17.9573  -51.8152 H         1 UNK         0.1150 
    138 H138       -3.6924  -15.8796  -48.1582 H         1 UNK         0.1150 
    139 H139       -3.7978  -19.1828  -50.0037 H         1 UNK         0.0800 
    140 H140       -3.0114  -18.6192  -48.5498 H         1 UNK         0.0800 
    141 H141       -6.0580  -20.5708  -48.2935 H         1 UNK         0.0800 
    142 H142       -6.3626  -19.6995  -46.8166 H         1 UNK         0.0800 
    143 H143       -3.6729  -20.7563  -47.8012 H         1 UNK         0.0600 
    144 H144       -4.0224  -18.5848  -46.0507 H         1 UNK         0.3000 
    145 H145       -0.6706  -18.4779  -45.2529 H         1 UNK         0.0600 
    146 H146       -1.7563  -16.3110  -44.8206 H         1 UNK         0.0600 
    147 H147       -2.3296  -16.9500  -46.3506 H         1 UNK         0.0600 
    148 H148       -3.3543  -17.0299  -44.9167 H         1 UNK         0.0600 
    149 H149       -0.7763  -18.4618  -43.0456 H         1 UNK         0.3000 
    150 H150       -3.3092  -18.4932  -40.6578 H         1 UNK         0.0600 
    151 H151       -2.9652  -21.0014  -40.8444 H         1 UNK         0.0600 
    152 H152       -2.1243  -20.2907  -39.4770 H         1 UNK         0.0600 
    153 H153       -1.2290  -20.7237  -40.9296 H         1 UNK         0.0600 
    154 H154       -0.4364  -18.5259  -40.4931 H         1 UNK         0.3000 
    155 H155        0.3130  -15.4067  -41.6623 H         1 UNK         0.0600 
    156 H156        0.0482  -15.7851  -38.6326 H         1 UNK         0.0600 
    157 H157       -0.6275  -14.4497  -39.5585 H         1 UNK         0.0600 
    158 H158        1.1139  -14.6367  -39.4453 H         1 UNK         0.0600 
    159 H159        1.8131  -16.9953  -39.8736 H         1 UNK         0.3000 
    160 H160        3.2754  -18.4637  -40.4058 H         1 UNK         0.0600 
    161 H161        2.3136  -20.4423  -42.5296 H         1 UNK         0.0600 
    162 H162        1.7692  -20.4046  -40.8592 H         1 UNK         0.0600 
    163 H163        3.4480  -20.7695  -41.2279 H         1 UNK         0.0600 
    164 H164        4.1181  -18.9541  -43.1537 H         1 UNK         0.3000 
    165 H165        5.7587  -16.0603  -43.6839 H         1 UNK         0.0600 
    166 H166        8.1232  -16.7775  -43.3162 H         1 UNK         0.0600 
    167 H167        7.3972  -16.2882  -41.7962 H         1 UNK         0.0600 
    168 H168        7.5922  -17.9991  -42.1613 H         1 UNK         0.0600 
    169 H169        5.4838  -18.9229  -44.1288 H         1 UNK         0.3000 
    170 H170        6.5200  -18.6910  -47.5227 H         1 UNK         0.0600 
    171 H171        8.1261  -19.9245  -46.0846 H         1 UNK         0.0600 
    172 H172        6.8048  -20.6520  -45.1843 H         1 UNK         0.0600 
    173 H173        7.0202  -21.0242  -46.8925 H         1 UNK         0.0600 
    174 H174        4.4052  -19.2476  -47.6401 H         1 UNK         0.3000 
    175 H175        2.6028  -20.8513  -47.2519 H         1 UNK         0.0600 
    176 H176        1.3132  -20.3401  -44.5362 H         1 UNK         0.0600 
    177 H177        0.7248  -21.3534  -45.8464 H         1 UNK         0.0600 
    178 H178        2.1392  -21.8470  -44.9418 H         1 UNK         0.0600 
    179 H179        1.3021  -18.5319  -45.9878 H         1 UNK         0.3000 
    180 H180        1.9979  -16.2772  -48.5575 H         1 UNK         0.0600 
    181 H181       -0.4225  -16.1243  -49.0063 H         1 UNK         0.0600 
    182 H182       -0.7027  -17.6927  -48.2477 H         1 UNK         0.0600 
    183 H183        0.2118  -17.5807  -49.7457 H         1 UNK         0.0600 
    184 H184        0.0721  -15.9382  -46.6105 H         1 UNK         0.3000 
    185 H185        0.6401  -15.6137  -44.1218 H         1 UNK         0.0600 
    186 H186        2.0084  -13.9392  -42.8544 H         1 UNK         0.0600 
    187 H187        2.9457  -15.3780  -43.2064 H         1 UNK         0.0600 
    188 H188        3.2026  -13.9163  -44.1508 H         1 UNK         0.0600 
    189 H189        1.0357  -13.5397  -46.1347 H         1 UNK         0.3000 
    190 H190       -4.7169  -20.7576  -44.4350 H         1 UNK         0.3000 
    191 H191       -5.8402  -23.4305  -44.4684 H         1 UNK         0.0600 
    192 H192       -5.8071  -23.1604  -41.9914 H         1 UNK         0.0600 
    193 H193       -6.5219  -21.7578  -42.7719 H         1 UNK         0.0600 
    194 H194       -4.8764  -21.6763  -42.1483 H         1 UNK         0.0600 
    195 H195       -2.6269  -22.0352  -43.8332 H         1 UNK         0.3000 
    196 H196       -1.4370  -24.5666  -42.9627 H         1 UNK         0.0600 
    197 H197       -0.3494  -21.7636  -43.4759 H         1 UNK         0.0600 
    198 H198       -0.4985  -22.6278  -41.9475 H         1 UNK         0.0600 
    199 H199        0.7029  -23.1308  -43.1178 H         1 UNK         0.0600 
    200 H200       -1.5711  -22.5936  -45.9293 H         1 UNK         0.3000 
    201 H201        0.1301  -24.3146  -47.5014 H         1 UNK         0.0600 
    202 H202       -1.9182  -22.2053  -48.3681 H         1 UNK         0.0600 
    203 H203       -0.6336  -22.8782  -49.3643 H         1 UNK         0.0600 
    204 H204       -0.2307  -21.8766  -47.9825 H         1 UNK         0.0600 
    205 H205       -3.0314  -24.7888  -46.3821 H         1 UNK         0.3000 
    206 H206       -4.7443  -26.1246  -46.8087 H         1 UNK         0.0600 
    207 H207       -2.9972  -27.9109  -46.6549 H         1 UNK         0.0600 
    208 H208       -4.3032  -28.3736  -47.7339 H         1 UNK         0.0600 
    209 H209       -2.7651  -27.8430  -48.4013 H         1 UNK         0.0600 
    210 H210       -4.6609  -23.9067  -48.3105 H         1 UNK         0.3000 
    211 H211       -5.4927  -22.7601  -49.9734 H         1 UNK         0.0600 
    212 H212       -7.4275  -23.6080  -51.2301 H         1 UNK         0.0600 
    213 H213       -7.5386  -24.1324  -49.5588 H         1 UNK         0.0600 
    214 H214       -7.0341  -25.2677  -50.8107 H         1 UNK         0.0600 
    215 H215       -3.1466  -24.9442  -50.6596 H         1 UNK         0.3000 
    216 H216       -3.1958  -25.1120  -53.4946 H         1 UNK         0.0600 
    217 H217       -0.7751  -25.2234  -51.6202 H         1 UNK         0.0600 
    218 H218       -0.8538  -25.8394  -53.2642 H         1 UNK         0.0600 
    219 H219       -1.8230  -26.5890  -52.0038 H         1 UNK         0.0600 
    220 H220       -1.8649  -22.6582  -51.3059 H         1 UNK         0.3000 
    221 H221       -0.5299  -21.0645  -53.2893 H         1 UNK         0.0600 
    222 H222        0.0178  -20.8540  -50.8904 H         1 UNK         0.0600 
    223 H223       -1.6240  -20.3352  -50.5146 H         1 UNK         0.0600 
    224 H224       -0.5737  -19.3136  -51.4878 H         1 UNK         0.0600 
    225 H225       -3.8467  -21.0949  -51.9772 H         1 UNK         0.3000 
    226 H226       -4.7442  -18.6829  -53.2664 H         1 UNK         0.0600 
    227 H227       -6.3344  -21.0329  -52.1008 H         1 UNK         0.0600 
    228 H228       -5.8616  -19.5712  -51.2371 H         1 UNK         0.0600 
    229 H229       -6.9982  -19.4749  -52.5684 H         1 UNK         0.0600 
    230 H230       -4.9228  -22.1654  -54.0758 H         1 UNK         0.3000 
    231 H231       -6.3129  -21.9251  -56.5366 H         1 UNK         0.0600 
    232 H232       -4.2830  -24.0300  -55.6140 H         1 UNK         0.0600 
    233 H233       -5.4101  -24.2128  -56.9525 H         1 UNK         0.0600 
    234 H234       -6.0182  -24.0688  -55.3095 H         1 UNK         0.0600 
    235 H235       -2.8773  -21.4857  -55.7465 H         1 UNK         0.3000 
    236 H236       -1.9557  -21.3861  -58.4766 H         1 UNK         0.0600 
    237 H237       -0.4490  -22.0239  -56.6228 H         1 UNK         0.0600 
    238 H238        0.1654  -20.6152  -57.4737 H         1 UNK         0.0600 
    239 H239       -0.6025  -20.4230  -55.9064 H         1 UNK         0.0600 
    240 H240       -2.5570  -18.7845  -55.9856 H         1 UNK         0.3000 
    241 H241       -2.0958  -16.7548  -58.0213 H         1 UNK         0.0600 
    242 H242       -6.1058  -17.2204  -57.8639 H         1 UNK         0.3800 
    243 H243       -5.1125  -18.2940  -56.9147 H         1 UNK         0.3800 
    244 H244       -2.2895  -15.0818  -56.3372 H         1 UNK         0.0800 
    245 H245       -1.2415  -16.3585  -55.8036 H         1 UNK         0.0800 
    246 H246       -1.4813  -14.9378  -53.5151 H         1 UNK         0.0800 
    247 H247       -1.1745  -16.6517  -53.3374 H         1 UNK         0.0800 
@<TRIPOS>BOND
     1    1    2 1    
     2    1  127 1    
     3    1  128 1    
     4    1  129 1    
     5    2    3 2    
     6    2    4 am   BACKBONE|DICT|INTERRES
     7    4    5 1    
     8    4  130 1    
     9    5    6 1    
    10    5   65 1    
    11    5  131 1    
    12    6    7 1    
    13    6  132 1    
    14    6  133 1    
    15    7    8 1    
    16    8    9 1    
    17    8  134 1    
    18    8  135 1    
    19    9   10 ar   
    20    9   14 ar   
    21   10   11 ar   
    22   10  136 1    
    23   11   12 ar   
    24   11  126 1    
    25   12   13 ar   
    26   12  137 1    
    27   13   14 ar   
    28   13   15 1    
    29   14  138 1    
    30   15   16 1    
    31   15  139 1    
    32   15  140 1    
    33   16   17 1    
    34   17   18 1    
    35   17  141 1    
    36   17  142 1    
    37   18   19 1    
    38   18   67 1    
    39   18  143 1    
    40   19   20 am   BACKBONE|DICT|INTERRES
    41   19  144 1    
    42   20   21 2    
    43   20   22 1    
    44   22   23 1    
    45   22   24 1    
    46   22  145 1    
    47   23  146 1    
    48   23  147 1    
    49   23  148 1    
    50   24   25 am   BACKBONE|DICT|INTERRES
    51   24  149 1    
    52   25   26 2    
    53   25   27 1    
    54   27   28 1    
    55   27   29 1    
    56   27  150 1    
    57   28  151 1    
    58   28  152 1    
    59   28  153 1    
    60   29   30 am   BACKBONE|DICT|INTERRES
    61   29  154 1    
    62   30   31 2    
    63   30   32 1    
    64   32   33 1    
    65   32   34 1    
    66   32  155 1    
    67   33  156 1    
    68   33  157 1    
    69   33  158 1    
    70   34   35 am   BACKBONE|DICT|INTERRES
    71   34  159 1    
    72   35   36 2    
    73   35   37 1    
    74   37   38 1    
    75   37   39 1    
    76   37  160 1    
    77   38  161 1    
    78   38  162 1    
    79   38  163 1    
    80   39   40 am   BACKBONE|DICT|INTERRES
    81   39  164 1    
    82   40   41 2    
    83   40   42 1    
    84   42   43 1    
    85   42   44 1    
    86   42  165 1    
    87   43  166 1    
    88   43  167 1    
    89   43  168 1    
    90   44   45 am   BACKBONE|DICT|INTERRES
    91   44  169 1    
    92   45   46 2    
    93   45   47 1    
    94   47   48 1    
    95   47   49 1    
    96   47  170 1    
    97   48  171 1    
    98   48  172 1    
    99   48  173 1    
   100   49   50 am   BACKBONE|DICT|INTERRES
   101   49  174 1    
   102   50   51 2    
   103   50   52 1    
   104   52   53 1    
   105   52   54 1    
   106   52  175 1    
   107   53  176 1    
   108   53  177 1    
   109   53  178 1    
   110   54   55 am   BACKBONE|DICT|INTERRES
   111   54  179 1    
   112   55   56 2    
   113   55   57 1    
   114   57   58 1    
   115   57   59 1    
   116   57  180 1    
   117   58  181 1    
   118   58  182 1    
   119   58  183 1    
   120   59   60 am   BACKBONE|DICT|INTERRES
   121   59  184 1    
   122   60   61 2    
   123   60   62 1    
   124   62   63 1    
   125   62   64 1    
   126   62  185 1    
   127   63  186 1    
   128   63  187 1    
   129   63  188 1    
   130   64   65 am   BACKBONE|DICT|INTERRES
   131   64  189 1    
   132   65   66 2    
   133   67   68 2    
   134   67   69 am   BACKBONE|DICT|INTERRES
   135   69   70 1    
   136   69  190 1    
   137   70   71 1    
   138   70   72 1    
   139   70  191 1    
   140   71  192 1    
   141   71  193 1    
   142   71  194 1    
   143   72   73 2    
   144   72   74 am   BACKBONE|DICT|INTERRES
   145   74   75 1    
   146   74  195 1    
   147   75   76 1    
   148   75   77 1    
   149   75  196 1    
   150   76  197 1    
   151   76  198 1    
   152   76  199 1    
   153   77   78 2    
   154   77   79 am   BACKBONE|DICT|INTERRES
   155   79   80 1    
   156   79  200 1    
   157   80   81 1    
   158   80   82 1    
   159   80  201 1    
   160   81  202 1    
   161   81  203 1    
   162   81  204 1    
   163   82   83 2    
   164   82   84 am   BACKBONE|DICT|INTERRES
   165   84   85 1    
   166   84  205 1    
   167   85   86 1    
   168   85   87 1    
   169   85  206 1    
   170   86  207 1    
   171   86  208 1    
   172   86  209 1    
   173   87   88 2    
   174   87   89 am   BACKBONE|DICT|INTERRES
   175   89   90 1    
   176   89  210 1    
   177   90   91 1    
   178   90   92 1    
   179   90  211 1    
   180   91  212 1    
   181   91  213 1    
   182   91  214 1    
   183   92   93 2    
   184   92   94 am   BACKBONE|DICT|INTERRES
   185   94   95 1    
   186   94  215 1    
   187   95   96 1    
   188   95   97 1    
   189   95  216 1    
   190   96  217 1    
   191   96  218 1    
   192   96  219 1    
   193   97   98 2    
   194   97   99 am   BACKBONE|DICT|INTERRES
   195   99  100 1    
   196   99  220 1    
   197  100  101 1    
   198  100  102 1    
   199  100  221 1    
   200  101  222 1    
   201  101  223 1    
   202  101  224 1    
   203  102  103 2    
   204  102  104 am   BACKBONE|DICT|INTERRES
   205  104  105 1    
   206  104  225 1    
   207  105  106 1    
   208  105  107 1    
   209  105  226 1    
   210  106  227 1    
   211  106  228 1    
   212  106  229 1    
   213  107  108 2    
   214  107  109 am   BACKBONE|DICT|INTERRES
   215  109  110 1    
   216  109  230 1    
   217  110  111 1    
   218  110  112 1    
   219  110  231 1    
   220  111  232 1    
   221  111  233 1    
   222  111  234 1    
   223  112  113 2    
   224  112  114 am   BACKBONE|DICT|INTERRES
   225  114  115 1    
   226  114  235 1    
   227  115  116 1    
   228  115  117 1    
   229  115  236 1    
   230  116  237 1    
   231  116  238 1    
   232  116  239 1    
   233  117  118 2    
   234  117  119 am   BACKBONE|DICT|INTERRES
   235  119  120 1    
   236  119  240 1    
   237  120  121 1    
   238  120  124 1    
   239  120  241 1    
   240  121  122 am   BACKBONE|DICT|INTERRES
   241  121  123 2    
   242  122  242 1    
   243  122  243 1    
   244  124  125 1    
   245  124  244 1    
   246  124  245 1    
   247  125  126 1    
   248  126  246 1    
   249  126  247 1    
@<TRIPOS>SUBSTRUCTURE
     1 UNK         1 GROUP             0       ****    0 ROOT    
