@<TRIPOS>MOLECULE
3R540
247   249    1
SMALL
USER_CHARGES


@<TRIPOS>ATOM
      1 CA         -1.5255  -15.5474  -43.3685 C.3       0 UNK        -0.1800 
      2 C          -1.0463  -14.4226  -44.2725 C.2       0 UNK         0.5000 
      3 O          -0.0282  -13.7969  -43.9749 O.2       0 UNK        -0.5000 
      4 N          -1.7824  -14.1445  -45.3592 N.am      1 UNK        -0.5000 
      5 CA         -1.4813  -13.1489  -46.4089 C.3       1 UNK         0.1400 
      6 C6         -0.2406  -13.5273  -47.2677 C.3       23 UNK        -0.0398 
      7 S7         -0.4010  -15.1309  -48.1238 S.3       23 UNK        -0.2404 
      8 C8          1.1057  -15.0758  -49.1442 C.3       23 UNK        -0.0205 
      9 C9          1.2273  -16.2953  -50.0453 C.ar      23 UNK        -0.0193 
     10 C10         0.8558  -16.2272  -51.3905 C.ar      23 UNK        -0.1150 
     11 C11         1.0015  -17.3401  -52.2253 C.ar      23 UNK        -0.0193 
     12 C12         1.4977  -18.5378  -51.6988 C.ar      23 UNK        -0.1150 
     13 C13         1.8697  -18.6180  -50.3530 C.ar      23 UNK        -0.0193 
     14 C14         1.7475  -17.4883  -49.5413 C.ar      23 UNK        -0.1150 
     15 C15         2.4352  -19.9084  -49.7746 C.3       23 UNK        -0.0205 
     16 S16         1.1763  -21.2129  -49.6019 S.3       23 UNK        -0.2404 
     17 C17        -0.0663  -20.4296  -48.5193 C.3       23 UNK        -0.0398 
     18 CA         -0.7711  -21.4727  -47.6143 C.3       11 UNK         0.1400 
     19 N          -0.0330  -21.7373  -46.3726 N.am      11 UNK        -0.5000 
     20 C          -0.3381  -22.7123  -45.5030 C.2       10 UNK         0.5000 
     21 O          -1.2507  -23.5184  -45.6769 O.2       10 UNK        -0.5000 
     22 CA          0.4671  -22.7694  -44.1924 C.3       10 UNK         0.1400 
     23 CB          1.8570  -23.3816  -44.4205 C.3       10 UNK        -0.1800 
     24 N           0.5892  -21.4601  -43.5503 N.am      10 UNK        -0.5000 
     25 C          -0.4477  -20.7488  -43.0821 C.2       9 UNK         0.5000 
     26 O          -1.6111  -21.1479  -43.0964 O.2       9 UNK        -0.5000 
     27 CA         -0.1493  -19.3313  -42.5624 C.3       9 UNK         0.1400 
     28 CB          0.3771  -19.3694  -41.1205 C.3       9 UNK        -0.1800 
     29 N           0.8020  -18.6193  -43.4111 N.am      9 UNK        -0.5000 
     30 C           0.5955  -18.3047  -44.6960 C.2       8 UNK         0.5000 
     31 O          -0.4582  -18.5171  -45.2944 O.2       8 UNK        -0.5000 
     32 CA          1.7925  -17.7212  -45.4590 C.3       8 UNK         0.1400 
     33 CB          1.9685  -16.2202  -45.2016 C.3       8 UNK        -0.1800 
     34 N           3.0358  -18.4210  -45.1483 N.am      8 UNK        -0.5000 
     35 C           3.3094  -19.6749  -45.5304 C.2       7 UNK         0.5000 
     36 O           2.5455  -20.3637  -46.2056 O.2       7 UNK        -0.5000 
     37 CA          4.6476  -20.2635  -45.0496 C.3       7 UNK         0.1400 
     38 CB          5.7801  -19.8806  -46.0137 C.3       7 UNK        -0.1800 
     39 N           4.9944  -19.8314  -43.6938 N.am      7 UNK        -0.5000 
     40 C           4.3310  -20.2107  -42.5926 C.2       6 UNK         0.5000 
     41 O           3.3758  -20.9870  -42.6038 O.2       6 UNK        -0.5000 
     42 CA          4.7775  -19.5713  -41.2638 C.3       6 UNK         0.1400 
     43 CB          6.0117  -20.2924  -40.7016 C.3       6 UNK        -0.1800 
     44 N           5.0536  -18.1330  -41.3651 N.am      6 UNK        -0.5000 
     45 C           4.1524  -17.2159  -41.7400 C.2       5 UNK         0.5000 
     46 O           3.0123  -17.4986  -42.1117 O.2       5 UNK        -0.5000 
     47 CA          4.6064  -15.7451  -41.7452 C.3       5 UNK         0.1400 
     48 CB          5.3329  -15.4137  -43.0580 C.3       5 UNK        -0.1800 
     49 N           3.4594  -14.8478  -41.6061 N.am      5 UNK        -0.5000 
     50 C           2.7572  -14.6717  -40.4784 C.2       4 UNK         0.5000 
     51 O           3.0909  -15.1470  -39.3910 O.2       4 UNK        -0.5000 
     52 CA          1.4542  -13.8501  -40.5956 C.3       4 UNK         0.1400 
     53 CB          1.0537  -13.1591  -39.2754 C.3       4 UNK        -0.1800 
     54 N           1.4530  -12.8973  -41.7118 N.am      4 UNK        -0.5000 
     55 C           2.2396  -11.8211  -41.8733 C.2       3 UNK         0.5000 
     56 O           3.1022  -11.4668  -41.0695 O.2       3 UNK        -0.5000 
     57 CA          2.0234  -11.0016  -43.1561 C.3       3 UNK         0.1400 
     58 CB          2.8624  -11.5876  -44.3037 C.3       3 UNK        -0.1800 
     59 N           0.6165  -11.0068  -43.5536 N.am      3 UNK        -0.5000 
     60 C          -0.2507   -9.9988  -43.3890 C.2       2 UNK         0.5000 
     61 O           0.0569   -8.9180  -42.8835 O.2       2 UNK        -0.5000 
     62 CA         -1.7129  -10.2384  -43.8425 C.3       2 UNK         0.1400 
     63 CB         -2.3314   -8.9976  -44.5197 C.3       2 UNK        -0.1800 
     64 N          -1.8932  -11.4420  -44.6682 N.am      2 UNK        -0.5000 
     65 C          -1.3720  -11.6933  -45.8804 C.2       1 UNK         0.5000 
     66 O          -0.7889  -10.8428  -46.5540 O.2       1 UNK        -0.5000 
     67 C          -2.2412  -21.0829  -47.3524 C.2       11 UNK         0.5000 
     68 O          -3.1212  -21.5443  -48.0807 O.2       11 UNK        -0.5000 
     69 N          -2.4946  -20.2781  -46.3114 N.am      12 UNK        -0.5000 
     70 CA         -3.8395  -19.9060  -45.8725 C.3       12 UNK         0.1400 
     71 CB         -3.7559  -18.7762  -44.8363 C.3       12 UNK        -0.1800 
     72 C          -4.6376  -21.1051  -45.3279 C.2       12 UNK         0.5000 
     73 O          -5.7990  -21.2724  -45.6997 O.2       12 UNK        -0.5000 
     74 N          -3.9962  -21.9367  -44.4940 N.am      13 UNK        -0.5000 
     75 CA         -4.5716  -23.1581  -43.9242 C.3       13 UNK         0.1400 
     76 CB         -3.6347  -23.7117  -42.8401 C.3       13 UNK        -0.1800 
     77 C          -4.8712  -24.2346  -44.9838 C.2       13 UNK         0.5000 
     78 O          -5.9116  -24.8891  -44.9084 O.2       13 UNK        -0.5000 
     79 N          -3.9713  -24.3779  -45.9660 N.am      14 UNK        -0.5000 
     80 CA         -4.1247  -25.2663  -47.1203 C.3       14 UNK         0.1400 
     81 CB         -2.7547  -25.4460  -47.7934 C.3       14 UNK        -0.1800 
     82 C          -5.1540  -24.7619  -48.1512 C.2       14 UNK         0.5000 
     83 O          -5.5835  -25.5472  -48.9970 O.2       14 UNK        -0.5000 
     84 N          -5.5069  -23.4695  -48.0736 N.am      15 UNK        -0.5000 
     85 CA         -6.3486  -22.7118  -49.0014 C.3       15 UNK         0.1400 
     86 CB         -7.8039  -23.2221  -48.9781 C.3       15 UNK        -0.1800 
     87 C          -5.7333  -22.6811  -50.4131 C.2       15 UNK         0.5000 
     88 O          -6.4001  -23.0142  -51.3941 O.2       15 UNK        -0.5000 
     89 N          -4.4520  -22.2915  -50.4822 N.am      16 UNK        -0.5000 
     90 CA         -3.6074  -22.3132  -51.6797 C.3       16 UNK         0.1400 
     91 CB         -2.2181  -21.7601  -51.3313 C.3       16 UNK        -0.1800 
     92 C          -4.1852  -21.5654  -52.8941 C.2       16 UNK         0.5000 
     93 O          -3.9597  -21.9955  -54.0246 O.2       16 UNK        -0.5000 
     94 N          -4.9257  -20.4776  -52.6467 N.am      17 UNK        -0.5000 
     95 CA         -5.6057  -19.6913  -53.6772 C.3       17 UNK         0.1400 
     96 CB         -6.0168  -18.3355  -53.0850 C.3       17 UNK        -0.1800 
     97 C          -6.8244  -20.4135  -54.2845 C.2       17 UNK         0.5000 
     98 O          -7.1050  -20.2316  -55.4690 O.2       17 UNK        -0.5000 
     99 N          -7.5172  -21.2289  -53.4768 N.am      18 UNK        -0.5000 
    100 CA        -8.6515  -22.0496  -53.9068 C.3       18 UNK         0.1400 
    101 CB        -9.5541  -22.3529  -52.7009 C.3       18 UNK        -0.1800 
    102 C         -8.1767  -23.3515  -54.5742 C.2       18 UNK         0.5000 
    103 O         -8.7847  -23.7970  -55.5477 O.2       18 UNK        -0.5000 
    104 N         -7.0763  -23.9160  -54.0575 N.am      19 UNK        -0.5000 
    105 CA        -6.3925  -25.0930  -54.5975 C.3       19 UNK         0.1400 
    106 CB        -5.4211  -25.6232  -53.5312 C.3       19 UNK        -0.1800 
    107 C         -5.6386  -24.8183  -55.9162 C.2       19 UNK         0.5000 
    108 O         -5.2536  -25.7703  -56.5955 O.2       19 UNK        -0.5000 
    109 N         -5.4267  -23.5326  -56.2366 N.am      20 UNK        -0.5000 
    110 CA        -4.6821  -22.9963  -57.3814 C.3       20 UNK         0.1400 
    111 CB        -5.3229  -23.4183  -58.7200 C.3       20 UNK        -0.1800 
    112 C         -3.1670  -23.2859  -57.3142 C.2       20 UNK         0.5000 
    113 O         -2.4925  -23.2964  -58.3454 O.2       20 UNK        -0.5000 
    114 N         -2.6525  -23.4818  -56.0932 N.am      21 UNK        -0.5000 
    115 CA        -1.2244  -23.5310  -55.7831 C.3       21 UNK         0.1400 
    116 CB        -1.0238  -24.2611  -54.4463 C.3       21 UNK        -0.1800 
    117 C         -0.6285  -22.1116  -55.7320 C.2       21 UNK         0.5000 
    118 O          0.5158  -21.9131  -56.1410 O.2       21 UNK        -0.5000 
    119 N         -1.4383  -21.1533  -55.2676 N.am      22 UNK        -0.5000 
    120 CA        -1.2158  -19.7118  -55.3827 C.3       22 UNK         0.1400 
    121 C         -2.1101  -19.1652  -56.5295 C.2       22 UNK         0.5000 
    122 N         -1.5697  -18.3372  -57.4129 N.am      22 UNK        -0.7600 
    123 O         -3.2955  -19.4771  -56.6183 O.2       22 UNK        -0.5000 
    124 C124       -1.4898  -19.0159  -54.0236 C.3       23 UNK        -0.0398 
    125 S125       -1.1197  -17.2293  -54.0217 S.3       23 UNK        -0.2404 
    126 C126        0.6715  -17.2213  -53.7051 C.3       23 UNK        -0.0205 
    127 H127       -2.1507  -16.2565  -43.9097 H         1 UNK         0.0600 
    128 H128       -2.0993  -15.1420  -42.5356 H         1 UNK         0.0600 
    129 H129       -0.6732  -16.0908  -42.9610 H         1 UNK         0.0600 
    130 H130       -2.6136  -14.6930  -45.5299 H         1 UNK         0.3000 
    131 H131       -2.3477  -13.1457  -47.0718 H         1 UNK         0.0600 
    132 H132       -0.0698  -12.7757  -48.0404 H         1 UNK         0.0800 
    133 H133        0.6615  -13.5410  -46.6542 H         1 UNK         0.0800 
    134 H134        1.9792  -15.0118  -48.4933 H         1 UNK         0.0800 
    135 H135        1.1031  -14.1658  -49.7462 H         1 UNK         0.0800 
    136 H136        0.4694  -15.3023  -51.7954 H         1 UNK         0.1150 
    137 H137        1.6109  -19.4036  -52.3362 H         1 UNK         0.1150 
    138 H138        2.0713  -17.5315  -48.5161 H         1 UNK         0.1150 
    139 H139        2.8968  -19.7286  -48.8029 H         1 UNK         0.0800 
    140 H140        3.2314  -20.2728  -50.4249 H         1 UNK         0.0800 
    141 H141       -0.7715  -19.9201  -49.1787 H         1 UNK         0.0800 
    142 H142        0.3956  -19.6468  -47.9161 H         1 UNK         0.0800 
    143 H143       -0.8181  -22.4195  -48.1568 H         1 UNK         0.0600 
    144 H144        0.7706  -21.1439  -46.1859 H         1 UNK         0.3000 
    145 H145       -0.0735  -23.4219  -43.5036 H         1 UNK         0.0600 
    146 H146        1.7761  -24.3742  -44.8650 H         1 UNK         0.0600 
    147 H147        2.3988  -23.4896  -43.4809 H         1 UNK         0.0600 
    148 H148        2.4648  -22.7731  -45.0889 H         1 UNK         0.0600 
    149 H149        1.5267  -21.0855  -43.4509 H         1 UNK         0.3000 
    150 H150       -1.0854  -18.7695  -42.5683 H         1 UNK         0.0600 
    151 H151        1.3283  -19.8979  -41.0527 H         1 UNK         0.0600 
    152 H152       -0.3289  -19.8742  -40.4600 H         1 UNK         0.0600 
    153 H153        0.5274  -18.3625  -40.7303 H         1 UNK         0.0600 
    154 H154        1.6877  -18.3576  -42.9815 H         1 UNK         0.3000 
    155 H155        1.5812  -17.8594  -46.5160 H         1 UNK         0.0600 
    156 H156        1.1099  -15.6741  -45.5837 H         1 UNK         0.0600 
    157 H157        2.8472  -15.8279  -45.7132 H         1 UNK         0.0600 
    158 H158        2.0607  -15.9913  -44.1399 H         1 UNK         0.0600 
    159 H159        3.6876  -17.9463  -44.5428 H         1 UNK         0.3000 
    160 H160        4.5529  -21.3514  -45.0494 H         1 UNK         0.0600 
    161 H161        5.5528  -20.2055  -47.0300 H         1 UNK         0.0600 
    162 H162        6.7195  -20.3526  -45.7253 H         1 UNK         0.0600 
    163 H163        5.9401  -18.8021  -46.0419 H         1 UNK         0.0600 
    164 H164        5.7668  -19.1888  -43.5977 H         1 UNK         0.3000 
    165 H165        3.9590  -19.6979  -40.5520 H         1 UNK         0.0600 
    166 H166        5.8269  -21.3630  -40.6027 H         1 UNK         0.0600 
    167 H167        6.8819  -20.1676  -41.3470 H         1 UNK         0.0600 
    168 H168        6.2710  -19.9168  -39.7116 H         1 UNK         0.0600 
    169 H169        5.9764  -17.8309  -41.0873 H         1 UNK         0.3000 
    170 H170        5.2880  -15.5808  -40.9081 H         1 UNK         0.0600 
    171 H171        5.6681  -14.3764  -43.0705 H         1 UNK         0.0600 
    172 H172        4.6915  -15.5673  -43.9263 H         1 UNK         0.0600 
    173 H173        6.2164  -16.0400  -43.1876 H         1 UNK         0.0600 
    174 H174        3.0944  -14.4455  -42.4555 H         1 UNK         0.3000 
    175 H175        0.6737  -14.5756  -40.8299 H         1 UNK         0.0600 
    176 H176        1.8237  -12.4702  -38.9276 H         1 UNK         0.0600 
    177 H177        0.8909  -13.8916  -38.4840 H         1 UNK         0.0600 
    178 H178        0.1268  -12.5972  -39.3903 H         1 UNK         0.0600 
    179 H179        0.8198  -13.1329  -42.4721 H         1 UNK         0.3000 
    180 H180        2.3637   -9.9813  -42.9679 H         1 UNK         0.0600 
    181 H181        2.5665  -12.6105  -44.5412 H         1 UNK         0.0600 
    182 H182        3.9223  -11.6024  -44.0461 H         1 UNK         0.0600 
    183 H183        2.7559  -10.9917  -45.2103 H         1 UNK         0.0600 
    184 H184        0.2697  -11.8796  -43.9376 H         1 UNK         0.3000 
    185 H185       -2.2768  -10.4224  -42.9270 H         1 UNK         0.0600 
    186 H186       -2.3584   -8.1508  -43.8330 H         1 UNK         0.0600 
    187 H187       -1.7630   -8.6850  -45.3958 H         1 UNK         0.0600 
    188 H188       -3.3570   -9.1897  -44.8347 H         1 UNK         0.0600 
    189 H189       -2.3558  -12.2128  -44.2069 H         1 UNK         0.3000 
    190 H190       -1.7173  -19.8756  -45.7945 H         1 UNK         0.3000 
    191 H191       -4.3776  -19.5208  -46.7413 H         1 UNK         0.0600 
    192 H192       -3.2773  -17.8948  -45.2624 H         1 UNK         0.0600 
    193 H193       -4.7498  -18.4776  -44.5010 H         1 UNK         0.0600 
    194 H194       -3.1868  -19.0745  -43.9561 H         1 UNK         0.0600 
    195 H195       -3.0516  -21.7029  -44.1978 H         1 UNK         0.3000 
    196 H196       -5.5176  -22.8902  -43.4491 H         1 UNK         0.0600 
    197 H197       -4.0452  -24.6176  -42.3923 H         1 UNK         0.0600 
    198 H198       -3.4912  -22.9885  -42.0372 H         1 UNK         0.0600 
    199 H199       -2.6531  -23.9598  -43.2454 H         1 UNK         0.0600 
    200 H200       -3.1002  -23.8550  -45.9119 H         1 UNK         0.3000 
    201 H201       -4.4635  -26.2412  -46.7640 H         1 UNK         0.0600 
    202 H202       -2.8188  -26.1317  -48.6392 H         1 UNK         0.0600 
    203 H203       -2.0234  -25.8571  -47.0972 H         1 UNK         0.0600 
    204 H204       -2.3659  -24.4980  -48.1677 H         1 UNK         0.0600 
    205 H205       -5.0690  -22.9183  -47.3474 H         1 UNK         0.3000 
    206 H206       -6.3531  -21.6822  -48.6408 H         1 UNK         0.0600 
    207 H207       -8.1963  -23.2435  -47.9614 H         1 UNK         0.0600 
    208 H208       -8.4524  -22.5689  -49.5624 H         1 UNK         0.0600 
    209 H209       -7.8922  -24.2263  -49.3936 H         1 UNK         0.0600 
    210 H210       -3.9861  -22.0371  -49.6125 H         1 UNK         0.3000 
    211 H211       -3.4906  -23.3585  -51.9682 H         1 UNK         0.0600 
    212 H212       -1.7400  -22.3601  -50.5573 H         1 UNK         0.0600 
    213 H213       -1.5568  -21.7685  -52.1985 H         1 UNK         0.0600 
    214 H214       -2.2749  -20.7317  -50.9731 H         1 UNK         0.0600 
    215 H215       -5.0576  -20.1920  -51.6877 H         1 UNK         0.3000 
    216 H216       -4.8997  -19.5043  -54.4879 H         1 UNK         0.0600 
    217 H217       -6.7095  -18.4529  -52.2508 H         1 UNK         0.0600 
    218 H218       -6.5078  -17.7150  -53.8357 H         1 UNK         0.0600 
    219 H219       -5.1477  -17.7831  -52.7268 H         1 UNK         0.0600 
    220 H220       -7.1771  -21.3930  -52.5379 H         1 UNK         0.3000 
    221 H221       -9.2414  -21.4902  -54.6363 H         1 UNK         0.0600 
    222 H222       -9.0398  -22.9524  -51.9496 H         1 UNK         0.0600 
    223 H223       -9.8961  -21.4351  -52.2224 H         1 UNK         0.0600 
    224 H224      -10.4401  -22.9086  -53.0101 H         1 UNK         0.0600 
    225 H225       -6.6922  -23.5202  -53.2033 H         1 UNK         0.3000 
    226 H226       -7.1405  -25.8628  -54.7973 H         1 UNK         0.0600 
    227 H227       -5.9358  -25.8317  -52.5927 H         1 UNK         0.0600 
    228 H228       -4.9495  -26.5509  -53.8576 H         1 UNK         0.0600 
    229 H229       -4.6259  -24.9073  -53.3249 H         1 UNK         0.0600 
    230 H230       -5.7523  -22.8401  -55.5766 H         1 UNK         0.3000 
    231 H231       -4.7754  -21.9117  -57.3062 H         1 UNK         0.0600 
    232 H232       -5.1897  -24.4820  -58.9181 H         1 UNK         0.0600 
    233 H233       -4.8772  -22.8747  -59.5537 H         1 UNK         0.0600 
    234 H234       -6.3918  -23.2049  -58.7298 H         1 UNK         0.0600 
    235 H235       -3.2813  -23.3755  -55.3051 H         1 UNK         0.3000 
    236 H236       -0.7058  -24.0918  -56.5636 H         1 UNK         0.0600 
    237 H237       -1.5423  -23.7595  -53.6296 H         1 UNK         0.0600 
    238 H238       -1.3960  -25.2844  -54.4986 H         1 UNK         0.0600 
    239 H239        0.0336  -24.3116  -54.1838 H         1 UNK         0.0600 
    240 H240       -2.3797  -21.4198  -54.9963 H         1 UNK         0.3000 
    241 H241       -0.1725  -19.5295  -55.6462 H         1 UNK         0.0600 
    242 H242       -0.6037  -18.0551  -57.3533 H         1 UNK         0.3800 
    243 H243       -2.1455  -17.9733  -58.1559 H         1 UNK         0.3800 
    244 H244       -2.5337  -19.1406  -53.7355 H         1 UNK         0.0800 
    245 H245       -0.9045  -19.4913  -53.2357 H         1 UNK         0.0800 
    246 H246        1.0847  -16.2855  -54.0843 H         1 UNK         0.0800 
    247 H247        1.1566  -18.0143  -54.2757 H         1 UNK         0.0800 
@<TRIPOS>BOND
     1    1    2 1    
     2    1  127 1    
     3    1  128 1    
     4    1  129 1    
     5    2    3 2    
     6    2    4 am   BACKBONE|DICT|INTERRES
     7    4    5 1    
     8    4  130 1    
     9    5    6 1    
    10    5   65 1    
    11    5  131 1    
    12    6    7 1    
    13    6  132 1    
    14    6  133 1    
    15    7    8 1    
    16    8    9 1    
    17    8  134 1    
    18    8  135 1    
    19    9   10 ar   
    20    9   14 ar   
    21   10   11 ar   
    22   10  136 1    
    23   11   12 ar   
    24   11  126 1    
    25   12   13 ar   
    26   12  137 1    
    27   13   14 ar   
    28   13   15 1    
    29   14  138 1    
    30   15   16 1    
    31   15  139 1    
    32   15  140 1    
    33   16   17 1    
    34   17   18 1    
    35   17  141 1    
    36   17  142 1    
    37   18   19 1    
    38   18   67 1    
    39   18  143 1    
    40   19   20 am   BACKBONE|DICT|INTERRES
    41   19  144 1    
    42   20   21 2    
    43   20   22 1    
    44   22   23 1    
    45   22   24 1    
    46   22  145 1    
    47   23  146 1    
    48   23  147 1    
    49   23  148 1    
    50   24   25 am   BACKBONE|DICT|INTERRES
    51   24  149 1    
    52   25   26 2    
    53   25   27 1    
    54   27   28 1    
    55   27   29 1    
    56   27  150 1    
    57   28  151 1    
    58   28  152 1    
    59   28  153 1    
    60   29   30 am   BACKBONE|DICT|INTERRES
    61   29  154 1    
    62   30   31 2    
    63   30   32 1    
    64   32   33 1    
    65   32   34 1    
    66   32  155 1    
    67   33  156 1    
    68   33  157 1    
    69   33  158 1    
    70   34   35 am   BACKBONE|DICT|INTERRES
    71   34  159 1    
    72   35   36 2    
    73   35   37 1    
    74   37   38 1    
    75   37   39 1    
    76   37  160 1    
    77   38  161 1    
    78   38  162 1    
    79   38  163 1    
    80   39   40 am   BACKBONE|DICT|INTERRES
    81   39  164 1    
    82   40   41 2    
    83   40   42 1    
    84   42   43 1    
    85   42   44 1    
    86   42  165 1    
    87   43  166 1    
    88   43  167 1    
    89   43  168 1    
    90   44   45 am   BACKBONE|DICT|INTERRES
    91   44  169 1    
    92   45   46 2    
    93   45   47 1    
    94   47   48 1    
    95   47   49 1    
    96   47  170 1    
    97   48  171 1    
    98   48  172 1    
    99   48  173 1    
   100   49   50 am   BACKBONE|DICT|INTERRES
   101   49  174 1    
   102   50   51 2    
   103   50   52 1    
   104   52   53 1    
   105   52   54 1    
   106   52  175 1    
   107   53  176 1    
   108   53  177 1    
   109   53  178 1    
   110   54   55 am   BACKBONE|DICT|INTERRES
   111   54  179 1    
   112   55   56 2    
   113   55   57 1    
   114   57   58 1    
   115   57   59 1    
   116   57  180 1    
   117   58  181 1    
   118   58  182 1    
   119   58  183 1    
   120   59   60 am   BACKBONE|DICT|INTERRES
   121   59  184 1    
   122   60   61 2    
   123   60   62 1    
   124   62   63 1    
   125   62   64 1    
   126   62  185 1    
   127   63  186 1    
   128   63  187 1    
   129   63  188 1    
   130   64   65 am   BACKBONE|DICT|INTERRES
   131   64  189 1    
   132   65   66 2    
   133   67   68 2    
   134   67   69 am   BACKBONE|DICT|INTERRES
   135   69   70 1    
   136   69  190 1    
   137   70   71 1    
   138   70   72 1    
   139   70  191 1    
   140   71  192 1    
   141   71  193 1    
   142   71  194 1    
   143   72   73 2    
   144   72   74 am   BACKBONE|DICT|INTERRES
   145   74   75 1    
   146   74  195 1    
   147   75   76 1    
   148   75   77 1    
   149   75  196 1    
   150   76  197 1    
   151   76  198 1    
   152   76  199 1    
   153   77   78 2    
   154   77   79 am   BACKBONE|DICT|INTERRES
   155   79   80 1    
   156   79  200 1    
   157   80   81 1    
   158   80   82 1    
   159   80  201 1    
   160   81  202 1    
   161   81  203 1    
   162   81  204 1    
   163   82   83 2    
   164   82   84 am   BACKBONE|DICT|INTERRES
   165   84   85 1    
   166   84  205 1    
   167   85   86 1    
   168   85   87 1    
   169   85  206 1    
   170   86  207 1    
   171   86  208 1    
   172   86  209 1    
   173   87   88 2    
   174   87   89 am   BACKBONE|DICT|INTERRES
   175   89   90 1    
   176   89  210 1    
   177   90   91 1    
   178   90   92 1    
   179   90  211 1    
   180   91  212 1    
   181   91  213 1    
   182   91  214 1    
   183   92   93 2    
   184   92   94 am   BACKBONE|DICT|INTERRES
   185   94   95 1    
   186   94  215 1    
   187   95   96 1    
   188   95   97 1    
   189   95  216 1    
   190   96  217 1    
   191   96  218 1    
   192   96  219 1    
   193   97   98 2    
   194   97   99 am   BACKBONE|DICT|INTERRES
   195   99  100 1    
   196   99  220 1    
   197  100  101 1    
   198  100  102 1    
   199  100  221 1    
   200  101  222 1    
   201  101  223 1    
   202  101  224 1    
   203  102  103 2    
   204  102  104 am   BACKBONE|DICT|INTERRES
   205  104  105 1    
   206  104  225 1    
   207  105  106 1    
   208  105  107 1    
   209  105  226 1    
   210  106  227 1    
   211  106  228 1    
   212  106  229 1    
   213  107  108 2    
   214  107  109 am   BACKBONE|DICT|INTERRES
   215  109  110 1    
   216  109  230 1    
   217  110  111 1    
   218  110  112 1    
   219  110  231 1    
   220  111  232 1    
   221  111  233 1    
   222  111  234 1    
   223  112  113 2    
   224  112  114 am   BACKBONE|DICT|INTERRES
   225  114  115 1    
   226  114  235 1    
   227  115  116 1    
   228  115  117 1    
   229  115  236 1    
   230  116  237 1    
   231  116  238 1    
   232  116  239 1    
   233  117  118 2    
   234  117  119 am   BACKBONE|DICT|INTERRES
   235  119  120 1    
   236  119  240 1    
   237  120  121 1    
   238  120  124 1    
   239  120  241 1    
   240  121  122 am   BACKBONE|DICT|INTERRES
   241  121  123 2    
   242  122  242 1    
   243  122  243 1    
   244  124  125 1    
   245  124  244 1    
   246  124  245 1    
   247  125  126 1    
   248  126  246 1    
   249  126  247 1    
@<TRIPOS>SUBSTRUCTURE
     1 UNK         1 GROUP             0       ****    0 ROOT    
