@<TRIPOS>MOLECULE
3R540
247   249    1
SMALL
USER_CHARGES


@<TRIPOS>ATOM
      1 CA         -0.3404  -12.8420  -42.7305 C.3       0 UNK        -0.1800 
      2 C          -0.5841  -13.2593  -44.1740 C.2       0 UNK         0.5000 
      3 O           0.1138  -14.1309  -44.6852 O.2       0 UNK        -0.5000 
      4 N          -1.5846  -12.6440  -44.8140 N.am      1 UNK        -0.5000 
      5 CA         -2.0101  -12.8589  -46.2045 C.3       1 UNK         0.1400 
      6 C6         -2.5504  -14.2970  -46.4497 C.3       23 UNK        -0.0398 
      7 S7         -3.9526  -14.7238  -45.3615 S.3       23 UNK        -0.2404 
      8 C8         -5.3527  -14.6475  -46.5201 C.3       23 UNK        -0.0205 
      9 C9         -5.3298  -15.7957  -47.5182 C.ar      23 UNK        -0.0193 
     10 C10        -4.9768  -15.5687  -48.8523 C.ar      23 UNK        -0.1150 
     11 C11        -4.9830  -16.6176  -49.7760 C.ar      23 UNK        -0.0193 
     12 C12        -5.3562  -17.8951  -49.3557 C.ar      23 UNK        -0.1150 
     13 C13        -5.6910  -18.1438  -48.0204 C.ar      23 UNK        -0.0193 
     14 C14        -5.6801  -17.0854  -47.1081 C.ar      23 UNK        -0.1150 
     15 C15        -6.1051  -19.5377  -47.5625 C.3       23 UNK        -0.0205 
     16 S16        -5.0129  -20.8562  -48.1837 S.3       23 UNK        -0.2404 
     17 C17        -3.4773  -20.5637  -47.2393 C.3       23 UNK        -0.0398 
     18 CA         -2.6760  -21.8781  -47.0851 C.3       11 UNK         0.1400 
     19 N          -1.2458  -21.6634  -46.8523 N.am      11 UNK        -0.5000 
     20 C          -0.3281  -22.6384  -46.9403 C.2       10 UNK         0.5000 
     21 O          -0.5898  -23.7924  -47.2760 O.2       10 UNK        -0.5000 
     22 CA          1.1134  -22.2913  -46.5382 C.3       10 UNK         0.1400 
     23 CB          1.8502  -21.6043  -47.6972 C.3       10 UNK        -0.1800 
     24 N           1.1742  -21.4651  -45.3325 N.am      10 UNK        -0.5000 
     25 C           0.7399  -21.8567  -44.1254 C.2       9 UNK         0.5000 
     26 O           0.2932  -22.9794  -43.8941 O.2       9 UNK        -0.5000 
     27 CA          0.7564  -20.8096  -42.9979 C.3       9 UNK         0.1400 
     28 CB          2.1580  -20.6908  -42.3834 C.3       9 UNK        -0.1800 
     29 N           0.2946  -19.4937  -43.4399 N.am      9 UNK        -0.5000 
     30 C          -0.9355  -19.2340  -43.9075 C.2       8 UNK         0.5000 
     31 O          -1.8315  -20.0748  -43.9906 O.2       8 UNK        -0.5000 
     32 CA         -1.1897  -17.8048  -44.4172 C.3       8 UNK         0.1400 
     33 CB         -1.4545  -16.8501  -43.2438 C.3       8 UNK        -0.1800 
     34 N          -0.0820  -17.3043  -45.2336 N.am      8 UNK        -0.5000 
     35 C           0.2981  -17.8488  -46.3989 C.2       7 UNK         0.5000 
     36 O          -0.2908  -18.7879  -46.9376 O.2       7 UNK        -0.5000 
     37 CA          1.5814  -17.2886  -47.0387 C.3       7 UNK         0.1400 
     38 CB          1.3149  -15.9454  -47.7291 C.3       7 UNK        -0.1800 
     39 N           2.6659  -17.1329  -46.0675 N.am      7 UNK        -0.5000 
     40 C           3.3063  -18.1577  -45.4838 C.2       6 UNK         0.5000 
     41 O           3.0679  -19.3366  -45.7364 O.2       6 UNK        -0.5000 
     42 CA          4.3646  -17.8264  -44.4107 C.3       6 UNK         0.1400 
     43 CB          5.7493  -17.6661  -45.0548 C.3       6 UNK        -0.1800 
     44 N           4.0544  -16.6241  -43.6399 N.am      6 UNK        -0.5000 
     45 C           2.9310  -16.4261  -42.9391 C.2       5 UNK         0.5000 
     46 O           2.0905  -17.3048  -42.7433 O.2       5 UNK        -0.5000 
     47 CA          2.6685  -15.0056  -42.4033 C.3       5 UNK         0.1400 
     48 CB          2.8951  -14.9555  -40.8852 C.3       5 UNK        -0.1800 
     49 N           3.4207  -13.9069  -43.0282 N.am      5 UNK        -0.5000 
     50 C           3.5419  -13.6243  -44.3341 C.2       4 UNK         0.5000 
     51 O           3.1247  -14.3439  -45.2427 O.2       4 UNK        -0.5000 
     52 CA          4.2509  -12.2986  -44.6683 C.3       4 UNK         0.1400 
     53 CB          4.8051  -12.2789  -46.1037 C.3       4 UNK        -0.1800 
     54 N           3.3378  -11.1707  -44.5071 N.am      4 UNK        -0.5000 
     55 C           2.9429  -10.6246  -43.3528 C.2       3 UNK         0.5000 
     56 O           3.3541  -10.9987  -42.2536 O.2       3 UNK        -0.5000 
     57 CA          1.9076   -9.4800  -43.4248 C.3       3 UNK         0.1400 
     58 CB          2.5954   -8.1328  -43.7169 C.3       3 UNK        -0.1800 
     59 N           0.7733   -9.7105  -44.3368 N.am      3 UNK        -0.5000 
     60 C           0.7797   -9.8403  -45.6709 C.2       2 UNK         0.5000 
     61 O           1.7954   -9.7780  -46.3684 O.2       2 UNK        -0.5000 
     62 CA         -0.5719  -10.1070  -46.3483 C.3       2 UNK         0.1400 
     63 CB         -1.0150   -8.8837  -47.1655 C.3       2 UNK        -0.1800 
     64 N          -0.3801  -11.2370  -47.2533 N.am      2 UNK        -0.5000 
     65 C          -0.9285  -12.4612  -47.2476 C.2       1 UNK         0.5000 
     66 O          -0.5873  -13.2809  -48.0984 O.2       1 UNK        -0.5000 
     67 C          -3.2974  -22.8231  -46.0378 C.2       11 UNK         0.5000 
     68 O          -4.0262  -23.7389  -46.4156 O.2       11 UNK        -0.5000 
     69 N          -2.9634  -22.6266  -44.7553 N.am      12 UNK        -0.5000 
     70 CA         -3.4043  -23.4854  -43.6545 C.3       12 UNK         0.1400 
     71 CB         -2.9676  -22.8680  -42.3174 C.3       12 UNK        -0.1800 
     72 C          -2.9030  -24.9386  -43.7789 C.2       12 UNK         0.5000 
     73 O          -3.6516  -25.8660  -43.4680 O.2       12 UNK        -0.5000 
     74 N          -1.6560  -25.1079  -44.2364 N.am      13 UNK        -0.5000 
     75 CA         -1.0166  -26.4036  -44.4412 C.3       13 UNK         0.1400 
     76 CB          0.5086  -26.2166  -44.4940 C.3       13 UNK        -0.1800 
     77 C          -1.5211  -27.1323  -45.6997 C.2       13 UNK         0.5000 
     78 O          -1.9398  -28.2867  -45.6015 O.2       13 UNK        -0.5000 
     79 N          -1.4300  -26.4722  -46.8620 N.am      14 UNK        -0.5000 
     80 CA         -1.6309  -27.1025  -48.1684 C.3       14 UNK         0.1400 
     81 CB         -0.7385  -26.4012  -49.2060 C.3       14 UNK        -0.1800 
     82 C          -3.0899  -27.0912  -48.6502 C.2       14 UNK         0.5000 
     83 O          -3.4490  -27.9488  -49.4590 O.2       14 UNK        -0.5000 
     84 N          -3.8861  -26.1154  -48.1855 N.am      15 UNK        -0.5000 
     85 CA         -5.2114  -25.7480  -48.7014 C.3       15 UNK         0.1400 
     86 CB         -6.2288  -26.8906  -48.4869 C.3       15 UNK        -0.1800 
     87 C          -5.1446  -25.2550  -50.1657 C.2       15 UNK         0.5000 
     88 O          -4.0599  -24.9325  -50.6590 O.2       15 UNK        -0.5000 
     89 N          -6.3092  -25.1703  -50.8271 N.am      16 UNK        -0.5000 
     90 CA         -6.4935  -24.8466  -52.2496 C.3       16 UNK         0.1400 
     91 CB         -6.0434  -26.0408  -53.1175 C.3       16 UNK        -0.1800 
     92 C          -5.8278  -23.5210  -52.6800 C.2       16 UNK         0.5000 
     93 O          -5.1829  -23.4676  -53.7269 O.2       16 UNK        -0.5000 
     94 N          -5.9631  -22.4869  -51.8375 N.am      17 UNK        -0.5000 
     95 CA         -5.3436  -21.1627  -51.9729 C.3       17 UNK         0.1400 
     96 CB         -5.9437  -20.3893  -53.1621 C.3       17 UNK        -0.1800 
     97 C          -3.8005  -21.2309  -52.0040 C.2       17 UNK         0.5000 
     98 O          -3.1646  -20.6583  -52.8935 O.2       17 UNK        -0.5000 
     99 N          -3.2491  -21.9797  -51.0359 N.am      18 UNK        -0.5000 
    100 CA        -1.8316  -22.3024  -50.8485 C.3       18 UNK         0.1400 
    101 CB        -1.0268  -21.0397  -50.4748 C.3       18 UNK        -0.1800 
    102 C         -1.2568  -23.0724  -52.0515 C.2       18 UNK         0.5000 
    103 O         -0.2188  -22.6935  -52.5922 O.2       18 UNK        -0.5000 
    104 N         -1.9769  -24.1262  -52.4640 N.am      19 UNK        -0.5000 
    105 CA        -1.7277  -24.9541  -53.6496 C.3       19 UNK         0.1400 
    106 CB        -0.4582  -25.8100  -53.4611 C.3       19 UNK        -0.1800 
    107 C         -1.7155  -24.1205  -54.9502 C.2       19 UNK         0.5000 
    108 O         -0.8019  -24.2452  -55.7680 O.2       19 UNK        -0.5000 
    109 N         -2.7386  -23.2670  -55.0908 N.am      20 UNK        -0.5000 
    110 CA        -2.9969  -22.3291  -56.1848 C.3       20 UNK         0.1400 
    111 CB        -3.2594  -23.0855  -57.5037 C.3       20 UNK        -0.1800 
    112 C         -1.9435  -21.2100  -56.3359 C.2       20 UNK         0.5000 
    113 O         -1.8513  -20.6115  -57.4092 O.2       20 UNK        -0.5000 
    114 N         -1.1886  -20.9111  -55.2687 N.am      21 UNK        -0.5000 
    115 CA        -0.2001  -19.8298  -55.2415 C.3       21 UNK         0.1400 
    116 CB         0.7683  -20.0328  -54.0690 C.3       21 UNK        -0.1800 
    117 C         -0.8380  -18.4296  -55.1783 C.2       21 UNK         0.5000 
    118 O         -0.2303  -17.4761  -55.6680 O.2       21 UNK        -0.5000 
    119 N         -2.0427  -18.3261  -54.6031 N.am      22 UNK        -0.5000 
    120 CA        -2.8259  -17.0818  -54.5244 C.3       22 UNK         0.1400 
    121 C         -4.3199  -17.2573  -54.9179 C.2       22 UNK         0.5000 
    122 N         -4.6908  -18.3253  -55.6136 N.am      22 UNK        -0.7600 
    123 O         -5.1514  -16.4020  -54.6273 O.2       22 UNK        -0.5000 
    124 C124       -2.5888  -16.3051  -53.2012 C.3       23 UNK        -0.0398 
    125 S125       -3.0432  -17.1989  -51.6727 S.3       23 UNK        -0.2404 
    126 C126       -4.6058  -16.3715  -51.2294 C.3       23 UNK        -0.0205 
    127 H127        0.6920  -12.5196  -42.6009 H         1 UNK         0.0600 
    128 H128       -0.5235  -13.6838  -42.0627 H         1 UNK         0.0600 
    129 H129       -0.9914  -12.0218  -42.4276 H         1 UNK         0.0600 
    130 H130       -2.1473  -11.9811  -44.3008 H         1 UNK         0.3000 
    131 H131       -2.8411  -12.1729  -46.3753 H         1 UNK         0.0600 
    132 H132       -2.8575  -14.4133  -47.4887 H         1 UNK         0.0800 
    133 H133       -1.7651  -15.0381  -46.2942 H         1 UNK         0.0800 
    134 H134       -6.2824  -14.6873  -45.9507 H         1 UNK         0.0800 
    135 H135       -5.3506  -13.6837  -47.0316 H         1 UNK         0.0800 
    136 H136       -4.7023  -14.5736  -49.1730 H         1 UNK         0.1150 
    137 H137       -5.3711  -18.6974  -50.0749 H         1 UNK         0.1150 
    138 H138       -5.9510  -17.2592  -46.0760 H         1 UNK         0.1150 
    139 H139       -6.1466  -19.5960  -46.4737 H         1 UNK         0.0800 
    140 H140       -7.1176  -19.7290  -47.9196 H         1 UNK         0.0800 
    141 H141       -2.8939  -19.8227  -47.7877 H         1 UNK         0.0800 
    142 H142       -3.6996  -20.1158  -46.2689 H         1 UNK         0.0800 
    143 H143       -2.7393  -22.4051  -48.0376 H         1 UNK         0.0600 
    144 H144       -0.9491  -20.7262  -46.5997 H         1 UNK         0.3000 
    145 H145        1.6292  -23.2291  -46.3218 H         1 UNK         0.0600 
    146 H146        2.9030  -21.4529  -47.4592 H         1 UNK         0.0600 
    147 H147        1.8076  -22.2123  -48.6018 H         1 UNK         0.0600 
    148 H148        1.4168  -20.6326  -47.9338 H         1 UNK         0.0600 
    149 H149        1.5919  -20.5449  -45.4359 H         1 UNK         0.3000 
    150 H150        0.0734  -21.1510  -42.2176 H         1 UNK         0.0600 
    151 H151        2.1714  -19.9729  -41.5630 H         1 UNK         0.0600 
    152 H152        2.4900  -21.6498  -41.9839 H         1 UNK         0.0600 
    153 H153        2.8933  -20.3717  -43.1210 H         1 UNK         0.0600 
    154 H154        0.9594  -18.7278  -43.3674 H         1 UNK         0.3000 
    155 H155       -2.0842  -17.8287  -45.0435 H         1 UNK         0.0600 
    156 H156       -0.5675  -16.7073  -42.6262 H         1 UNK         0.0600 
    157 H157       -2.2471  -17.2328  -42.5997 H         1 UNK         0.0600 
    158 H158       -1.7764  -15.8732  -43.5994 H         1 UNK         0.0600 
    159 H159        0.4357  -16.5145  -44.8703 H         1 UNK         0.3000 
    160 H160        1.9074  -17.9989  -47.8015 H         1 UNK         0.0600 
    161 H161        1.0450  -15.1730  -47.0086 H         1 UNK         0.0600 
    162 H162        0.4970  -16.0263  -48.4463 H         1 UNK         0.0600 
    163 H163        2.1940  -15.5989  -48.2720 H         1 UNK         0.0600 
    164 H164        2.8894  -16.1817  -45.7834 H         1 UNK         0.3000 
    165 H165        4.4072  -18.6641  -43.7130 H         1 UNK         0.0600 
    166 H166        6.5211  -17.5138  -44.3002 H         1 UNK         0.0600 
    167 H167        6.0215  -18.5577  -45.6214 H         1 UNK         0.0600 
    168 H168        5.7773  -16.8189  -45.7415 H         1 UNK         0.0600 
    169 H169        4.6731  -15.8370  -43.7634 H         1 UNK         0.3000 
    170 H170        1.6132  -14.8136  -42.5879 H         1 UNK         0.0600 
    171 H171        2.3260  -15.7346  -40.3760 H         1 UNK         0.0600 
    172 H172        3.9466  -15.0975  -40.6328 H         1 UNK         0.0600 
    173 H173        2.5748  -13.9995  -40.4701 H         1 UNK         0.0600 
    174 H174        3.7671  -13.2055  -42.3856 H         1 UNK         0.3000 
    175 H175        5.0919  -12.1782  -43.9823 H         1 UNK         0.0600 
    176 H176        4.0078  -12.3463  -46.8455 H         1 UNK         0.0600 
    177 H177        5.3633  -11.3628  -46.2970 H         1 UNK         0.0600 
    178 H178        5.4840  -13.1157  -46.2725 H         1 UNK         0.0600 
    179 H179        2.9237  -10.7949  -45.3570 H         1 UNK         0.3000 
    180 H180        1.4669   -9.4060  -42.4293 H         1 UNK         0.0600 
    181 H181        3.0785   -8.1227  -44.6942 H         1 UNK         0.0600 
    182 H182        3.3644   -7.9203  -42.9732 H         1 UNK         0.0600 
    183 H183        1.8801   -7.3109  -43.6880 H         1 UNK         0.0600 
    184 H184       -0.1188   -9.7808  -43.8685 H         1 UNK         0.3000 
    185 H185       -1.3384  -10.2899  -45.5989 H         1 UNK         0.0600 
    186 H186       -1.1504   -8.0133  -46.5222 H         1 UNK         0.0600 
    187 H187       -0.2826   -8.6172  -47.9288 H         1 UNK         0.0600 
    188 H188       -1.9654   -9.0691  -47.6662 H         1 UNK         0.0600 
    189 H189        0.3588  -11.0771  -47.9230 H         1 UNK         0.3000 
    190 H190       -2.3841  -21.8273  -44.5110 H         1 UNK         0.3000 
    191 H191       -4.4957  -23.5112  -43.6741 H         1 UNK         0.0600 
    192 H192       -3.3738  -21.8637  -42.1953 H         1 UNK         0.0600 
    193 H193       -3.3202  -23.4671  -41.4771 H         1 UNK         0.0600 
    194 H194       -1.8824  -22.8008  -42.2401 H         1 UNK         0.0600 
    195 H195       -1.0825  -24.2858  -44.4005 H         1 UNK         0.3000 
    196 H196       -1.2410  -27.0361  -43.5795 H         1 UNK         0.0600 
    197 H197        1.0155  -27.1695  -44.6511 H         1 UNK         0.0600 
    198 H198        0.8848  -25.7981  -43.5603 H         1 UNK         0.0600 
    199 H199        0.8070  -25.5469  -45.3015 H         1 UNK         0.0600 
    200 H200       -1.0991  -25.5091  -46.8731 H         1 UNK         0.3000 
    201 H201       -1.3108  -28.1454  -48.1130 H         1 UNK         0.0600 
    202 H202        0.3044  -26.3850  -48.8891 H         1 UNK         0.0600 
    203 H203       -1.0543  -25.3721  -49.3800 H         1 UNK         0.0600 
    204 H204       -0.7802  -26.9187  -50.1647 H         1 UNK         0.0600 
    205 H205       -3.5006  -25.4580  -47.5175 H         1 UNK         0.3000 
    206 H206       -5.5482  -24.8959  -48.1118 H         1 UNK         0.0600 
    207 H207       -6.1683  -27.2835  -47.4718 H         1 UNK         0.0600 
    208 H208       -7.2521  -26.5433  -48.6312 H         1 UNK         0.0600 
    209 H209       -6.0645  -27.7197  -49.1758 H         1 UNK         0.0600 
    210 H210       -7.1525  -25.4209  -50.3304 H         1 UNK         0.3000 
    211 H211       -7.5649  -24.7112  -52.4036 H         1 UNK         0.0600 
    212 H212       -4.9714  -26.2208  -53.0303 H         1 UNK         0.0600 
    213 H213       -6.2631  -25.8674  -54.1716 H         1 UNK         0.0600 
    214 H214       -6.5598  -26.9555  -52.8266 H         1 UNK         0.0600 
    215 H215       -6.4988  -22.6371  -50.9942 H         1 UNK         0.3000 
    216 H216       -5.6120  -20.6204  -51.0695 H         1 UNK         0.0600 
    217 H217       -5.6557  -20.8237  -54.1196 H         1 UNK         0.0600 
    218 H218       -5.6023  -19.3542  -53.1518 H         1 UNK         0.0600 
    219 H219       -7.0322  -20.3707  -53.1140 H         1 UNK         0.0600 
    220 H220       -3.8813  -22.4601  -50.4119 H         1 UNK         0.3000 
    221 H221       -1.7717  -22.9929  -50.0072 H         1 UNK         0.0600 
    222 H222       -1.0693  -20.2831  -51.2571 H         1 UNK         0.0600 
    223 H223       -1.4082  -20.5846  -49.5620 H         1 UNK         0.0600 
    224 H224        0.0229  -21.2783  -50.3021 H         1 UNK         0.0600 
    225 H225       -2.8079  -24.3669  -51.9261 H         1 UNK         0.3000 
    226 H226       -2.5755  -25.6357  -53.7306 H         1 UNK         0.0600 
    227 H227       -0.5191  -26.4087  -52.5530 H         1 UNK         0.0600 
    228 H228       -0.3260  -26.4999  -54.2952 H         1 UNK         0.0600 
    229 H229        0.4409  -25.1963  -53.3990 H         1 UNK         0.0600 
    230 H230       -3.4656  -23.2775  -54.3777 H         1 UNK         0.3000 
    231 H231       -3.9235  -21.8214  -55.9134 H         1 UNK         0.0600 
    232 H232       -2.3568  -23.5666  -57.8813 H         1 UNK         0.0600 
    233 H233       -3.6176  -22.4090  -58.2803 H         1 UNK         0.0600 
    234 H234       -4.0205  -23.8546  -57.3714 H         1 UNK         0.0600 
    235 H235       -1.3344  -21.4215  -54.4067 H         1 UNK         0.3000 
    236 H236        0.3833  -19.8810  -56.1633 H         1 UNK         0.0600 
    237 H237        1.2777  -20.9939  -54.1400 H         1 UNK         0.0600 
    238 H238        1.5363  -19.2586  -54.0572 H         1 UNK         0.0600 
    239 H239        0.2508  -19.9945  -53.1116 H         1 UNK         0.0600 
    240 H240       -2.4593  -19.1424  -54.1649 H         1 UNK         0.3000 
    241 H241       -2.4693  -16.4199  -55.3155 H         1 UNK         0.0600 
    242 H242       -5.6561  -18.4259  -55.8840 H         1 UNK         0.3800 
    243 H243       -4.0089  -19.0005  -55.9157 H         1 UNK         0.3800 
    244 H244       -1.5286  -16.0615  -53.1238 H         1 UNK         0.0800 
    245 H245       -3.0958  -15.3400  -53.2340 H         1 UNK         0.0800 
    246 H246       -5.4033  -16.7361  -51.8782 H         1 UNK         0.0800 
    247 H247       -4.5208  -15.3000  -51.4153 H         1 UNK         0.0800 
@<TRIPOS>BOND
     1    1    2 1    
     2    1  127 1    
     3    1  128 1    
     4    1  129 1    
     5    2    3 2    
     6    2    4 am   BACKBONE|DICT|INTERRES
     7    4    5 1    
     8    4  130 1    
     9    5    6 1    
    10    5   65 1    
    11    5  131 1    
    12    6    7 1    
    13    6  132 1    
    14    6  133 1    
    15    7    8 1    
    16    8    9 1    
    17    8  134 1    
    18    8  135 1    
    19    9   10 ar   
    20    9   14 ar   
    21   10   11 ar   
    22   10  136 1    
    23   11   12 ar   
    24   11  126 1    
    25   12   13 ar   
    26   12  137 1    
    27   13   14 ar   
    28   13   15 1    
    29   14  138 1    
    30   15   16 1    
    31   15  139 1    
    32   15  140 1    
    33   16   17 1    
    34   17   18 1    
    35   17  141 1    
    36   17  142 1    
    37   18   19 1    
    38   18   67 1    
    39   18  143 1    
    40   19   20 am   BACKBONE|DICT|INTERRES
    41   19  144 1    
    42   20   21 2    
    43   20   22 1    
    44   22   23 1    
    45   22   24 1    
    46   22  145 1    
    47   23  146 1    
    48   23  147 1    
    49   23  148 1    
    50   24   25 am   BACKBONE|DICT|INTERRES
    51   24  149 1    
    52   25   26 2    
    53   25   27 1    
    54   27   28 1    
    55   27   29 1    
    56   27  150 1    
    57   28  151 1    
    58   28  152 1    
    59   28  153 1    
    60   29   30 am   BACKBONE|DICT|INTERRES
    61   29  154 1    
    62   30   31 2    
    63   30   32 1    
    64   32   33 1    
    65   32   34 1    
    66   32  155 1    
    67   33  156 1    
    68   33  157 1    
    69   33  158 1    
    70   34   35 am   BACKBONE|DICT|INTERRES
    71   34  159 1    
    72   35   36 2    
    73   35   37 1    
    74   37   38 1    
    75   37   39 1    
    76   37  160 1    
    77   38  161 1    
    78   38  162 1    
    79   38  163 1    
    80   39   40 am   BACKBONE|DICT|INTERRES
    81   39  164 1    
    82   40   41 2    
    83   40   42 1    
    84   42   43 1    
    85   42   44 1    
    86   42  165 1    
    87   43  166 1    
    88   43  167 1    
    89   43  168 1    
    90   44   45 am   BACKBONE|DICT|INTERRES
    91   44  169 1    
    92   45   46 2    
    93   45   47 1    
    94   47   48 1    
    95   47   49 1    
    96   47  170 1    
    97   48  171 1    
    98   48  172 1    
    99   48  173 1    
   100   49   50 am   BACKBONE|DICT|INTERRES
   101   49  174 1    
   102   50   51 2    
   103   50   52 1    
   104   52   53 1    
   105   52   54 1    
   106   52  175 1    
   107   53  176 1    
   108   53  177 1    
   109   53  178 1    
   110   54   55 am   BACKBONE|DICT|INTERRES
   111   54  179 1    
   112   55   56 2    
   113   55   57 1    
   114   57   58 1    
   115   57   59 1    
   116   57  180 1    
   117   58  181 1    
   118   58  182 1    
   119   58  183 1    
   120   59   60 am   BACKBONE|DICT|INTERRES
   121   59  184 1    
   122   60   61 2    
   123   60   62 1    
   124   62   63 1    
   125   62   64 1    
   126   62  185 1    
   127   63  186 1    
   128   63  187 1    
   129   63  188 1    
   130   64   65 am   BACKBONE|DICT|INTERRES
   131   64  189 1    
   132   65   66 2    
   133   67   68 2    
   134   67   69 am   BACKBONE|DICT|INTERRES
   135   69   70 1    
   136   69  190 1    
   137   70   71 1    
   138   70   72 1    
   139   70  191 1    
   140   71  192 1    
   141   71  193 1    
   142   71  194 1    
   143   72   73 2    
   144   72   74 am   BACKBONE|DICT|INTERRES
   145   74   75 1    
   146   74  195 1    
   147   75   76 1    
   148   75   77 1    
   149   75  196 1    
   150   76  197 1    
   151   76  198 1    
   152   76  199 1    
   153   77   78 2    
   154   77   79 am   BACKBONE|DICT|INTERRES
   155   79   80 1    
   156   79  200 1    
   157   80   81 1    
   158   80   82 1    
   159   80  201 1    
   160   81  202 1    
   161   81  203 1    
   162   81  204 1    
   163   82   83 2    
   164   82   84 am   BACKBONE|DICT|INTERRES
   165   84   85 1    
   166   84  205 1    
   167   85   86 1    
   168   85   87 1    
   169   85  206 1    
   170   86  207 1    
   171   86  208 1    
   172   86  209 1    
   173   87   88 2    
   174   87   89 am   BACKBONE|DICT|INTERRES
   175   89   90 1    
   176   89  210 1    
   177   90   91 1    
   178   90   92 1    
   179   90  211 1    
   180   91  212 1    
   181   91  213 1    
   182   91  214 1    
   183   92   93 2    
   184   92   94 am   BACKBONE|DICT|INTERRES
   185   94   95 1    
   186   94  215 1    
   187   95   96 1    
   188   95   97 1    
   189   95  216 1    
   190   96  217 1    
   191   96  218 1    
   192   96  219 1    
   193   97   98 2    
   194   97   99 am   BACKBONE|DICT|INTERRES
   195   99  100 1    
   196   99  220 1    
   197  100  101 1    
   198  100  102 1    
   199  100  221 1    
   200  101  222 1    
   201  101  223 1    
   202  101  224 1    
   203  102  103 2    
   204  102  104 am   BACKBONE|DICT|INTERRES
   205  104  105 1    
   206  104  225 1    
   207  105  106 1    
   208  105  107 1    
   209  105  226 1    
   210  106  227 1    
   211  106  228 1    
   212  106  229 1    
   213  107  108 2    
   214  107  109 am   BACKBONE|DICT|INTERRES
   215  109  110 1    
   216  109  230 1    
   217  110  111 1    
   218  110  112 1    
   219  110  231 1    
   220  111  232 1    
   221  111  233 1    
   222  111  234 1    
   223  112  113 2    
   224  112  114 am   BACKBONE|DICT|INTERRES
   225  114  115 1    
   226  114  235 1    
   227  115  116 1    
   228  115  117 1    
   229  115  236 1    
   230  116  237 1    
   231  116  238 1    
   232  116  239 1    
   233  117  118 2    
   234  117  119 am   BACKBONE|DICT|INTERRES
   235  119  120 1    
   236  119  240 1    
   237  120  121 1    
   238  120  124 1    
   239  120  241 1    
   240  121  122 am   BACKBONE|DICT|INTERRES
   241  121  123 2    
   242  122  242 1    
   243  122  243 1    
   244  124  125 1    
   245  124  244 1    
   246  124  245 1    
   247  125  126 1    
   248  126  246 1    
   249  126  247 1    
@<TRIPOS>SUBSTRUCTURE
     1 UNK         1 GROUP             0       ****    0 ROOT    
