@<TRIPOS>MOLECULE
3R540
247   249    1
SMALL
USER_CHARGES


@<TRIPOS>ATOM
      1 CA         -2.5367  -12.5343  -45.2766 C.3       0 UNK        -0.1800 
      2 C          -2.2713  -13.4897  -46.4374 C.2       0 UNK         0.5000 
      3 O          -2.5929  -14.6705  -46.3370 O.2       0 UNK        -0.5000 
      4 N          -1.6934  -13.0398  -47.5588 N.am      1 UNK        -0.5000 
      5 CA         -1.2290  -11.6747  -47.8417 C.3       1 UNK         0.1400 
      6 C6         -1.1827  -11.4056  -49.3706 C.3       23 UNK        -0.0398 
      7 S7          0.1062  -12.3393  -50.2730 S.3       23 UNK        -0.2404 
      8 C8         -0.7916  -13.8332  -50.7903 C.3       23 UNK        -0.0205 
      9 C9          0.1689  -15.0014  -50.9357 C.ar      23 UNK        -0.0193 
     10 C10         0.5727  -15.4300  -52.2026 C.ar      23 UNK        -0.1150 
     11 C11         1.4547  -16.5103  -52.3460 C.ar      23 UNK        -0.0193 
     12 C12         1.9569  -17.1254  -51.1955 C.ar      23 UNK        -0.1150 
     13 C13         1.5675  -16.7031  -49.9207 C.ar      23 UNK        -0.0193 
     14 C14         0.6624  -15.6469  -49.7981 C.ar      23 UNK        -0.1150 
     15 C15         2.1458  -17.3693  -48.6789 C.3       23 UNK        -0.0205 
     16 S16         1.8439  -19.1634  -48.6498 S.3       23 UNK        -0.2404 
     17 C17         0.0394  -19.2178  -48.3913 C.3       23 UNK        -0.0398 
     18 CA         -0.3969  -20.5855  -47.8198 C.3       11 UNK         0.1400 
     19 N           0.1206  -20.8130  -46.4675 N.am      11 UNK        -0.5000 
     20 C           0.2560  -22.0241  -45.9133 C.2       10 UNK         0.5000 
     21 O          -0.0049  -23.0755  -46.4974 O.2       10 UNK        -0.5000 
     22 CA          0.7469  -22.0759  -44.4550 C.3       10 UNK         0.1400 
     23 CB          2.2815  -22.0448  -44.4015 C.3       10 UNK        -0.1800 
     24 N           0.1984  -21.0079  -43.6152 N.am      10 UNK        -0.5000 
     25 C          -1.1056  -20.8544  -43.3432 C.2       9 UNK         0.5000 
     26 O          -1.9834  -21.5964  -43.7792 O.2       9 UNK        -0.5000 
     27 CA         -1.5106  -19.6546  -42.4702 C.3       9 UNK         0.1400 
     28 CB         -1.2387  -19.9451  -40.9868 C.3       9 UNK        -0.1800 
     29 N          -0.8479  -18.4122  -42.8631 N.am      9 UNK        -0.5000 
     30 C          -0.9837  -17.8182  -44.0580 C.2       8 UNK         0.5000 
     31 O          -1.7049  -18.2467  -44.9591 O.2       8 UNK        -0.5000 
     32 CA         -0.1085  -16.5756  -44.3097 C.3       8 UNK         0.1400 
     33 CB         -0.6471  -15.3522  -43.5528 C.3       8 UNK        -0.1800 
     34 N           1.2901  -16.7987  -43.9421 N.am      8 UNK        -0.5000 
     35 C           2.0683  -17.7608  -44.4592 C.2       7 UNK         0.5000 
     36 O           1.7077  -18.5358  -45.3436 O.2       7 UNK        -0.5000 
     37 CA          3.4642  -17.9193  -43.8384 C.3       7 UNK         0.1400 
     38 CB          4.4323  -16.8624  -44.3895 C.3       7 UNK        -0.1800 
     39 N           3.4151  -17.8424  -42.3776 N.am      7 UNK        -0.5000 
     40 C           2.8670  -18.7834  -41.5945 C.2       6 UNK         0.5000 
     41 O           2.3734  -19.8261  -42.0214 O.2       6 UNK        -0.5000 
     42 CA          2.8279  -18.4949  -40.0832 C.3       6 UNK         0.1400 
     43 CB          4.1742  -18.8402  -39.4294 C.3       6 UNK        -0.1800 
     44 N           2.4847  -17.1050  -39.7846 N.am      6 UNK        -0.5000 
     45 C           1.3000  -16.5401  -40.0575 C.2       5 UNK         0.5000 
     46 O           0.3530  -17.1437  -40.5590 O.2       5 UNK        -0.5000 
     47 CA          1.1675  -15.0354  -39.7623 C.3       5 UNK         0.1400 
     48 CB          0.6937  -14.8083  -38.3192 C.3       5 UNK        -0.1800 
     49 N           2.4068  -14.2880  -39.9906 N.am      5 UNK        -0.5000 
     50 C           3.0237  -14.1811  -41.1741 C.2       4 UNK         0.5000 
     51 O           2.6347  -14.7333  -42.2070 O.2       4 UNK        -0.5000 
     52 CA          4.3026  -13.3312  -41.2052 C.3       4 UNK         0.1400 
     53 CB          5.5155  -14.1734  -41.6308 C.3       4 UNK        -0.1800 
     54 N           4.1273  -12.2273  -42.1407 N.am      4 UNK        -0.5000 
     55 C           3.4592  -11.0988  -41.8665 C.2       3 UNK         0.5000 
     56 O           3.0282  -10.8116  -40.7489 O.2       3 UNK        -0.5000 
     57 CA          3.2214  -10.1358  -43.0451 C.3       3 UNK         0.1400 
     58 CB          4.3587   -9.1073  -43.1407 C.3       3 UNK        -0.1800 
     59 N           3.0936  -10.8344  -44.3267 N.am      3 UNK        -0.5000 
     60 C           2.0380  -11.5819  -44.6745 C.2       2 UNK         0.5000 
     61 O           1.0420  -11.7399  -43.9647 O.2       2 UNK        -0.5000 
     62 CA          2.1336  -12.2961  -46.0349 C.3       2 UNK         0.1400 
     63 CB          2.6952  -13.7158  -45.8548 C.3       2 UNK        -0.1800 
     64 N           0.8402  -12.3849  -46.7084 N.am      2 UNK        -0.5000 
     65 C           0.1187  -11.3463  -47.1556 C.2       1 UNK         0.5000 
     66 O           0.4768  -10.1714  -47.0599 O.2       1 UNK        -0.5000 
     67 C          -1.9276  -20.7642  -47.8942 C.2       11 UNK         0.5000 
     68 O          -2.4252  -21.2044  -48.9303 O.2       11 UNK        -0.5000 
     69 N          -2.6484  -20.4338  -46.8125 N.am      12 UNK        -0.5000 
     70 CA         -4.0972  -20.6195  -46.6997 C.3       12 UNK         0.1400 
     71 CB         -4.6336  -19.7427  -45.5585 C.3       12 UNK        -0.1800 
     72 C          -4.5029  -22.0906  -46.4834 C.2       12 UNK         0.5000 
     73 O          -5.5736  -22.4961  -46.9419 O.2       12 UNK        -0.5000 
     74 N          -3.6517  -22.8555  -45.7860 N.am      13 UNK        -0.5000 
     75 CA         -3.8329  -24.2710  -45.4621 C.3       13 UNK         0.1400 
     76 CB         -2.6576  -24.7444  -44.5918 C.3       13 UNK        -0.1800 
     77 C          -3.9827  -25.1794  -46.6971 C.2       13 UNK         0.5000 
     78 O          -3.5494  -24.8246  -47.7968 O.2       13 UNK        -0.5000 
     79 N          -4.6051  -26.3461  -46.4738 N.am      14 UNK        -0.5000 
     80 CA         -4.9282  -27.3742  -47.4702 C.3       14 UNK         0.1400 
     81 CB         -3.6432  -28.0484  -47.9968 C.3       14 UNK        -0.1800 
     82 C          -5.8322  -26.8371  -48.5991 C.2       14 UNK         0.5000 
     83 O          -5.6347  -27.1886  -49.7617 O.2       14 UNK        -0.5000 
     84 N          -6.7882  -25.9706  -48.2278 N.am      15 UNK        -0.5000 
     85 CA         -7.7201  -25.2529  -49.1030 C.3       15 UNK         0.1400 
     86 CB         -8.7304  -26.2306  -49.7403 C.3       15 UNK        -0.1800 
     87 C          -6.9779  -24.3921  -50.1441 C.2       15 UNK         0.5000 
     88 O          -7.1131  -24.6228  -51.3460 O.2       15 UNK        -0.5000 
     89 N          -6.1730  -23.4394  -49.6522 N.am      16 UNK        -0.5000 
     90 CA         -5.3271  -22.5248  -50.4263 C.3       16 UNK         0.1400 
     91 CB         -6.1904  -21.5475  -51.2511 C.3       16 UNK        -0.1800 
     92 C          -4.2745  -23.2697  -51.2739 C.2       16 UNK         0.5000 
     93 O          -4.1195  -22.9823  -52.4646 O.2       16 UNK        -0.5000 
     94 N          -3.5940  -24.2342  -50.6359 N.am      17 UNK        -0.5000 
     95 CA         -2.5754  -25.1221  -51.1994 C.3       17 UNK         0.1400 
     96 CB         -1.3001  -24.3253  -51.5451 C.3       17 UNK        -0.1800 
     97 C          -3.1150  -25.9550  -52.3803 C.2       17 UNK         0.5000 
     98 O          -2.5742  -25.8884  -53.4843 O.2       17 UNK        -0.5000 
     99 N          -4.1964  -26.7050  -52.1234 N.am      18 UNK        -0.5000 
    100 CA        -4.9414  -27.5430  -53.0686 C.3       18 UNK         0.1400 
    101 CB        -4.0803  -28.7277  -53.5551 C.3       18 UNK        -0.1800 
    102 C         -5.5626  -26.7224  -54.2169 C.2       18 UNK         0.5000 
    103 O         -5.4739  -27.1133  -55.3825 O.2       18 UNK        -0.5000 
    104 N         -6.1725  -25.5861  -53.8503 N.am      19 UNK        -0.5000 
    105 CA        -6.8324  -24.6008  -54.7101 C.3       19 UNK         0.1400 
    106 CB        -8.0846  -25.2083  -55.3762 C.3       19 UNK        -0.1800 
    107 C         -5.8910  -23.9084  -55.7184 C.2       19 UNK         0.5000 
    108 O         -6.3617  -23.4048  -56.7403 O.2       19 UNK        -0.5000 
    109 N         -4.5849  -23.8718  -55.4171 N.am      20 UNK        -0.5000 
    110 CA        -3.5833  -23.1522  -56.2020 C.3       20 UNK         0.1400 
    111 CB        -2.1745  -23.6213  -55.8111 C.3       20 UNK        -0.1800 
    112 C         -3.7215  -21.6326  -56.0225 C.2       20 UNK         0.5000 
    113 O         -3.7028  -20.9017  -57.0135 O.2       20 UNK        -0.5000 
    114 N         -3.8718  -21.1969  -54.7607 N.am      21 UNK        -0.5000 
    115 CA        -4.1696  -19.8295  -54.3144 C.3       21 UNK         0.1400 
    116 CB        -5.6570  -19.5203  -54.5802 C.3       21 UNK        -0.1800 
    117 C         -3.2307  -18.7343  -54.8738 C.2       21 UNK         0.5000 
    118 O         -3.6626  -17.5948  -55.0570 O.2       21 UNK        -0.5000 
    119 N         -1.9682  -19.0981  -55.1439 N.am      22 UNK        -0.5000 
    120 CA        -0.9537  -18.2562  -55.8053 C.3       22 UNK         0.1400 
    121 C         -1.2329  -17.9761  -57.3191 C.2       22 UNK         0.5000 
    122 N         -2.1203  -18.7090  -57.9815 N.am      22 UNK        -0.7600 
    123 O         -0.6204  -17.0996  -57.9225 O.2       22 UNK        -0.5000 
    124 C124       -0.6341  -16.9739  -54.9827 C.3       23 UNK        -0.0398 
    125 S125        1.0793  -16.3682  -55.1813 S.3       23 UNK        -0.2404 
    126 C126        1.9060  -17.0562  -53.7039 C.3       23 UNK        -0.0205 
    127 H127       -1.6056  -12.1232  -44.8878 H         1 UNK         0.0600 
    128 H128       -3.0332  -13.0572  -44.4590 H         1 UNK         0.0600 
    129 H129       -3.1849  -11.7147  -45.5855 H         1 UNK         0.0600 
    130 H130       -1.5393  -13.6991  -48.3058 H         1 UNK         0.3000 
    131 H131       -1.9607  -10.9784  -47.4288 H         1 UNK         0.0600 
    132 H132       -2.1566  -11.6112  -49.8174 H         1 UNK         0.0800 
    133 H133       -1.0041  -10.3439  -49.5491 H         1 UNK         0.0800 
    134 H134       -1.5664  -14.0954  -50.0708 H         1 UNK         0.0800 
    135 H135       -1.3071  -13.6318  -51.7307 H         1 UNK         0.0800 
    136 H136        0.1879  -14.9151  -53.0701 H         1 UNK         0.1150 
    137 H137        2.6538  -17.9467  -51.2907 H         1 UNK         0.1150 
    138 H138        0.3583  -15.3100  -48.8173 H         1 UNK         0.1150 
    139 H139        3.2222  -17.1952  -48.6576 H         1 UNK         0.0800 
    140 H140        1.7460  -16.9236  -47.7664 H         1 UNK         0.0800 
    141 H141       -0.4385  -19.0236  -49.3535 H         1 UNK         0.0800 
    142 H142       -0.2620  -18.4097  -47.7219 H         1 UNK         0.0800 
    143 H143        0.0254  -21.3553  -48.4703 H         1 UNK         0.0600 
    144 H144        0.4313  -19.9951  -45.9517 H         1 UNK         0.3000 
    145 H145        0.4147  -23.0268  -44.0334 H         1 UNK         0.0600 
    146 H146        2.6437  -22.1967  -43.3848 H         1 UNK         0.0600 
    147 H147        2.7111  -22.8340  -45.0198 H         1 UNK         0.0600 
    148 H148        2.6766  -21.0942  -44.7608 H         1 UNK         0.0600 
    149 H149        0.8707  -20.3767  -43.1899 H         1 UNK         0.3000 
    150 H150       -2.5853  -19.5059  -42.5926 H         1 UNK         0.0600 
    151 H151       -1.7286  -20.8675  -40.6724 H         1 UNK         0.0600 
    152 H152       -1.6182  -19.1435  -40.3531 H         1 UNK         0.0600 
    153 H153       -0.1724  -20.0532  -40.7862 H         1 UNK         0.0600 
    154 H154       -0.2548  -17.9769  -42.1613 H         1 UNK         0.3000 
    155 H155       -0.1420  -16.3571  -45.3792 H         1 UNK         0.0600 
    156 H156       -1.6967  -15.1785  -43.7899 H         1 UNK         0.0600 
    157 H157       -0.0972  -14.4487  -43.8173 H         1 UNK         0.0600 
    158 H158       -0.5775  -15.4815  -42.4739 H         1 UNK         0.0600 
    159 H159        1.6806  -16.1879  -43.2312 H         1 UNK         0.3000 
    160 H160        3.8459  -18.9042  -44.1158 H         1 UNK         0.0600 
    161 H161        4.0957  -15.8508  -44.1654 H         1 UNK         0.0600 
    162 H162        4.5180  -16.9435  -45.4738 H         1 UNK         0.0600 
    163 H163        5.4320  -16.9855  -43.9730 H         1 UNK         0.0600 
    164 H164        3.7405  -16.9856  -41.9558 H         1 UNK         0.3000 
    165 H165        2.0602  -19.1345  -39.6425 H         1 UNK         0.0600 
    166 H166        4.1304  -18.7150  -38.3474 H         1 UNK         0.0600 
    167 H167        4.4470  -19.8783  -39.6244 H         1 UNK         0.0600 
    168 H168        4.9811  -18.2118  -39.8083 H         1 UNK         0.0600 
    169 H169        3.2055  -16.5332  -39.3702 H         1 UNK         0.3000 
    170 H170        0.4094  -14.6320  -40.4363 H         1 UNK         0.0600 
    171 H171       -0.2407  -15.3377  -38.1277 H         1 UNK         0.0600 
    172 H172        1.4266  -15.1626  -37.5932 H         1 UNK         0.0600 
    173 H173        0.5118  -13.7511  -38.1253 H         1 UNK         0.0600 
    174 H174        2.7849  -13.7929  -39.1957 H         1 UNK         0.3000 
    175 H175        4.5005  -12.9331  -40.2075 H         1 UNK         0.0600 
    176 H176        5.4105  -14.5536  -42.6468 H         1 UNK         0.0600 
    177 H177        6.4330  -13.5861  -41.5900 H         1 UNK         0.0600 
    178 H178        5.6493  -15.0306  -40.9697 H         1 UNK         0.0600 
    179 H179        4.4061  -12.3978  -43.0948 H         1 UNK         0.3000 
    180 H180        2.2907   -9.5980  -42.8516 H         1 UNK         0.0600 
    181 H181        5.3177   -9.5836  -43.3487 H         1 UNK         0.0600 
    182 H182        4.4632   -8.5536  -42.2067 H         1 UNK         0.0600 
    183 H183        4.1667   -8.3788  -43.9288 H         1 UNK         0.0600 
    184 H184        3.8692  -10.7459  -44.9675 H         1 UNK         0.3000 
    185 H185        2.8079  -11.7330  -46.6835 H         1 UNK         0.0600 
    186 H186        3.6871  -13.6890  -45.4025 H         1 UNK         0.0600 
    187 H187        2.0585  -14.3196  -45.2074 H         1 UNK         0.0600 
    188 H188        2.7885  -14.2320  -46.8107 H         1 UNK         0.0600 
    189 H189        0.4497  -13.3085  -46.8118 H         1 UNK         0.3000 
    190 H190       -2.1792  -20.0192  -46.0147 H         1 UNK         0.3000 
    191 H191       -4.5618  -20.2825  -47.6287 H         1 UNK         0.0600 
    192 H192       -4.4209  -18.6887  -45.7386 H         1 UNK         0.0600 
    193 H193       -5.7152  -19.8446  -45.4615 H         1 UNK         0.0600 
    194 H194       -4.1897  -20.0140  -44.6002 H         1 UNK         0.0600 
    195 H195       -2.8288  -22.4127  -45.3915 H         1 UNK         0.3000 
    196 H196       -4.7502  -24.3490  -44.8754 H         1 UNK         0.0600 
    197 H197       -2.7601  -25.7966  -44.3236 H         1 UNK         0.0600 
    198 H198       -2.6033  -24.1823  -43.6599 H         1 UNK         0.0600 
    199 H199       -1.7052  -24.6313  -45.1096 H         1 UNK         0.0600 
    200 H200       -4.9175  -26.5471  -45.5337 H         1 UNK         0.3000 
    201 H201       -5.5115  -28.1369  -46.9525 H         1 UNK         0.0600 
    202 H202       -3.0355  -28.4311  -47.1770 H         1 UNK         0.0600 
    203 H203       -3.0285  -27.3582  -48.5745 H         1 UNK         0.0600 
    204 H204       -3.8813  -28.8931  -48.6443 H         1 UNK         0.0600 
    205 H205       -6.8421  -25.7312  -47.2481 H         1 UNK         0.3000 
    206 H206       -8.2814  -24.5638  -48.4702 H         1 UNK         0.0600 
    207 H207       -9.2658  -26.7959  -48.9777 H         1 UNK         0.0600 
    208 H208       -9.4745  -25.6914  -50.3277 H         1 UNK         0.0600 
    209 H209       -8.2452  -26.9442  -50.4070 H         1 UNK         0.0600 
    210 H210       -6.0943  -23.3365  -48.6439 H         1 UNK         0.3000 
    211 H211       -4.7763  -21.9339  -49.6963 H         1 UNK         0.0600 
    212 H212       -6.7117  -22.0500  -52.0663 H         1 UNK         0.0600 
    213 H213       -5.5732  -20.7647  -51.6901 H         1 UNK         0.0600 
    214 H214       -6.9367  -21.0566  -50.6267 H         1 UNK         0.0600 
    215 H215       -3.7805  -24.3788  -49.6459 H         1 UNK         0.3000 
    216 H216       -2.3156  -25.8312  -50.4125 H         1 UNK         0.0600 
    217 H217       -0.5061  -24.9894  -51.8882 H         1 UNK         0.0600 
    218 H218       -0.9240  -23.7912  -50.6722 H         1 UNK         0.0600 
    219 H219       -1.4772  -23.5927  -52.3326 H         1 UNK         0.0600 
    220 H220       -4.5944  -26.6888  -51.1859 H         1 UNK         0.3000 
    221 H221       -5.7798  -27.9584  -52.5074 H         1 UNK         0.0600 
    222 H222       -3.2442  -28.3976  -54.1720 H         1 UNK         0.0600 
    223 H223       -3.6758  -29.2911  -52.7143 H         1 UNK         0.0600 
    224 H224       -4.6735  -29.4199  -54.1536 H         1 UNK         0.0600 
    225 H225       -6.2208  -25.3623  -52.8588 H         1 UNK         0.3000 
    226 H226       -7.1726  -23.8100  -54.0403 H         1 UNK         0.0600 
    227 H227       -8.7374  -25.6721  -54.6366 H         1 UNK         0.0600 
    228 H228       -8.6695  -24.4416  -55.8855 H         1 UNK         0.0600 
    229 H229       -7.8233  -25.9649  -56.1164 H         1 UNK         0.0600 
    230 H230       -4.2742  -24.2876  -54.5482 H         1 UNK         0.3000 
    231 H231       -3.7360  -23.3845  -57.2581 H         1 UNK         0.0600 
    232 H232       -1.9660  -23.4385  -54.7565 H         1 UNK         0.0600 
    233 H233       -1.4131  -23.1008  -56.3932 H         1 UNK         0.0600 
    234 H234       -2.0516  -24.6888  -55.9948 H         1 UNK         0.0600 
    235 H235       -3.8736  -21.8958  -54.0201 H         1 UNK         0.3000 
    236 H236       -4.0157  -19.8250  -53.2351 H         1 UNK         0.0600 
    237 H237       -6.3019  -20.2915  -54.1587 H         1 UNK         0.0600 
    238 H238       -5.9513  -18.5722  -54.1289 H         1 UNK         0.0600 
    239 H239       -5.8675  -19.4573  -55.6484 H         1 UNK         0.0600 
    240 H240       -1.7047  -20.0577  -54.9745 H         1 UNK         0.3000 
    241 H241       -0.0554  -18.8742  -55.8042 H         1 UNK         0.0600 
    242 H242       -2.2801  -18.5204  -58.9581 H         1 UNK         0.3800 
    243 H243       -2.6493  -19.4490  -57.5255 H         1 UNK         0.3800 
    244 H244       -1.3208  -16.1672  -55.2438 H         1 UNK         0.0800 
    245 H245       -0.8047  -17.1659  -53.9232 H         1 UNK         0.0800 
    246 H246        1.7759  -18.1395  -53.7137 H         1 UNK         0.0800 
    247 H247        2.9769  -16.8751  -53.8044 H         1 UNK         0.0800 
@<TRIPOS>BOND
     1    1    2 1    
     2    1  127 1    
     3    1  128 1    
     4    1  129 1    
     5    2    3 2    
     6    2    4 am   BACKBONE|DICT|INTERRES
     7    4    5 1    
     8    4  130 1    
     9    5    6 1    
    10    5   65 1    
    11    5  131 1    
    12    6    7 1    
    13    6  132 1    
    14    6  133 1    
    15    7    8 1    
    16    8    9 1    
    17    8  134 1    
    18    8  135 1    
    19    9   10 ar   
    20    9   14 ar   
    21   10   11 ar   
    22   10  136 1    
    23   11   12 ar   
    24   11  126 1    
    25   12   13 ar   
    26   12  137 1    
    27   13   14 ar   
    28   13   15 1    
    29   14  138 1    
    30   15   16 1    
    31   15  139 1    
    32   15  140 1    
    33   16   17 1    
    34   17   18 1    
    35   17  141 1    
    36   17  142 1    
    37   18   19 1    
    38   18   67 1    
    39   18  143 1    
    40   19   20 am   BACKBONE|DICT|INTERRES
    41   19  144 1    
    42   20   21 2    
    43   20   22 1    
    44   22   23 1    
    45   22   24 1    
    46   22  145 1    
    47   23  146 1    
    48   23  147 1    
    49   23  148 1    
    50   24   25 am   BACKBONE|DICT|INTERRES
    51   24  149 1    
    52   25   26 2    
    53   25   27 1    
    54   27   28 1    
    55   27   29 1    
    56   27  150 1    
    57   28  151 1    
    58   28  152 1    
    59   28  153 1    
    60   29   30 am   BACKBONE|DICT|INTERRES
    61   29  154 1    
    62   30   31 2    
    63   30   32 1    
    64   32   33 1    
    65   32   34 1    
    66   32  155 1    
    67   33  156 1    
    68   33  157 1    
    69   33  158 1    
    70   34   35 am   BACKBONE|DICT|INTERRES
    71   34  159 1    
    72   35   36 2    
    73   35   37 1    
    74   37   38 1    
    75   37   39 1    
    76   37  160 1    
    77   38  161 1    
    78   38  162 1    
    79   38  163 1    
    80   39   40 am   BACKBONE|DICT|INTERRES
    81   39  164 1    
    82   40   41 2    
    83   40   42 1    
    84   42   43 1    
    85   42   44 1    
    86   42  165 1    
    87   43  166 1    
    88   43  167 1    
    89   43  168 1    
    90   44   45 am   BACKBONE|DICT|INTERRES
    91   44  169 1    
    92   45   46 2    
    93   45   47 1    
    94   47   48 1    
    95   47   49 1    
    96   47  170 1    
    97   48  171 1    
    98   48  172 1    
    99   48  173 1    
   100   49   50 am   BACKBONE|DICT|INTERRES
   101   49  174 1    
   102   50   51 2    
   103   50   52 1    
   104   52   53 1    
   105   52   54 1    
   106   52  175 1    
   107   53  176 1    
   108   53  177 1    
   109   53  178 1    
   110   54   55 am   BACKBONE|DICT|INTERRES
   111   54  179 1    
   112   55   56 2    
   113   55   57 1    
   114   57   58 1    
   115   57   59 1    
   116   57  180 1    
   117   58  181 1    
   118   58  182 1    
   119   58  183 1    
   120   59   60 am   BACKBONE|DICT|INTERRES
   121   59  184 1    
   122   60   61 2    
   123   60   62 1    
   124   62   63 1    
   125   62   64 1    
   126   62  185 1    
   127   63  186 1    
   128   63  187 1    
   129   63  188 1    
   130   64   65 am   BACKBONE|DICT|INTERRES
   131   64  189 1    
   132   65   66 2    
   133   67   68 2    
   134   67   69 am   BACKBONE|DICT|INTERRES
   135   69   70 1    
   136   69  190 1    
   137   70   71 1    
   138   70   72 1    
   139   70  191 1    
   140   71  192 1    
   141   71  193 1    
   142   71  194 1    
   143   72   73 2    
   144   72   74 am   BACKBONE|DICT|INTERRES
   145   74   75 1    
   146   74  195 1    
   147   75   76 1    
   148   75   77 1    
   149   75  196 1    
   150   76  197 1    
   151   76  198 1    
   152   76  199 1    
   153   77   78 2    
   154   77   79 am   BACKBONE|DICT|INTERRES
   155   79   80 1    
   156   79  200 1    
   157   80   81 1    
   158   80   82 1    
   159   80  201 1    
   160   81  202 1    
   161   81  203 1    
   162   81  204 1    
   163   82   83 2    
   164   82   84 am   BACKBONE|DICT|INTERRES
   165   84   85 1    
   166   84  205 1    
   167   85   86 1    
   168   85   87 1    
   169   85  206 1    
   170   86  207 1    
   171   86  208 1    
   172   86  209 1    
   173   87   88 2    
   174   87   89 am   BACKBONE|DICT|INTERRES
   175   89   90 1    
   176   89  210 1    
   177   90   91 1    
   178   90   92 1    
   179   90  211 1    
   180   91  212 1    
   181   91  213 1    
   182   91  214 1    
   183   92   93 2    
   184   92   94 am   BACKBONE|DICT|INTERRES
   185   94   95 1    
   186   94  215 1    
   187   95   96 1    
   188   95   97 1    
   189   95  216 1    
   190   96  217 1    
   191   96  218 1    
   192   96  219 1    
   193   97   98 2    
   194   97   99 am   BACKBONE|DICT|INTERRES
   195   99  100 1    
   196   99  220 1    
   197  100  101 1    
   198  100  102 1    
   199  100  221 1    
   200  101  222 1    
   201  101  223 1    
   202  101  224 1    
   203  102  103 2    
   204  102  104 am   BACKBONE|DICT|INTERRES
   205  104  105 1    
   206  104  225 1    
   207  105  106 1    
   208  105  107 1    
   209  105  226 1    
   210  106  227 1    
   211  106  228 1    
   212  106  229 1    
   213  107  108 2    
   214  107  109 am   BACKBONE|DICT|INTERRES
   215  109  110 1    
   216  109  230 1    
   217  110  111 1    
   218  110  112 1    
   219  110  231 1    
   220  111  232 1    
   221  111  233 1    
   222  111  234 1    
   223  112  113 2    
   224  112  114 am   BACKBONE|DICT|INTERRES
   225  114  115 1    
   226  114  235 1    
   227  115  116 1    
   228  115  117 1    
   229  115  236 1    
   230  116  237 1    
   231  116  238 1    
   232  116  239 1    
   233  117  118 2    
   234  117  119 am   BACKBONE|DICT|INTERRES
   235  119  120 1    
   236  119  240 1    
   237  120  121 1    
   238  120  124 1    
   239  120  241 1    
   240  121  122 am   BACKBONE|DICT|INTERRES
   241  121  123 2    
   242  122  242 1    
   243  122  243 1    
   244  124  125 1    
   245  124  244 1    
   246  124  245 1    
   247  125  126 1    
   248  126  246 1    
   249  126  247 1    
@<TRIPOS>SUBSTRUCTURE
     1 UNK         1 GROUP             0       ****    0 ROOT    
