@<TRIPOS>MOLECULE
3R540
247   249    1
SMALL
USER_CHARGES


@<TRIPOS>ATOM
      1 CA          2.7228  -11.9511  -42.8256 C.3       0 UNK        -0.1800 
      2 C           1.3780  -12.4675  -42.3349 C.2       0 UNK         0.5000 
      3 O           1.0800  -12.3535  -41.1457 O.2       0 UNK        -0.5000 
      4 N           0.5728  -13.0285  -43.2427 N.am      1 UNK        -0.5000 
      5 CA         -0.7845  -13.5246  -42.9825 C.3       1 UNK         0.1400 
      6 C6         -0.8992  -15.0495  -43.2231 C.3       23 UNK        -0.0398 
      7 S7         -0.6216  -15.5897  -44.9485 S.3       23 UNK        -0.2404 
      8 C8         -2.2959  -16.1221  -45.4092 C.3       23 UNK        -0.0205 
      9 C9         -2.3409  -16.6627  -46.8289 C.ar      23 UNK        -0.0193 
     10 C10        -2.5912  -15.8026  -47.9026 C.ar      23 UNK        -0.1150 
     11 C11        -2.6732  -16.2917  -49.2103 C.ar      23 UNK        -0.0193 
     12 C12        -2.5163  -17.6653  -49.4239 C.ar      23 UNK        -0.1150 
     13 C13        -2.2429  -18.5350  -48.3671 C.ar      23 UNK        -0.0193 
     14 C14        -2.1561  -18.0270  -47.0691 C.ar      23 UNK        -0.1150 
     15 C15        -2.0110  -20.0110  -48.6494 C.3       23 UNK        -0.0205 
     16 S16        -3.4131  -21.0451  -48.1309 S.3       23 UNK        -0.2404 
     17 C17        -2.7883  -21.7585  -46.5729 C.3       23 UNK        -0.0398 
     18 CA         -2.0461  -23.0999  -46.8190 C.3       11 UNK         0.1400 
     19 N          -0.5878  -22.9436  -46.8555 N.am      11 UNK        -0.5000 
     20 C           0.2683  -23.9029  -47.2361 C.2       10 UNK         0.5000 
     21 O          -0.0825  -25.0045  -47.6501 O.2       10 UNK        -0.5000 
     22 CA          1.7662  -23.6130  -47.0650 C.3       10 UNK         0.1400 
     23 CB          2.3049  -22.7722  -48.2326 C.3       10 UNK        -0.1800 
     24 N           2.0369  -22.9495  -45.7905 N.am      10 UNK        -0.5000 
     25 C           1.9618  -23.5563  -44.5973 C.2       9 UNK         0.5000 
     26 O           1.7013  -24.7516  -44.4564 O.2       9 UNK        -0.5000 
     27 CA          2.1789  -22.6747  -43.3522 C.3       9 UNK         0.1400 
     28 CB          3.6747  -22.5685  -43.0207 C.3       9 UNK        -0.1800 
     29 N           1.6193  -21.3293  -43.4977 N.am      9 UNK        -0.5000 
     30 C           0.3092  -21.0615  -43.5864 C.2       8 UNK         0.5000 
     31 O          -0.5696  -21.9212  -43.5301 O.2       8 UNK        -0.5000 
     32 CA         -0.0847  -19.5940  -43.8453 C.3       8 UNK         0.1400 
     33 CB         -0.1533  -18.8151  -42.5250 C.3       8 UNK        -0.1800 
     34 N           0.7855  -18.8845  -44.7933 N.am      8 UNK        -0.5000 
     35 C           1.0955  -19.3102  -46.0264 C.2       7 UNK         0.5000 
     36 O           0.7040  -20.3876  -46.4721 O.2       7 UNK        -0.5000 
     37 CA          1.9836  -18.4156  -46.9136 C.3       7 UNK         0.1400 
     38 CB          1.4936  -18.3965  -48.3724 C.3       7 UNK        -0.1800 
     39 N           2.0819  -17.0322  -46.4520 N.am      7 UNK        -0.5000 
     40 C           2.9954  -16.5440  -45.6034 C.2       6 UNK         0.5000 
     41 O           3.8023  -17.2484  -44.9963 O.2       6 UNK        -0.5000 
     42 CA          3.0182  -15.0096  -45.4474 C.3       6 UNK         0.1400 
     43 CB          4.3866  -14.4773  -44.9848 C.3       6 UNK        -0.1800 
     44 N           2.6577  -14.3857  -46.7220 N.am      6 UNK        -0.5000 
     45 C           1.8377  -13.3448  -46.8928 C.2       5 UNK         0.5000 
     46 O           1.3035  -12.7181  -45.9748 O.2       5 UNK        -0.5000 
     47 CA          1.5294  -12.9821  -48.3496 C.3       5 UNK         0.1400 
     48 CB          0.3245  -13.7912  -48.8613 C.3       5 UNK        -0.1800 
     49 N           1.2750  -11.5469  -48.4742 N.am      5 UNK        -0.5000 
     50 C           1.4752  -10.8523  -49.6035 C.2       4 UNK         0.5000 
     51 O           1.8314  -11.3783  -50.6597 O.2       4 UNK        -0.5000 
     52 CA          1.2478   -9.3292  -49.5579 C.3       4 UNK         0.1400 
     53 CB          0.9999   -8.7139  -50.9508 C.3       4 UNK        -0.1800 
     54 N           0.1499   -8.9748  -48.6607 N.am      4 UNK        -0.5000 
     55 C           0.0667   -7.8272  -47.9748 C.2       3 UNK         0.5000 
     56 O           0.9215   -6.9410  -48.0220 O.2       3 UNK        -0.5000 
     57 CA         -1.1770   -7.6207  -47.0842 C.3       3 UNK         0.1400 
     58 CB         -2.1990   -6.7200  -47.7956 C.3       3 UNK        -0.1800 
     59 N          -1.8464   -8.8577  -46.6679 N.am      3 UNK        -0.5000 
     60 C          -1.2916   -9.8094  -45.9077 C.2       2 UNK         0.5000 
     61 O          -0.1255   -9.7641  -45.5050 O.2       2 UNK        -0.5000 
     62 CA         -2.1826  -11.0112  -45.5554 C.3       2 UNK         0.1400 
     63 CB         -2.7094  -11.7309  -46.8102 C.3       2 UNK        -0.1800 
     64 N          -1.3926  -11.9381  -44.7589 N.am      2 UNK        -0.5000 
     65 C          -1.8394  -12.7228  -43.7736 C.2       1 UNK         0.5000 
     66 O          -3.0281  -12.8156  -43.4635 O.2       1 UNK        -0.5000 
     67 C          -2.4854  -24.1941  -45.8263 C.2       11 UNK         0.5000 
     68 O          -3.3714  -24.9785  -46.1634 O.2       11 UNK        -0.5000 
     69 N          -1.8417  -24.2684  -44.6533 N.am      12 UNK        -0.5000 
     70 CA         -2.0637  -25.3255  -43.6654 C.3       12 UNK         0.1400 
     71 CB         -1.3016  -24.9984  -42.3724 C.3       12 UNK        -0.1800 
     72 C          -1.6817  -26.7215  -44.1940 C.2       12 UNK         0.5000 
     73 O          -2.4505  -27.6667  -44.0153 O.2       12 UNK        -0.5000 
     74 N          -0.5236  -26.8187  -44.8623 N.am      13 UNK        -0.5000 
     75 CA         -0.0225  -28.0497  -45.4769 C.3       13 UNK         0.1400 
     76 CB          1.4453  -27.8526  -45.8854 C.3       13 UNK        -0.1800 
     77 C          -0.8649  -28.5119  -46.6817 C.2       13 UNK         0.5000 
     78 O          -1.1408  -29.7052  -46.8101 O.2       13 UNK        -0.5000 
     79 N          -1.2625  -27.5610  -47.5364 N.am      14 UNK        -0.5000 
     80 CA         -2.0324  -27.7945  -48.7599 C.3       14 UNK         0.1400 
     81 CB         -1.7851  -26.6225  -49.7242 C.3       14 UNK        -0.1800 
     82 C          -3.5444  -27.9757  -48.5244 C.2       14 UNK         0.5000 
     83 O          -4.2592  -28.2710  -49.4817 O.2       14 UNK        -0.5000 
     84 N          -4.0152  -27.7590  -47.2871 N.am      15 UNK        -0.5000 
     85 CA         -5.4219  -27.7561  -46.8667 C.3       15 UNK         0.1400 
     86 CB         -6.0358  -29.1678  -46.9710 C.3       15 UNK        -0.1800 
     87 C          -6.2369  -26.6750  -47.6093 C.2       15 UNK         0.5000 
     88 O          -7.2968  -26.9562  -48.1704 O.2       15 UNK        -0.5000 
     89 N          -5.6795  -25.4569  -47.6159 N.am      16 UNK        -0.5000 
     90 CA         -6.1659  -24.2176  -48.2294 C.3       16 UNK         0.1400 
     91 CB         -7.5594  -23.8316  -47.6945 C.3       16 UNK        -0.1800 
     92 C          -6.1069  -24.1804  -49.7701 C.2       16 UNK         0.5000 
     93 O          -6.4728  -23.1589  -50.3496 O.2       16 UNK        -0.5000 
     94 N          -5.6093  -25.2396  -50.4271 N.am      17 UNK        -0.5000 
     95 CA         -5.4797  -25.3069  -51.8893 C.3       17 UNK         0.1400 
     96 CB         -5.1592  -26.7471  -52.3133 C.3       17 UNK        -0.1800 
     97 C          -4.4405  -24.3215  -52.4650 C.2       17 UNK         0.5000 
     98 O          -4.5417  -23.9428  -53.6323 O.2       17 UNK        -0.5000 
     99 N          -3.4840  -23.8926  -51.6289 N.am      18 UNK        -0.5000 
    100 CA        -2.4684  -22.8892  -51.9537 C.3       18 UNK         0.1400 
    101 CB        -1.3228  -22.9841  -50.9328 C.3       18 UNK        -0.1800 
    102 C         -3.0157  -21.4481  -52.0291 C.2       18 UNK         0.5000 
    103 O         -2.2868  -20.5610  -52.4769 O.2       18 UNK        -0.5000 
    104 N         -4.2725  -21.2207  -51.6125 N.am      19 UNK        -0.5000 
    105 CA        -4.9378  -19.9114  -51.6007 C.3       19 UNK         0.1400 
    106 CB        -6.2947  -20.0324  -50.8934 C.3       19 UNK        -0.1800 
    107 C         -5.1099  -19.2702  -52.9923 C.2       19 UNK         0.5000 
    108 O         -5.2896  -18.0563  -53.0829 O.2       19 UNK        -0.5000 
    109 N         -5.0408  -20.0882  -54.0502 N.am      20 UNK        -0.5000 
    110 CA        -5.0380  -19.6459  -55.4430 C.3       20 UNK         0.1400 
    111 CB        -5.4513  -20.8308  -56.3301 C.3       20 UNK        -0.1800 
    112 C         -3.6753  -19.0833  -55.9005 C.2       20 UNK         0.5000 
    113 O         -3.6334  -18.3868  -56.9158 O.2       20 UNK        -0.5000 
    114 N         -2.5930  -19.4094  -55.1791 N.am      21 UNK        -0.5000 
    115 CA        -1.2179  -19.0567  -55.5313 C.3       21 UNK         0.1400 
    116 CB        -0.3632  -20.3352  -55.5457 C.3       21 UNK        -0.1800 
    117 C         -0.6216  -18.0234  -54.5630 C.2       21 UNK         0.5000 
    118 O         -0.0098  -17.0574  -55.0206 O.2       21 UNK        -0.5000 
    119 N         -0.7931  -18.2499  -53.2526 N.am      22 UNK        -0.5000 
    120 CA        -0.2268  -17.4400  -52.1548 C.3       22 UNK         0.1400 
    121 C          1.3312  -17.4691  -52.0646 C.2       22 UNK         0.5000 
    122 N          2.0002  -18.4852  -52.5965 N.am      22 UNK        -0.7600 
    123 O          1.9465  -16.5783  -51.4852 O.2       22 UNK        -0.5000 
    124 C124       -0.7996  -15.9928  -52.0831 C.3       23 UNK        -0.0398 
    125 S125       -2.6250  -15.9164  -52.0433 S.3       23 UNK        -0.2404 
    126 C126       -2.9632  -15.3101  -50.3487 C.3       23 UNK        -0.0205 
    127 H127        3.5203  -12.6259  -42.5154 H         1 UNK         0.0600 
    128 H128        2.9244  -10.9660  -42.4047 H         1 UNK         0.0600 
    129 H129        2.7492  -11.8608  -43.9110 H         1 UNK         0.0600 
    130 H130        0.8717  -13.0652  -44.2154 H         1 UNK         0.3000 
    131 H131       -1.0351  -13.3573  -41.9332 H         1 UNK         0.0600 
    132 H132       -1.8699  -15.4086  -42.8773 H         1 UNK         0.0800 
    133 H133       -0.1647  -15.5561  -42.5964 H         1 UNK         0.0800 
    134 H134       -2.9843  -15.2813  -45.3088 H         1 UNK         0.0800 
    135 H135       -2.6376  -16.8878  -44.7110 H         1 UNK         0.0800 
    136 H136       -2.7304  -14.7473  -47.7165 H         1 UNK         0.1150 
    137 H137       -2.5918  -18.0685  -50.4203 H         1 UNK         0.1150 
    138 H138       -1.9508  -18.6938  -46.2462 H         1 UNK         0.1150 
    139 H139       -1.8470  -20.1618  -49.7156 H         1 UNK         0.0800 
    140 H140       -1.0940  -20.3458  -48.1721 H         1 UNK         0.0800 
    141 H141       -3.6617  -21.8892  -45.9307 H         1 UNK         0.0800 
    142 H142       -2.1534  -21.0416  -46.0521 H         1 UNK         0.0800 
    143 H143       -2.3389  -23.4859  -47.7972 H         1 UNK         0.0600 
    144 H144       -0.2048  -22.0509  -46.5560 H         1 UNK         0.3000 
    145 H145        2.2949  -24.5686  -47.0703 H         1 UNK         0.0600 
    146 H146        3.3685  -22.5659  -48.1135 H         1 UNK         0.0600 
    147 H147        2.1801  -23.3019  -49.1779 H         1 UNK         0.0600 
    148 H148        1.7862  -21.8191  -48.3273 H         1 UNK         0.0600 
    149 H149        2.1569  -21.9468  -45.8213 H         1 UNK         0.3000 
    150 H150        1.6779  -23.1603  -42.5120 H         1 UNK         0.0600 
    151 H151        4.1157  -23.5573  -42.8872 H         1 UNK         0.0600 
    152 H152        3.8352  -22.0149  -42.0954 H         1 UNK         0.0600 
    153 H153        4.2293  -22.0659  -43.8141 H         1 UNK         0.0600 
    154 H154        2.2737  -20.5638  -43.5677 H         1 UNK         0.3000 
    155 H155       -1.0877  -19.6081  -44.2739 H         1 UNK         0.0600 
    156 H156        0.8381  -18.6392  -42.1062 H         1 UNK         0.0600 
    157 H157       -0.7359  -19.3563  -41.7781 H         1 UNK         0.0600 
    158 H158       -0.6384  -17.8517  -42.6680 H         1 UNK         0.0600 
    159 H159        1.1371  -17.9845  -44.5031 H         1 UNK         0.3000 
    160 H160        2.9780  -18.8663  -46.9057 H         1 UNK         0.0600 
    161 H161        0.5212  -17.9134  -48.4642 H         1 UNK         0.0600 
    162 H162        1.4041  -19.4021  -48.7844 H         1 UNK         0.0600 
    163 H163        2.1932  -17.8544  -49.0082 H         1 UNK         0.0600 
    164 H164        1.4063  -16.3894  -46.8400 H         1 UNK         0.3000 
    165 H165        2.2770  -14.7627  -44.6866 H         1 UNK         0.0600 
    166 H166        4.3895  -13.3893  -44.9257 H         1 UNK         0.0600 
    167 H167        4.6410  -14.8573  -43.9947 H         1 UNK         0.0600 
    168 H168        5.1829  -14.7740  -45.6683 H         1 UNK         0.0600 
    169 H169        3.0388  -14.8410  -47.5405 H         1 UNK         0.3000 
    170 H170        2.4060  -13.2368  -48.9499 H         1 UNK         0.0600 
    171 H171        0.5471  -14.8590  -48.8746 H         1 UNK         0.0600 
    172 H172       -0.5497  -13.6526  -48.2275 H         1 UNK         0.0600 
    173 H173        0.0533  -13.5041  -49.8769 H         1 UNK         0.0600 
    174 H174        1.0436  -11.0716  -47.6100 H         1 UNK         0.3000 
    175 H175        2.1762   -8.9102  -49.1643 H         1 UNK         0.0600 
    176 H176        0.0947   -9.1149  -51.4080 H         1 UNK         0.0600 
    177 H177        0.8940   -7.6305  -50.8934 H         1 UNK         0.0600 
    178 H178        1.8309   -8.9173  -51.6272 H         1 UNK         0.0600 
    179 H179       -0.5930   -9.6528  -48.5699 H         1 UNK         0.3000 
    180 H180       -0.8423   -7.1070  -46.1806 H         1 UNK         0.0600 
    181 H181       -3.0400   -6.4838  -47.1433 H         1 UNK         0.0600 
    182 H182       -2.5929   -7.1929  -48.6962 H         1 UNK         0.0600 
    183 H183       -1.7464   -5.7733  -48.0936 H         1 UNK         0.0600 
    184 H184       -2.8061   -8.9654  -46.9632 H         1 UNK         0.3000 
    185 H185       -3.0226  -10.6419  -44.9636 H         1 UNK         0.0600 
    186 H186       -3.2445  -12.6432  -46.5467 H         1 UNK         0.0600 
    187 H187       -3.4048  -11.1017  -47.3661 H         1 UNK         0.0600 
    188 H188       -1.8986  -11.9995  -47.4857 H         1 UNK         0.0600 
    189 H189       -0.3946  -11.8763  -44.9309 H         1 UNK         0.3000 
    190 H190       -1.1721  -23.5452  -44.4071 H         1 UNK         0.3000 
    191 H191       -3.1303  -25.3415  -43.4314 H         1 UNK         0.0600 
    192 H192       -1.4734  -25.7632  -41.6140 H         1 UNK         0.0600 
    193 H193       -1.6277  -24.0463  -41.9535 H         1 UNK         0.0600 
    194 H194       -0.2265  -24.9384  -42.5403 H         1 UNK         0.0600 
    195 H195        0.0697  -25.9996  -44.9362 H         1 UNK         0.3000 
    196 H196       -0.0595  -28.8400  -44.7242 H         1 UNK         0.0600 
    197 H197        1.5561  -27.0515  -46.6169 H         1 UNK         0.0600 
    198 H198        2.0639  -27.6039  -45.0229 H         1 UNK         0.0600 
    199 H199        1.8539  -28.7618  -46.3282 H         1 UNK         0.0600 
    200 H200       -0.9376  -26.6069  -47.3912 H         1 UNK         0.3000 
    201 H201       -1.6655  -28.7069  -49.2343 H         1 UNK         0.0600 
    202 H202       -2.1757  -25.6864  -49.3236 H         1 UNK         0.0600 
    203 H203       -2.2610  -26.7947  -50.6888 H         1 UNK         0.0600 
    204 H204       -0.7204  -26.4867  -49.9149 H         1 UNK         0.0600 
    205 H205       -3.3486  -27.4740  -46.5820 H         1 UNK         0.3000 
    206 H206       -5.4252  -27.4735  -45.8129 H         1 UNK         0.0600 
    207 H207       -5.4398  -29.8969  -46.4222 H         1 UNK         0.0600 
    208 H208       -7.0411  -29.1861  -46.5488 H         1 UNK         0.0600 
    209 H209       -6.1110  -29.5062  -48.0047 H         1 UNK         0.0600 
    210 H210       -4.7977  -25.3566  -47.1117 H         1 UNK         0.3000 
    211 H211       -5.4716  -23.4452  -47.8960 H         1 UNK         0.0600 
    212 H212       -7.8396  -22.8302  -48.0236 H         1 UNK         0.0600 
    213 H213       -7.5774  -23.8296  -46.6047 H         1 UNK         0.0600 
    214 H214       -8.3337  -24.5148  -48.0439 H         1 UNK         0.0600 
    215 H215       -5.3482  -26.0645  -49.9038 H         1 UNK         0.3000 
    216 H216       -6.4476  -25.0410  -52.3197 H         1 UNK         0.0600 
    217 H217       -4.1861  -27.0706  -51.9466 H         1 UNK         0.0600 
    218 H218       -5.1448  -26.8389  -53.4001 H         1 UNK         0.0600 
    219 H219       -5.9074  -27.4457  -51.9381 H         1 UNK         0.0600 
    220 H220       -3.4865  -24.2476  -50.6853 H         1 UNK         0.3000 
    221 H221       -2.0595  -23.1237  -52.9387 H         1 UNK         0.0600 
    222 H222       -0.8658  -23.9736  -50.9411 H         1 UNK         0.0600 
    223 H223       -1.6671  -22.7836  -49.9198 H         1 UNK         0.0600 
    224 H224       -0.5343  -22.2644  -51.1571 H         1 UNK         0.0600 
    225 H225       -4.8186  -21.9955  -51.2565 H         1 UNK         0.3000 
    226 H226       -4.3210  -19.2369  -51.0106 H         1 UNK         0.0600 
    227 H227       -6.9677  -20.7028  -51.4290 H         1 UNK         0.0600 
    228 H228       -6.1770  -20.4111  -49.8778 H         1 UNK         0.0600 
    229 H229       -6.7865  -19.0616  -50.8210 H         1 UNK         0.0600 
    230 H230       -4.9125  -21.0766  -53.8851 H         1 UNK         0.3000 
    231 H231       -5.7802  -18.8539  -55.5639 H         1 UNK         0.0600 
    232 H232       -4.7504  -21.6622  -56.2428 H         1 UNK         0.0600 
    233 H233       -5.4877  -20.5401  -57.3808 H         1 UNK         0.0600 
    234 H234       -6.4421  -21.1979  -56.0615 H         1 UNK         0.0600 
    235 H235       -2.7151  -19.9307  -54.3186 H         1 UNK         0.3000 
    236 H236       -1.1782  -18.6244  -56.5333 H         1 UNK         0.0600 
    237 H237       -0.7295  -21.0419  -56.2905 H         1 UNK         0.0600 
    238 H238        0.6744  -20.1096  -55.7955 H         1 UNK         0.0600 
    239 H239       -0.3680  -20.8392  -54.5785 H         1 UNK         0.0600 
    240 H240       -1.3111  -19.0761  -52.9639 H         1 UNK         0.3000 
    241 H241       -0.5282  -17.9525  -51.2443 H         1 UNK         0.0600 
    242 H242        3.0055  -18.5021  -52.5304 H         1 UNK         0.3800 
    243 H243        1.5152  -19.2317  -53.0665 H         1 UNK         0.3800 
    244 H244       -0.4555  -15.4069  -52.9361 H         1 UNK         0.0800 
    245 H245       -0.4161  -15.4831  -51.1994 H         1 UNK         0.0800 
    246 H246       -2.4027  -14.3875  -50.1910 H         1 UNK         0.0800 
    247 H247       -4.0181  -15.0387  -50.2950 H         1 UNK         0.0800 
@<TRIPOS>BOND
     1    1    2 1    
     2    1  127 1    
     3    1  128 1    
     4    1  129 1    
     5    2    3 2    
     6    2    4 am   BACKBONE|DICT|INTERRES
     7    4    5 1    
     8    4  130 1    
     9    5    6 1    
    10    5   65 1    
    11    5  131 1    
    12    6    7 1    
    13    6  132 1    
    14    6  133 1    
    15    7    8 1    
    16    8    9 1    
    17    8  134 1    
    18    8  135 1    
    19    9   10 ar   
    20    9   14 ar   
    21   10   11 ar   
    22   10  136 1    
    23   11   12 ar   
    24   11  126 1    
    25   12   13 ar   
    26   12  137 1    
    27   13   14 ar   
    28   13   15 1    
    29   14  138 1    
    30   15   16 1    
    31   15  139 1    
    32   15  140 1    
    33   16   17 1    
    34   17   18 1    
    35   17  141 1    
    36   17  142 1    
    37   18   19 1    
    38   18   67 1    
    39   18  143 1    
    40   19   20 am   BACKBONE|DICT|INTERRES
    41   19  144 1    
    42   20   21 2    
    43   20   22 1    
    44   22   23 1    
    45   22   24 1    
    46   22  145 1    
    47   23  146 1    
    48   23  147 1    
    49   23  148 1    
    50   24   25 am   BACKBONE|DICT|INTERRES
    51   24  149 1    
    52   25   26 2    
    53   25   27 1    
    54   27   28 1    
    55   27   29 1    
    56   27  150 1    
    57   28  151 1    
    58   28  152 1    
    59   28  153 1    
    60   29   30 am   BACKBONE|DICT|INTERRES
    61   29  154 1    
    62   30   31 2    
    63   30   32 1    
    64   32   33 1    
    65   32   34 1    
    66   32  155 1    
    67   33  156 1    
    68   33  157 1    
    69   33  158 1    
    70   34   35 am   BACKBONE|DICT|INTERRES
    71   34  159 1    
    72   35   36 2    
    73   35   37 1    
    74   37   38 1    
    75   37   39 1    
    76   37  160 1    
    77   38  161 1    
    78   38  162 1    
    79   38  163 1    
    80   39   40 am   BACKBONE|DICT|INTERRES
    81   39  164 1    
    82   40   41 2    
    83   40   42 1    
    84   42   43 1    
    85   42   44 1    
    86   42  165 1    
    87   43  166 1    
    88   43  167 1    
    89   43  168 1    
    90   44   45 am   BACKBONE|DICT|INTERRES
    91   44  169 1    
    92   45   46 2    
    93   45   47 1    
    94   47   48 1    
    95   47   49 1    
    96   47  170 1    
    97   48  171 1    
    98   48  172 1    
    99   48  173 1    
   100   49   50 am   BACKBONE|DICT|INTERRES
   101   49  174 1    
   102   50   51 2    
   103   50   52 1    
   104   52   53 1    
   105   52   54 1    
   106   52  175 1    
   107   53  176 1    
   108   53  177 1    
   109   53  178 1    
   110   54   55 am   BACKBONE|DICT|INTERRES
   111   54  179 1    
   112   55   56 2    
   113   55   57 1    
   114   57   58 1    
   115   57   59 1    
   116   57  180 1    
   117   58  181 1    
   118   58  182 1    
   119   58  183 1    
   120   59   60 am   BACKBONE|DICT|INTERRES
   121   59  184 1    
   122   60   61 2    
   123   60   62 1    
   124   62   63 1    
   125   62   64 1    
   126   62  185 1    
   127   63  186 1    
   128   63  187 1    
   129   63  188 1    
   130   64   65 am   BACKBONE|DICT|INTERRES
   131   64  189 1    
   132   65   66 2    
   133   67   68 2    
   134   67   69 am   BACKBONE|DICT|INTERRES
   135   69   70 1    
   136   69  190 1    
   137   70   71 1    
   138   70   72 1    
   139   70  191 1    
   140   71  192 1    
   141   71  193 1    
   142   71  194 1    
   143   72   73 2    
   144   72   74 am   BACKBONE|DICT|INTERRES
   145   74   75 1    
   146   74  195 1    
   147   75   76 1    
   148   75   77 1    
   149   75  196 1    
   150   76  197 1    
   151   76  198 1    
   152   76  199 1    
   153   77   78 2    
   154   77   79 am   BACKBONE|DICT|INTERRES
   155   79   80 1    
   156   79  200 1    
   157   80   81 1    
   158   80   82 1    
   159   80  201 1    
   160   81  202 1    
   161   81  203 1    
   162   81  204 1    
   163   82   83 2    
   164   82   84 am   BACKBONE|DICT|INTERRES
   165   84   85 1    
   166   84  205 1    
   167   85   86 1    
   168   85   87 1    
   169   85  206 1    
   170   86  207 1    
   171   86  208 1    
   172   86  209 1    
   173   87   88 2    
   174   87   89 am   BACKBONE|DICT|INTERRES
   175   89   90 1    
   176   89  210 1    
   177   90   91 1    
   178   90   92 1    
   179   90  211 1    
   180   91  212 1    
   181   91  213 1    
   182   91  214 1    
   183   92   93 2    
   184   92   94 am   BACKBONE|DICT|INTERRES
   185   94   95 1    
   186   94  215 1    
   187   95   96 1    
   188   95   97 1    
   189   95  216 1    
   190   96  217 1    
   191   96  218 1    
   192   96  219 1    
   193   97   98 2    
   194   97   99 am   BACKBONE|DICT|INTERRES
   195   99  100 1    
   196   99  220 1    
   197  100  101 1    
   198  100  102 1    
   199  100  221 1    
   200  101  222 1    
   201  101  223 1    
   202  101  224 1    
   203  102  103 2    
   204  102  104 am   BACKBONE|DICT|INTERRES
   205  104  105 1    
   206  104  225 1    
   207  105  106 1    
   208  105  107 1    
   209  105  226 1    
   210  106  227 1    
   211  106  228 1    
   212  106  229 1    
   213  107  108 2    
   214  107  109 am   BACKBONE|DICT|INTERRES
   215  109  110 1    
   216  109  230 1    
   217  110  111 1    
   218  110  112 1    
   219  110  231 1    
   220  111  232 1    
   221  111  233 1    
   222  111  234 1    
   223  112  113 2    
   224  112  114 am   BACKBONE|DICT|INTERRES
   225  114  115 1    
   226  114  235 1    
   227  115  116 1    
   228  115  117 1    
   229  115  236 1    
   230  116  237 1    
   231  116  238 1    
   232  116  239 1    
   233  117  118 2    
   234  117  119 am   BACKBONE|DICT|INTERRES
   235  119  120 1    
   236  119  240 1    
   237  120  121 1    
   238  120  124 1    
   239  120  241 1    
   240  121  122 am   BACKBONE|DICT|INTERRES
   241  121  123 2    
   242  122  242 1    
   243  122  243 1    
   244  124  125 1    
   245  124  244 1    
   246  124  245 1    
   247  125  126 1    
   248  126  246 1    
   249  126  247 1    
@<TRIPOS>SUBSTRUCTURE
     1 UNK         1 GROUP             0       ****    0 ROOT    
