@<TRIPOS>MOLECULE
3R540
247   249    1
SMALL
USER_CHARGES


@<TRIPOS>ATOM
      1 CA          3.9317  -18.2986  -46.9212 C.3       0 UNK        -0.1800 
      2 C           3.2356  -16.9482  -46.8702 C.2       0 UNK         0.5000 
      3 O           3.4037  -16.2122  -45.9012 O.2       0 UNK        -0.5000 
      4 N           2.4792  -16.6022  -47.9197 N.am      1 UNK        -0.5000 
      5 CA          1.6833  -15.3700  -48.0471 C.3       1 UNK         0.1400 
      6 C6          0.8201  -15.3734  -49.3340 C.3       23 UNK        -0.0398 
      7 S7          1.7930  -15.6710  -50.8564 S.3       23 UNK        -0.2404 
      8 C8          0.5611  -16.4135  -51.9767 C.3       23 UNK        -0.0205 
      9 C9         -0.0374  -17.7042  -51.4338 C.ar      23 UNK        -0.0193 
     10 C10        -1.4110  -17.7852  -51.1864 C.ar      23 UNK        -0.1150 
     11 C11        -1.9749  -18.9602  -50.6842 C.ar      23 UNK        -0.0193 
     12 C12        -1.1525  -20.0598  -50.4283 C.ar      23 UNK        -0.1150 
     13 C13         0.2218  -19.9972  -50.6784 C.ar      23 UNK        -0.0193 
     14 C14         0.7730  -18.8178  -51.1876 C.ar      23 UNK        -0.1150 
     15 C15         1.0991  -21.2180  -50.4334 C.3       23 UNK        -0.0205 
     16 S16         2.1686  -21.0656  -48.9656 S.3       23 UNK        -0.2404 
     17 C17         0.9834  -20.7866  -47.6091 C.3       23 UNK        -0.0398 
     18 CA          0.5366  -22.0842  -46.8906 C.3       11 UNK         0.1400 
     19 N           0.1424  -21.8227  -45.5012 N.am      11 UNK        -0.5000 
     20 C          -0.2655  -22.7366  -44.6089 C.2       10 UNK         0.5000 
     21 O          -0.3209  -23.9430  -44.8437 O.2       10 UNK        -0.5000 
     22 CA         -0.7571  -22.2077  -43.2495 C.3       10 UNK         0.1400 
     23 CB          0.4185  -21.8684  -42.3208 C.3       10 UNK        -0.1800 
     24 N          -1.6236  -21.0397  -43.4118 N.am      10 UNK        -0.5000 
     25 C          -2.8685  -21.0969  -43.9079 C.2       9 UNK         0.5000 
     26 O          -3.4458  -22.1505  -44.1769 O.2       9 UNK        -0.5000 
     27 CA         -3.5766  -19.7556  -44.1844 C.3       9 UNK         0.1400 
     28 CB         -4.3253  -19.2701  -42.9347 C.3       9 UNK        -0.1800 
     29 N          -2.6693  -18.7026  -44.6440 N.am      9 UNK        -0.5000 
     30 C          -1.9528  -18.7528  -45.7762 C.2       8 UNK         0.5000 
     31 O          -1.9989  -19.6914  -46.5678 O.2       8 UNK        -0.5000 
     32 CA         -0.9642  -17.5972  -46.0236 C.3       8 UNK         0.1400 
     33 CB         -1.7011  -16.3601  -46.5635 C.3       8 UNK        -0.1800 
     34 N          -0.2161  -17.2511  -44.8114 N.am      8 UNK        -0.5000 
     35 C           0.5884  -18.0948  -44.1471 C.2       7 UNK         0.5000 
     36 O           0.8467  -19.2311  -44.5400 O.2       7 UNK        -0.5000 
     37 CA          1.1488  -17.6311  -42.7924 C.3       7 UNK         0.1400 
     38 CB          2.4995  -16.9338  -42.9552 C.3       7 UNK        -0.1800 
     39 N           0.2281  -16.7328  -42.1040 N.am      7 UNK        -0.5000 
     40 C          -0.8177  -17.1447  -41.3775 C.2       6 UNK         0.5000 
     41 O          -1.0852  -18.3289  -41.1712 O.2       6 UNK        -0.5000 
     42 CA         -1.7371  -16.0424  -40.8197 C.3       6 UNK         0.1400 
     43 CB         -1.1761  -15.4807  -39.5048 C.3       6 UNK        -0.1800 
     44 N          -1.9412  -14.9446  -41.7679 N.am      6 UNK        -0.5000 
     45 C          -2.5718  -15.0751  -42.9426 C.2       5 UNK         0.5000 
     46 O          -3.0628  -16.1319  -43.3386 O.2       5 UNK        -0.5000 
     47 CA         -2.6458  -13.8284  -43.8420 C.3       5 UNK         0.1400 
     48 CB         -3.9071  -13.0140  -43.5184 C.3       5 UNK        -0.1800 
     49 N          -1.4772  -12.9445  -43.7846 N.am      5 UNK        -0.5000 
     50 C          -0.2058  -13.2855  -44.0408 C.2       4 UNK         0.5000 
     51 O           0.1635  -14.4454  -44.2357 O.2       4 UNK        -0.5000 
     52 CA          0.7879  -12.1102  -44.1429 C.3       4 UNK         0.1400 
     53 CB          0.6820  -11.1342  -42.9495 C.3       4 UNK        -0.1800 
     54 N           2.1768  -12.5220  -44.3718 N.am      4 UNK        -0.5000 
     55 C           3.0293  -13.0982  -43.5110 C.2       3 UNK         0.5000 
     56 O           2.7324  -13.4103  -42.3566 O.2       3 UNK        -0.5000 
     57 CA          4.4701  -13.3248  -44.0227 C.3       3 UNK         0.1400 
     58 CB          5.1857  -14.4997  -43.3327 C.3       3 UNK        -0.1800 
     59 N           4.5063  -13.5328  -45.4711 N.am      3 UNK        -0.5000 
     60 C           4.8574  -12.6153  -46.3836 C.2       2 UNK         0.5000 
     61 O           5.2367  -11.4798  -46.0958 O.2       2 UNK        -0.5000 
     62 CA          4.7451  -13.0136  -47.8717 C.3       2 UNK         0.1400 
     63 CB          6.1210  -13.4144  -48.4248 C.3       2 UNK        -0.1800 
     64 N           3.8017  -14.1052  -48.1197 N.am      2 UNK        -0.5000 
     65 C           2.4800  -14.0520  -47.9019 C.2       1 UNK         0.5000 
     66 O           1.8929  -13.0264  -47.5532 O.2       1 UNK        -0.5000 
     67 C          -0.5742  -22.8049  -47.6822 C.2       11 UNK         0.5000 
     68 O          -0.2947  -23.7885  -48.3676 O.2       11 UNK        -0.5000 
     69 N          -1.8207  -22.3404  -47.5239 N.am      12 UNK        -0.5000 
     70 CA         -3.0270  -22.9084  -48.1273 C.3       12 UNK         0.1400 
     71 CB         -4.2279  -22.0166  -47.7817 C.3       12 UNK        -0.1800 
     72 C          -3.3097  -24.3691  -47.7206 C.2       12 UNK         0.5000 
     73 O          -3.9464  -25.0903  -48.4883 O.2       12 UNK        -0.5000 
     74 N          -2.8294  -24.7849  -46.5420 N.am      13 UNK        -0.5000 
     75 CA         -2.8985  -26.1650  -46.0699 C.3       13 UNK         0.1400 
     76 CB         -3.0598  -26.1710  -44.5412 C.3       13 UNK        -0.1800 
     77 C          -1.6539  -26.9653  -46.4929 C.2       13 UNK         0.5000 
     78 O          -1.7905  -28.0965  -46.9600 O.2       13 UNK        -0.5000 
     79 N          -0.4656  -26.3778  -46.2982 N.am      14 UNK        -0.5000 
     80 CA          0.8276  -27.0357  -46.4793 C.3       14 UNK         0.1400 
     81 CB          1.9094  -26.2234  -45.7497 C.3       14 UNK        -0.1800 
     82 C           1.2232  -27.2523  -47.9502 C.2       14 UNK         0.5000 
     83 O           1.7045  -28.3343  -48.2900 O.2       14 UNK        -0.5000 
     84 N           1.0465  -26.2191  -48.7814 N.am      15 UNK        -0.5000 
     85 CA          1.4929  -26.1823  -50.1764 C.3       15 UNK         0.1400 
     86 CB          2.5067  -25.0374  -50.3342 C.3       15 UNK        -0.1800 
     87 C           0.3316  -25.9949  -51.1657 C.2       15 UNK         0.5000 
     88 O           0.4783  -26.3622  -52.3325 O.2       15 UNK        -0.5000 
     89 N          -0.7850  -25.4210  -50.6960 N.am      16 UNK        -0.5000 
     90 CA         -1.9798  -25.0191  -51.4425 C.3       16 UNK         0.1400 
     91 CB         -2.6507  -26.1992  -52.1755 C.3       16 UNK        -0.1800 
     92 C          -1.7031  -23.8179  -52.3603 C.2       16 UNK         0.5000 
     93 O          -2.1486  -22.7154  -52.0458 O.2       16 UNK        -0.5000 
     94 N          -0.9563  -24.0535  -53.4489 N.am      17 UNK        -0.5000 
     95 CA         -0.5302  -23.0921  -54.4701 C.3       17 UNK         0.1400 
     96 CB          0.5997  -22.2013  -53.9117 C.3       17 UNK        -0.1800 
     97 C          -1.7199  -22.3008  -55.0564 C.2       17 UNK         0.5000 
     98 O          -2.6226  -22.9095  -55.6351 O.2       17 UNK        -0.5000 
     99 N          -1.7230  -20.9734  -54.8795 N.am      18 UNK        -0.5000 
    100 CA        -2.7824  -20.0473  -55.2783 C.3       18 UNK         0.1400 
    101 CB        -2.1786  -18.6336  -55.3747 C.3       18 UNK        -0.1800 
    102 C         -3.9895  -20.1033  -54.3172 C.2       18 UNK         0.5000 
    103 O         -4.3953  -19.0721  -53.7754 O.2       18 UNK        -0.5000 
    104 N         -4.5548  -21.3038  -54.1276 N.am      19 UNK        -0.5000 
    105 CA        -5.6288  -21.6648  -53.1907 C.3       19 UNK         0.1400 
    106 CB        -5.6715  -23.1985  -53.0649 C.3       19 UNK        -0.1800 
    107 C         -7.0197  -21.0600  -53.5107 C.2       19 UNK         0.5000 
    108 O         -8.0496  -21.7253  -53.3395 O.2       19 UNK        -0.5000 
    109 N         -7.0181  -19.7979  -53.9508 N.am      20 UNK        -0.5000 
    110 CA        -8.1733  -18.9348  -54.1687 C.3       20 UNK         0.1400 
    111 CB        -8.4739  -18.8434  -55.6727 C.3       20 UNK        -0.1800 
    112 C         -7.9099  -17.5420  -53.5705 C.2       20 UNK         0.5000 
    113 O         -8.8485  -16.9106  -53.0837 O.2       20 UNK        -0.5000 
    114 N         -6.6386  -17.1028  -53.5547 N.am      21 UNK        -0.5000 
    115 CA        -6.1900  -15.8432  -52.9513 C.3       21 UNK         0.1400 
    116 CB        -4.7191  -15.6076  -53.3306 C.3       21 UNK        -0.1800 
    117 C         -6.3584  -15.8166  -51.4195 C.2       21 UNK         0.5000 
    118 O         -6.5502  -14.7460  -50.8423 O.2       21 UNK        -0.5000 
    119 N         -6.3096  -17.0038  -50.8059 N.am      22 UNK        -0.5000 
    120 CA        -6.5693  -17.2451  -49.3800 C.3       22 UNK         0.1400 
    121 C         -8.0824  -17.3923  -49.0337 C.2       22 UNK         0.5000 
    122 N         -9.0085  -17.2951  -49.9820 N.am      22 UNK        -0.7600 
    123 O         -8.4293  -17.5873  -47.8723 O.2       22 UNK        -0.5000 
    124 C124       -5.7456  -18.4527  -48.8616 C.3       23 UNK        -0.0398 
    125 S125       -3.9493  -18.1435  -48.9339 S.3       23 UNK        -0.2404 
    126 C126       -3.4730  -19.0437  -50.4389 C.3       23 UNK        -0.0205 
    127 H127        4.9998  -18.1765  -46.7423 H         1 UNK         0.0600 
    128 H128        3.8038  -18.7826  -47.8890 H         1 UNK         0.0600 
    129 H129        3.5293  -18.9551  -46.1497 H         1 UNK         0.0600 
    130 H130        2.4135  -17.2313  -48.7076 H         1 UNK         0.3000 
    131 H131        1.0027  -15.3750  -47.1959 H         1 UNK         0.0600 
    132 H132        0.2661  -14.4390  -49.4419 H         1 UNK         0.0800 
    133 H133        0.0619  -16.1502  -49.2371 H         1 UNK         0.0800 
    134 H134       -0.2188  -15.6775  -52.1781 H         1 UNK         0.0800 
    135 H135        1.0381  -16.6232  -52.9350 H         1 UNK         0.0800 
    136 H136       -2.0475  -16.9336  -51.3811 H         1 UNK         0.1150 
    137 H137       -1.5871  -20.9722  -50.0475 H         1 UNK         0.1150 
    138 H138        1.8341  -18.7643  -51.3867 H         1 UNK         0.1150 
    139 H139        0.4889  -22.1183  -50.3559 H         1 UNK         0.0800 
    140 H140        1.7452  -21.3708  -51.2981 H         1 UNK         0.0800 
    141 H141        0.1358  -20.1961  -47.9546 H         1 UNK         0.0800 
    142 H142        1.5045  -20.1429  -46.9016 H         1 UNK         0.0800 
    143 H143        1.3911  -22.7618  -46.8379 H         1 UNK         0.0600 
    144 H144        0.1946  -20.8530  -45.1992 H         1 UNK         0.3000 
    145 H145       -1.3384  -23.0008  -42.7741 H         1 UNK         0.0600 
    146 H146        1.0303  -22.7518  -42.1342 H         1 UNK         0.0600 
    147 H147        1.0707  -21.1058  -42.7448 H         1 UNK         0.0600 
    148 H148        0.0656  -21.5066  -41.3548 H         1 UNK         0.0600 
    149 H149       -1.2196  -20.1347  -43.2168 H         1 UNK         0.3000 
    150 H150       -4.3085  -19.9279  -44.9762 H         1 UNK         0.0600 
    151 H151       -5.0234  -20.0279  -42.5769 H         1 UNK         0.0600 
    152 H152       -4.9025  -18.3699  -43.1468 H         1 UNK         0.0600 
    153 H153       -3.6388  -19.0418  -42.1185 H         1 UNK         0.0600 
    154 H154       -2.6170  -17.8648  -44.0711 H         1 UNK         0.3000 
    155 H155       -0.2370  -17.9169  -46.7728 H         1 UNK         0.0600 
    156 H156       -2.6502  -16.1970  -46.0531 H         1 UNK         0.0600 
    157 H157       -1.1135  -15.4496  -46.4617 H         1 UNK         0.0600 
    158 H158       -1.9245  -16.4827  -47.6228 H         1 UNK         0.0600 
    159 H159       -0.3091  -16.3010  -44.4650 H         1 UNK         0.3000 
    160 H160        1.3076  -18.5207  -42.1791 H         1 UNK         0.0600 
    161 H161        2.3934  -16.0098  -43.5222 H         1 UNK         0.0600 
    162 H162        3.2104  -17.5708  -43.4828 H         1 UNK         0.0600 
    163 H163        2.9363  -16.6834  -41.9885 H         1 UNK         0.0600 
    164 H164        0.3475  -15.7437  -42.2794 H         1 UNK         0.3000 
    165 H165       -2.7090  -16.4951  -40.6117 H         1 UNK         0.0600 
    166 H166       -1.8598  -14.7564  -39.0618 H         1 UNK         0.0600 
    167 H167       -1.0276  -16.2760  -38.7731 H         1 UNK         0.0600 
    168 H168       -0.2144  -14.9878  -39.6542 H         1 UNK         0.0600 
    169 H169       -1.5584  -14.0437  -41.5216 H         1 UNK         0.3000 
    170 H170       -2.7306  -14.1756  -44.8721 H         1 UNK         0.0600 
    171 H171       -4.8008  -13.6370  -43.5765 H         1 UNK         0.0600 
    172 H172       -3.8665  -12.5912  -42.5137 H         1 UNK         0.0600 
    173 H173       -4.0402  -12.1935  -44.2238 H         1 UNK         0.0600 
    174 H174       -1.6806  -11.9680  -43.6293 H         1 UNK         0.3000 
    175 H175        0.5057  -11.5601  -45.0417 H         1 UNK         0.0600 
    176 H176        0.8014  -11.6447  -41.9934 H         1 UNK         0.0600 
    177 H177        1.4423  -10.3553  -43.0092 H         1 UNK         0.0600 
    178 H178       -0.2847  -10.6306  -42.9301 H         1 UNK         0.0600 
    179 H179        2.5058  -12.3832  -45.3177 H         1 UNK         0.3000 
    180 H180        5.0218  -12.4196  -43.7625 H         1 UNK         0.0600 
    181 H181        4.7395  -15.4564  -43.5980 H         1 UNK         0.0600 
    182 H182        5.1564  -14.4067  -42.2465 H         1 UNK         0.0600 
    183 H183        6.2357  -14.5373  -43.6229 H         1 UNK         0.0600 
    184 H184        4.1655  -14.4385  -45.7857 H         1 UNK         0.3000 
    185 H185        4.3953  -12.1369  -48.4206 H         1 UNK         0.0600 
    186 H186        6.8470  -12.6121  -48.2864 H         1 UNK         0.0600 
    187 H187        6.5121  -14.3012  -47.9245 H         1 UNK         0.0600 
    188 H188        6.0712  -13.6247  -49.4934 H         1 UNK         0.0600 
    189 H189        4.1970  -14.9914  -48.3977 H         1 UNK         0.3000 
    190 H190       -1.9463  -21.4819  -46.9900 H         1 UNK         0.3000 
    191 H191       -2.8891  -22.8839  -49.2090 H         1 UNK         0.0600 
    192 H192       -4.4391  -22.0242  -46.7124 H         1 UNK         0.0600 
    193 H193       -5.1274  -22.3531  -48.2983 H         1 UNK         0.0600 
    194 H194       -4.0495  -20.9839  -48.0760 H         1 UNK         0.0600 
    195 H195       -2.3051  -24.1335  -45.9727 H         1 UNK         0.3000 
    196 H196       -3.7755  -26.6581  -46.4948 H         1 UNK         0.0600 
    197 H197       -3.1351  -27.1907  -44.1616 H         1 UNK         0.0600 
    198 H198       -3.9654  -25.6437  -44.2405 H         1 UNK         0.0600 
    199 H199       -2.2168  -25.6955  -44.0391 H         1 UNK         0.0600 
    200 H200       -0.4419  -25.4527  -45.8748 H         1 UNK         0.3000 
    201 H201        0.7740  -28.0182  -46.0052 H         1 UNK         0.0600 
    202 H202        1.6900  -26.1429  -44.6849 H         1 UNK         0.0600 
    203 H203        1.9919  -25.2121  -46.1500 H         1 UNK         0.0600 
    204 H204        2.8874  -26.6967  -45.8457 H         1 UNK         0.0600 
    205 H205        0.6155  -25.3688  -48.4261 H         1 UNK         0.3000 
    206 H206        1.9918  -27.1148  -50.4476 H         1 UNK         0.0600 
    207 H207        2.8606  -24.9629  -51.3633 H         1 UNK         0.0600 
    208 H208        2.0703  -24.0752  -50.0656 H         1 UNK         0.0600 
    209 H209        3.3795  -25.1955  -49.7006 H         1 UNK         0.0600 
    210 H210       -0.7505  -25.0751  -49.7428 H         1 UNK         0.3000 
    211 H211       -2.6942  -24.6736  -50.6988 H         1 UNK         0.0600 
    212 H212       -2.0235  -26.6227  -52.9594 H         1 UNK         0.0600 
    213 H213       -3.5818  -25.8812  -52.6458 H         1 UNK         0.0600 
    214 H214       -2.8981  -26.9995  -51.4781 H         1 UNK         0.0600 
    215 H215       -0.6059  -24.9977  -53.5619 H         1 UNK         0.3000 
    216 H216       -0.1160  -23.6773  -55.2922 H         1 UNK         0.0600 
    217 H217        0.2439  -21.5603  -53.1065 H         1 UNK         0.0600 
    218 H218        1.0187  -21.5607  -54.6887 H         1 UNK         0.0600 
    219 H219        1.4171  -22.8062  -53.5186 H         1 UNK         0.0600 
    220 H220       -0.9718  -20.5719  -54.3378 H         1 UNK         0.3000 
    221 H221       -3.1429  -20.3284  -56.2697 H         1 UNK         0.0600 
    222 H222       -1.8029  -18.2903  -54.4095 H         1 UNK         0.0600 
    223 H223       -1.3530  -18.6042  -56.0858 H         1 UNK         0.0600 
    224 H224       -2.9223  -17.9109  -55.7130 H         1 UNK         0.0600 
    225 H225       -4.1380  -22.0770  -54.6358 H         1 UNK         0.3000 
    226 H226       -5.3454  -21.2675  -52.2139 H         1 UNK         0.0600 
    227 H227       -4.7024  -23.5961  -52.7653 H         1 UNK         0.0600 
    228 H228       -6.3924  -23.5156  -52.3098 H         1 UNK         0.0600 
    229 H229       -5.9503  -23.6694  -54.0087 H         1 UNK         0.0600 
    230 H230       -6.1000  -19.3596  -54.0140 H         1 UNK         0.3000 
    231 H231       -9.0459  -19.3485  -53.6586 H         1 UNK         0.0600 
    232 H232       -9.3336  -18.1987  -55.8609 H         1 UNK         0.0600 
    233 H233       -8.7055  -19.8251  -56.0862 H         1 UNK         0.0600 
    234 H234       -7.6276  -18.4371  -56.2283 H         1 UNK         0.0600 
    235 H235       -5.9012  -17.6799  -53.9392 H         1 UNK         0.3000 
    236 H236       -6.7908  -15.0321  -53.3678 H         1 UNK         0.0600 
    237 H237       -4.5916  -15.5649  -54.4124 H         1 UNK         0.0600 
    238 H238       -4.3561  -14.6635  -52.9227 H         1 UNK         0.0600 
    239 H239       -4.0732  -16.3997  -52.9489 H         1 UNK         0.0600 
    240 H240       -6.1552  -17.8211  -51.3754 H         1 UNK         0.3000 
    241 H241       -6.2367  -16.3663  -48.8242 H         1 UNK         0.0600 
    242 H242       -8.7645  -17.1015  -50.9445 H         1 UNK         0.3800 
    243 H243       -9.9793  -17.3877  -49.7278 H         1 UNK         0.3800 
    244 H244       -5.9838  -18.6608  -47.8171 H         1 UNK         0.0800 
    245 H245       -5.9935  -19.3605  -49.4136 H         1 UNK         0.0800 
    246 H246       -3.9995  -18.6157  -51.2902 H         1 UNK         0.0800 
    247 H247       -3.7891  -20.0852  -50.3660 H         1 UNK         0.0800 
@<TRIPOS>BOND
     1    1    2 1    
     2    1  127 1    
     3    1  128 1    
     4    1  129 1    
     5    2    3 2    
     6    2    4 am   BACKBONE|DICT|INTERRES
     7    4    5 1    
     8    4  130 1    
     9    5    6 1    
    10    5   65 1    
    11    5  131 1    
    12    6    7 1    
    13    6  132 1    
    14    6  133 1    
    15    7    8 1    
    16    8    9 1    
    17    8  134 1    
    18    8  135 1    
    19    9   10 ar   
    20    9   14 ar   
    21   10   11 ar   
    22   10  136 1    
    23   11   12 ar   
    24   11  126 1    
    25   12   13 ar   
    26   12  137 1    
    27   13   14 ar   
    28   13   15 1    
    29   14  138 1    
    30   15   16 1    
    31   15  139 1    
    32   15  140 1    
    33   16   17 1    
    34   17   18 1    
    35   17  141 1    
    36   17  142 1    
    37   18   19 1    
    38   18   67 1    
    39   18  143 1    
    40   19   20 am   BACKBONE|DICT|INTERRES
    41   19  144 1    
    42   20   21 2    
    43   20   22 1    
    44   22   23 1    
    45   22   24 1    
    46   22  145 1    
    47   23  146 1    
    48   23  147 1    
    49   23  148 1    
    50   24   25 am   BACKBONE|DICT|INTERRES
    51   24  149 1    
    52   25   26 2    
    53   25   27 1    
    54   27   28 1    
    55   27   29 1    
    56   27  150 1    
    57   28  151 1    
    58   28  152 1    
    59   28  153 1    
    60   29   30 am   BACKBONE|DICT|INTERRES
    61   29  154 1    
    62   30   31 2    
    63   30   32 1    
    64   32   33 1    
    65   32   34 1    
    66   32  155 1    
    67   33  156 1    
    68   33  157 1    
    69   33  158 1    
    70   34   35 am   BACKBONE|DICT|INTERRES
    71   34  159 1    
    72   35   36 2    
    73   35   37 1    
    74   37   38 1    
    75   37   39 1    
    76   37  160 1    
    77   38  161 1    
    78   38  162 1    
    79   38  163 1    
    80   39   40 am   BACKBONE|DICT|INTERRES
    81   39  164 1    
    82   40   41 2    
    83   40   42 1    
    84   42   43 1    
    85   42   44 1    
    86   42  165 1    
    87   43  166 1    
    88   43  167 1    
    89   43  168 1    
    90   44   45 am   BACKBONE|DICT|INTERRES
    91   44  169 1    
    92   45   46 2    
    93   45   47 1    
    94   47   48 1    
    95   47   49 1    
    96   47  170 1    
    97   48  171 1    
    98   48  172 1    
    99   48  173 1    
   100   49   50 am   BACKBONE|DICT|INTERRES
   101   49  174 1    
   102   50   51 2    
   103   50   52 1    
   104   52   53 1    
   105   52   54 1    
   106   52  175 1    
   107   53  176 1    
   108   53  177 1    
   109   53  178 1    
   110   54   55 am   BACKBONE|DICT|INTERRES
   111   54  179 1    
   112   55   56 2    
   113   55   57 1    
   114   57   58 1    
   115   57   59 1    
   116   57  180 1    
   117   58  181 1    
   118   58  182 1    
   119   58  183 1    
   120   59   60 am   BACKBONE|DICT|INTERRES
   121   59  184 1    
   122   60   61 2    
   123   60   62 1    
   124   62   63 1    
   125   62   64 1    
   126   62  185 1    
   127   63  186 1    
   128   63  187 1    
   129   63  188 1    
   130   64   65 am   BACKBONE|DICT|INTERRES
   131   64  189 1    
   132   65   66 2    
   133   67   68 2    
   134   67   69 am   BACKBONE|DICT|INTERRES
   135   69   70 1    
   136   69  190 1    
   137   70   71 1    
   138   70   72 1    
   139   70  191 1    
   140   71  192 1    
   141   71  193 1    
   142   71  194 1    
   143   72   73 2    
   144   72   74 am   BACKBONE|DICT|INTERRES
   145   74   75 1    
   146   74  195 1    
   147   75   76 1    
   148   75   77 1    
   149   75  196 1    
   150   76  197 1    
   151   76  198 1    
   152   76  199 1    
   153   77   78 2    
   154   77   79 am   BACKBONE|DICT|INTERRES
   155   79   80 1    
   156   79  200 1    
   157   80   81 1    
   158   80   82 1    
   159   80  201 1    
   160   81  202 1    
   161   81  203 1    
   162   81  204 1    
   163   82   83 2    
   164   82   84 am   BACKBONE|DICT|INTERRES
   165   84   85 1    
   166   84  205 1    
   167   85   86 1    
   168   85   87 1    
   169   85  206 1    
   170   86  207 1    
   171   86  208 1    
   172   86  209 1    
   173   87   88 2    
   174   87   89 am   BACKBONE|DICT|INTERRES
   175   89   90 1    
   176   89  210 1    
   177   90   91 1    
   178   90   92 1    
   179   90  211 1    
   180   91  212 1    
   181   91  213 1    
   182   91  214 1    
   183   92   93 2    
   184   92   94 am   BACKBONE|DICT|INTERRES
   185   94   95 1    
   186   94  215 1    
   187   95   96 1    
   188   95   97 1    
   189   95  216 1    
   190   96  217 1    
   191   96  218 1    
   192   96  219 1    
   193   97   98 2    
   194   97   99 am   BACKBONE|DICT|INTERRES
   195   99  100 1    
   196   99  220 1    
   197  100  101 1    
   198  100  102 1    
   199  100  221 1    
   200  101  222 1    
   201  101  223 1    
   202  101  224 1    
   203  102  103 2    
   204  102  104 am   BACKBONE|DICT|INTERRES
   205  104  105 1    
   206  104  225 1    
   207  105  106 1    
   208  105  107 1    
   209  105  226 1    
   210  106  227 1    
   211  106  228 1    
   212  106  229 1    
   213  107  108 2    
   214  107  109 am   BACKBONE|DICT|INTERRES
   215  109  110 1    
   216  109  230 1    
   217  110  111 1    
   218  110  112 1    
   219  110  231 1    
   220  111  232 1    
   221  111  233 1    
   222  111  234 1    
   223  112  113 2    
   224  112  114 am   BACKBONE|DICT|INTERRES
   225  114  115 1    
   226  114  235 1    
   227  115  116 1    
   228  115  117 1    
   229  115  236 1    
   230  116  237 1    
   231  116  238 1    
   232  116  239 1    
   233  117  118 2    
   234  117  119 am   BACKBONE|DICT|INTERRES
   235  119  120 1    
   236  119  240 1    
   237  120  121 1    
   238  120  124 1    
   239  120  241 1    
   240  121  122 am   BACKBONE|DICT|INTERRES
   241  121  123 2    
   242  122  242 1    
   243  122  243 1    
   244  124  125 1    
   245  124  244 1    
   246  124  245 1    
   247  125  126 1    
   248  126  246 1    
   249  126  247 1    
@<TRIPOS>SUBSTRUCTURE
     1 UNK         1 GROUP             0       ****    0 ROOT    
