@<TRIPOS>MOLECULE
3R540
247   249    1
SMALL
USER_CHARGES


@<TRIPOS>ATOM
      1 CA         -7.3802  -11.1900  -44.3175 C.3       0 UNK        -0.1800 
      2 C          -6.2700  -11.8395  -45.1321 C.2       0 UNK         0.5000 
      3 O          -6.4866  -12.1895  -46.2928 O.2       0 UNK        -0.5000 
      4 N          -5.0888  -12.0087  -44.5265 N.am      1 UNK        -0.5000 
      5 CA         -3.8942  -12.5748  -45.1606 C.3       1 UNK         0.1400 
      6 C6         -2.8085  -12.9484  -44.1195 C.3       23 UNK        -0.0398 
      7 S7         -3.3401  -14.2365  -42.9407 S.3       23 UNK        -0.2404 
      8 C8         -2.4611  -15.7076  -43.5610 C.3       23 UNK        -0.0205 
      9 C9         -3.2880  -16.4693  -44.5855 C.ar      23 UNK        -0.0193 
     10 C10        -3.2889  -16.0866  -45.9291 C.ar      23 UNK        -0.1150 
     11 C11        -4.0654  -16.7771  -46.8646 C.ar      23 UNK        -0.0193 
     12 C12        -4.7995  -17.8930  -46.4534 C.ar      23 UNK        -0.1150 
     13 C13        -4.7727  -18.3183  -45.1211 C.ar      23 UNK        -0.0193 
     14 C14        -4.0408  -17.5770  -44.1869 C.ar      23 UNK        -0.1150 
     15 C15        -5.5550  -19.5662  -44.7197 C.3       23 UNK        -0.0205 
     16 S16        -4.7317  -20.5831  -43.4425 S.3       23 UNK        -0.2404 
     17 C17        -5.4873  -22.2183  -43.7600 C.3       23 UNK        -0.0398 
     18 CA         -4.5087  -23.2706  -44.3461 C.3       11 UNK         0.1400 
     19 N          -3.6689  -22.7371  -45.4212 N.am      11 UNK        -0.5000 
     20 C          -3.8112  -23.0178  -46.7219 C.2       10 UNK         0.5000 
     21 O          -4.6715  -23.7737  -47.1723 O.2       10 UNK        -0.5000 
     22 CA         -2.8224  -22.3513  -47.6971 C.3       10 UNK         0.1400 
     23 CB         -3.4543  -21.0739  -48.2675 C.3       10 UNK        -0.1800 
     24 N          -1.5173  -22.0275  -47.1148 N.am      10 UNK        -0.5000 
     25 C          -0.6831  -22.9031  -46.5304 C.2       9 UNK         0.5000 
     26 O          -0.9123  -24.1089  -46.4396 O.2       9 UNK        -0.5000 
     27 CA          0.5908  -22.3458  -45.8661 C.3       9 UNK         0.1400 
     28 CB          1.7966  -22.5129  -46.8001 C.3       9 UNK        -0.1800 
     29 N           0.4840  -20.9453  -45.4540 N.am      9 UNK        -0.5000 
     30 C          -0.4438  -20.4513  -44.6186 C.2       8 UNK         0.5000 
     31 O          -1.2999  -21.1470  -44.0711 O.2       8 UNK        -0.5000 
     32 CA         -0.4657  -18.9269  -44.4017 C.3       8 UNK         0.1400 
     33 CB          0.2351  -18.5607  -43.0862 C.3       8 UNK        -0.1800 
     34 N           0.1253  -18.1490  -45.4933 N.am      8 UNK        -0.5000 
     35 C          -0.2646  -18.1897  -46.7776 C.2       7 UNK         0.5000 
     36 O          -1.1686  -18.9131  -47.1926 O.2       7 UNK        -0.5000 
     37 CA          0.5444  -17.3378  -47.7749 C.3       7 UNK         0.1400 
     38 CB         -0.0815  -15.9451  -47.9263 C.3       7 UNK        -0.1800 
     39 N           1.9522  -17.1758  -47.4024 N.am      7 UNK        -0.5000 
     40 C           2.8316  -18.1739  -47.2220 C.2       6 UNK         0.5000 
     41 O           2.5502  -19.3624  -47.3743 O.2       6 UNK        -0.5000 
     42 CA          4.2563  -17.7946  -46.7693 C.3       6 UNK         0.1400 
     43 CB          5.2343  -17.8879  -47.9504 C.3       6 UNK        -0.1800 
     44 N           4.3612  -16.4596  -46.1763 N.am      6 UNK        -0.5000 
     45 C           3.7764  -16.0600  -45.0375 C.2       5 UNK         0.5000 
     46 O           3.0854  -16.7935  -44.3299 O.2       5 UNK        -0.5000 
     47 CA          3.9649  -14.5793  -44.6493 C.3       5 UNK         0.1400 
     48 CB          5.1205  -14.4296  -43.6485 C.3       5 UNK        -0.1800 
     49 N           4.2049  -13.6949  -45.7967 N.am      5 UNK        -0.5000 
     50 C           3.3127  -13.4532  -46.7662 C.2       4 UNK         0.5000 
     51 O           2.1981  -13.9751  -46.8119 O.2       4 UNK        -0.5000 
     52 CA          3.7487  -12.5100  -47.8985 C.3       4 UNK         0.1400 
     53 CB          3.8638  -13.2779  -49.2252 C.3       4 UNK        -0.1800 
     54 N           2.7790  -11.4292  -48.0520 N.am      4 UNK        -0.5000 
     55 C           2.7200  -10.3477  -47.2638 C.2       3 UNK         0.5000 
     56 O           3.5446  -10.1006  -46.3824 O.2       3 UNK        -0.5000 
     57 CA          1.5439   -9.3763  -47.4933 C.3       3 UNK         0.1400 
     58 CB          1.9595   -8.2460  -48.4476 C.3       3 UNK        -0.1800 
     59 N           0.3326  -10.0201  -48.0130 N.am      3 UNK        -0.5000 
     60 C          -0.4087  -10.9033  -47.3314 C.2       2 UNK         0.5000 
     61 O          -0.1356  -11.2833  -46.1895 O.2       2 UNK        -0.5000 
     62 CA         -1.6481  -11.4614  -48.0640 C.3       2 UNK         0.1400 
     63 CB         -1.2259  -12.4169  -49.1925 C.3       2 UNK        -0.1800 
     64 N          -2.5302  -12.1870  -47.1500 N.am      2 UNK        -0.5000 
     65 C          -3.2898  -11.6142  -46.2073 C.2       1 UNK         0.5000 
     66 O          -3.4649  -10.3956  -46.1139 O.2       1 UNK        -0.5000 
     67 C          -3.6639  -23.9582  -43.2565 C.2       11 UNK         0.5000 
     68 O          -4.1309  -24.9451  -42.6870 O.2       11 UNK        -0.5000 
     69 N          -2.4383  -23.4764  -42.9954 N.am      12 UNK        -0.5000 
     70 CA         -1.5348  -24.0493  -41.9929 C.3       12 UNK         0.1400 
     71 CB         -0.4061  -23.0542  -41.6820 C.3       12 UNK        -0.1800 
     72 C          -0.9503  -25.4101  -42.4138 C.2       12 UNK         0.5000 
     73 O          -0.7627  -26.2750  -41.5573 O.2       12 UNK        -0.5000 
     74 N          -0.6837  -25.5756  -43.7162 N.am      13 UNK        -0.5000 
     75 CA         -0.1597  -26.8070  -44.3142 C.3       13 UNK         0.1400 
     76 CB          1.1852  -26.4879  -44.9908 C.3       13 UNK        -0.1800 
     77 C          -1.1446  -27.4237  -45.3262 C.2       13 UNK         0.5000 
     78 O          -0.8568  -28.4939  -45.8633 O.2       13 UNK        -0.5000 
     79 N          -2.2659  -26.7320  -45.5893 N.am      14 UNK        -0.5000 
     80 CA         -3.2704  -27.0130  -46.6240 C.3       14 UNK         0.1400 
     81 CB         -4.0108  -28.3345  -46.3327 C.3       14 UNK        -0.1800 
     82 C          -2.6961  -26.9505  -48.0588 C.2       14 UNK         0.5000 
     83 O          -3.2328  -27.5810  -48.9710 O.2       14 UNK        -0.5000 
     84 N          -1.6138  -26.1838  -48.2421 N.am      15 UNK        -0.5000 
     85 CA         -0.8244  -26.0875  -49.4668 C.3       15 UNK         0.1400 
     86 CB          0.6549  -25.9127  -49.0816 C.3       15 UNK        -0.1800 
     87 C          -1.3317  -24.9542  -50.3756 C.2       15 UNK         0.5000 
     88 O          -0.5372  -24.1625  -50.8848 O.2       15 UNK        -0.5000 
     89 N          -2.6531  -24.8946  -50.5837 N.am      16 UNK        -0.5000 
     90 CA         -3.3325  -23.8822  -51.3999 C.3       16 UNK         0.1400 
     91 CB         -4.8478  -24.0049  -51.1859 C.3       16 UNK        -0.1800 
     92 C          -2.9782  -23.9431  -52.9006 C.2       16 UNK         0.5000 
     93 O          -3.1853  -22.9602  -53.6090 O.2       16 UNK        -0.5000 
     94 N          -2.4327  -25.0787  -53.3584 N.am      17 UNK        -0.5000 
     95 CA         -1.8666  -25.2427  -54.6975 C.3       17 UNK         0.1400 
     96 CB         -1.7056  -26.7414  -54.9938 C.3       17 UNK        -0.1800 
     97 C          -0.5187  -24.5114  -54.8651 C.2       17 UNK         0.5000 
     98 O          -0.2126  -24.0611  -55.9694 O.2       17 UNK        -0.5000 
     99 N           0.2579  -24.4051  -53.7765 N.am      18 UNK        -0.5000 
    100 CA         1.5227  -23.6722  -53.7299 C.3       18 UNK         0.1400 
    101 CB         2.4556  -24.3101  -52.6876 C.3       18 UNK        -0.1800 
    102 C          1.2644  -22.1925  -53.4114 C.2       18 UNK         0.5000 
    103 O          1.7303  -21.3156  -54.1399 O.2       18 UNK        -0.5000 
    104 N          0.4672  -21.9402  -52.3651 N.am      19 UNK        -0.5000 
    105 CA        -0.0231  -20.6230  -51.9589 C.3       19 UNK         0.1400 
    106 CB        -0.3241  -20.6580  -50.4502 C.3       19 UNK        -0.1800 
    107 C         -1.2390  -20.2009  -52.8124 C.2       19 UNK         0.5000 
    108 O         -2.3050  -19.8933  -52.2769 O.2       19 UNK        -0.5000 
    109 N         -1.0518  -20.2111  -54.1401 N.am      20 UNK        -0.5000 
    110 CA        -2.0803  -20.0146  -55.1664 C.3       20 UNK         0.1400 
    111 CB        -1.4516  -20.2446  -56.5486 C.3       20 UNK        -0.1800 
    112 C         -2.7891  -18.6494  -55.1120 C.2       20 UNK         0.5000 
    113 O         -3.9448  -18.5499  -55.5276 O.2       20 UNK        -0.5000 
    114 N         -2.1088  -17.6352  -54.5586 N.am      21 UNK        -0.5000 
    115 CA        -2.6438  -16.2970  -54.2929 C.3       21 UNK         0.1400 
    116 CB        -1.5163  -15.4143  -53.7352 C.3       21 UNK        -0.1800 
    117 C         -3.8537  -16.2891  -53.3348 C.2       21 UNK         0.5000 
    118 O         -4.6640  -15.3635  -53.3957 O.2       21 UNK        -0.5000 
    119 N         -3.9626  -17.3206  -52.4884 N.am      22 UNK        -0.5000 
    120 CA        -5.0877  -17.5451  -51.5701 C.3       22 UNK         0.1400 
    121 C         -6.3021  -18.2648  -52.2287 C.2       22 UNK         0.5000 
    122 N         -6.2458  -18.6664  -53.4943 N.am      22 UNK        -0.7600 
    123 O         -7.3284  -18.4507  -51.5808 O.2       22 UNK        -0.5000 
    124 C124       -4.6337  -18.2738  -50.2793 C.3       23 UNK        -0.0398 
    125 S125       -3.2550  -17.4130  -49.4485 S.3       23 UNK        -0.2404 
    126 C126       -4.1335  -16.2992  -48.3086 C.3       23 UNK        -0.0205 
    127 H127       -7.7107  -10.2704  -44.8005 H         1 UNK         0.0600 
    128 H128       -7.0516  -10.9444  -43.3073 H         1 UNK         0.0600 
    129 H129       -8.2340  -11.8634  -44.2427 H         1 UNK         0.0600 
    130 H130       -4.9692  -11.6931  -43.5750 H         1 UNK         0.3000 
    131 H131       -4.2053  -13.4802  -45.6836 H         1 UNK         0.0600 
    132 H132       -1.8925  -13.2788  -44.6124 H         1 UNK         0.0800 
    133 H133       -2.5233  -12.0666  -43.5426 H         1 UNK         0.0800 
    134 H134       -2.2417  -16.3563  -42.7116 H         1 UNK         0.0800 
    135 H135       -1.4914  -15.4374  -43.9813 H         1 UNK         0.0800 
    136 H136       -2.6964  -15.2406  -46.2415 H         1 UNK         0.1150 
    137 H137       -5.3870  -18.4373  -47.1784 H         1 UNK         0.1150 
    138 H138       -4.0352  -17.8751  -43.1483 H         1 UNK         0.1150 
    139 H139       -6.5415  -19.2700  -44.3614 H         1 UNK         0.0800 
    140 H140       -5.7139  -20.1836  -45.6053 H         1 UNK         0.0800 
    141 H141       -6.3244  -22.0960  -44.4479 H         1 UNK         0.0800 
    142 H142       -5.9382  -22.5774  -42.8331 H         1 UNK         0.0800 
    143 H143       -5.1291  -24.0732  -44.7508 H         1 UNK         0.0600 
    144 H144       -2.9467  -22.0841  -45.1417 H         1 UNK         0.3000 
    145 H145       -2.6496  -23.0482  -48.5158 H         1 UNK         0.0600 
    146 H146       -3.6314  -20.3354  -47.4852 H         1 UNK         0.0600 
    147 H147       -2.8167  -20.6077  -49.0160 H         1 UNK         0.0600 
    148 H148       -4.4116  -21.2862  -48.7450 H         1 UNK         0.0600 
    149 H149       -1.2652  -21.0442  -47.1153 H         1 UNK         0.3000 
    150 H150        0.7742  -22.9360  -44.9668 H         1 UNK         0.0600 
    151 H151        1.9675  -23.5640  -47.0336 H         1 UNK         0.0600 
    152 H152        2.7093  -22.1331  -46.3406 H         1 UNK         0.0600 
    153 H153        1.6509  -21.9840  -47.7429 H         1 UNK         0.0600 
    154 H154        1.1209  -20.2984  -45.9034 H         1 UNK         0.3000 
    155 H155       -1.5133  -18.6396  -44.3251 H         1 UNK         0.0600 
    156 H156        0.1490  -17.4948  -42.8751 H         1 UNK         0.0600 
    157 H157       -0.2079  -19.0957  -42.2449 H         1 UNK         0.0600 
    158 H158        1.2964  -18.8112  -43.1148 H         1 UNK         0.0600 
    159 H159        0.9133  -17.5630  -45.2518 H         1 UNK         0.3000 
    160 H160        0.5109  -17.8406  -48.7434 H         1 UNK         0.0600 
    161 H161       -0.0761  -15.3970  -46.9834 H         1 UNK         0.0600 
    162 H162       -1.1155  -16.0083  -48.2568 H         1 UNK         0.0600 
    163 H163        0.4590  -15.3531  -48.6647 H         1 UNK         0.0600 
    164 H164        2.2582  -16.2260  -47.2326 H         1 UNK         0.3000 
    165 H165        4.5595  -18.5214  -46.0129 H         1 UNK         0.0600 
    166 H166        6.2603  -17.7065  -47.6295 H         1 UNK         0.0600 
    167 H167        5.2082  -18.8804  -48.4026 H         1 UNK         0.0600 
    168 H168        4.9922  -17.1652  -48.7308 H         1 UNK         0.0600 
    169 H169        4.9081  -15.7828  -46.6871 H         1 UNK         0.3000 
    170 H170        3.0448  -14.2518  -44.1607 H         1 UNK         0.0600 
    171 H171        4.9599  -15.0559  -42.7698 H         1 UNK         0.0600 
    172 H172        6.0751  -14.7205  -44.0888 H         1 UNK         0.0600 
    173 H173        5.2100  -13.4006  -43.2997 H         1 UNK         0.0600 
    174 H174        5.0999  -13.2275  -45.8247 H         1 UNK         0.3000 
    175 H175        4.7271  -12.0853  -47.6635 H         1 UNK         0.0600 
    176 H176        2.9109  -13.7183  -49.5223 H         1 UNK         0.0600 
    177 H177        4.1959  -12.6235  -50.0313 H         1 UNK         0.0600 
    178 H178        4.5889  -14.0888  -49.1454 H         1 UNK         0.0600 
    179 H179        2.0365  -11.5785  -48.7183 H         1 UNK         0.3000 
    180 H180        1.2974   -8.9306  -46.5272 H         1 UNK         0.0600 
    181 H181        2.1952   -8.6253  -49.4427 H         1 UNK         0.0600 
    182 H182        2.8443   -7.7268  -48.0764 H         1 UNK         0.0600 
    183 H183        1.1681   -7.5031  -48.5489 H         1 UNK         0.0600 
    184 H184        0.0488   -9.7555  -48.9455 H         1 UNK         0.3000 
    185 H185       -2.2025  -10.6255  -48.4960 H         1 UNK         0.0600 
    186 H186       -0.6093  -13.2320  -48.8148 H         1 UNK         0.0600 
    187 H187       -2.0929  -12.8534  -49.6892 H         1 UNK         0.0600 
    188 H188       -0.6467  -11.8963  -49.9557 H         1 UNK         0.0600 
    189 H189       -2.4128  -13.1876  -47.1404 H         1 UNK         0.3000 
    190 H190       -2.1152  -22.6245  -43.4498 H         1 UNK         0.3000 
    191 H191       -2.1045  -24.2037  -41.0739 H         1 UNK         0.0600 
    192 H192        0.2264  -22.8749  -42.5516 H         1 UNK         0.0600 
    193 H193        0.2352  -23.4297  -40.8838 H         1 UNK         0.0600 
    194 H194       -0.8051  -22.0941  -41.3542 H         1 UNK         0.0600 
    195 H195       -0.8567  -24.8116  -44.3565 H         1 UNK         0.3000 
    196 H196        0.0174  -27.5649  -43.5487 H         1 UNK         0.0600 
    197 H197        1.0703  -25.7747  -45.8070 H         1 UNK         0.0600 
    198 H198        1.6386  -27.3885  -45.4067 H         1 UNK         0.0600 
    199 H199        1.8949  -26.0686  -44.2776 H         1 UNK         0.0600 
    200 H200       -2.3949  -25.8668  -45.0878 H         1 UNK         0.3000 
    201 H201       -4.0057  -26.2123  -46.5564 H         1 UNK         0.0600 
    202 H202       -4.3984  -28.3526  -45.3141 H         1 UNK         0.0600 
    203 H203       -3.3624  -29.2014  -46.4614 H         1 UNK         0.0600 
    204 H204       -4.8607  -28.4618  -47.0040 H         1 UNK         0.0600 
    205 H205       -1.2938  -25.6094  -47.4659 H         1 UNK         0.3000 
    206 H206       -0.9125  -27.0184  -50.0303 H         1 UNK         0.0600 
    207 H207        0.9872  -26.7110  -48.4175 H         1 UNK         0.0600 
    208 H208        1.2960  -25.9372  -49.9633 H         1 UNK         0.0600 
    209 H209        0.8262  -24.9629  -48.5757 H         1 UNK         0.0600 
    210 H210       -3.2347  -25.5994  -50.1486 H         1 UNK         0.3000 
    211 H211       -3.0192  -22.8990  -51.0419 H         1 UNK         0.0600 
    212 H212       -5.2212  -24.9786  -51.5052 H         1 UNK         0.0600 
    213 H213       -5.3856  -23.2433  -51.7522 H         1 UNK         0.0600 
    214 H214       -5.1090  -23.8714  -50.1356 H         1 UNK         0.0600 
    215 H215       -2.3308  -25.8532  -52.7199 H         1 UNK         0.3000 
    216 H216       -2.5658  -24.8243  -55.4248 H         1 UNK         0.0600 
    217 H217       -1.3069  -26.8999  -55.9967 H         1 UNK         0.0600 
    218 H218       -2.6636  -27.2590  -54.9408 H         1 UNK         0.0600 
    219 H219       -1.0243  -27.2213  -54.2901 H         1 UNK         0.0600 
    220 H220       -0.0966  -24.7376  -52.8895 H         1 UNK         0.3000 
    221 H221        2.0168  -23.7317  -54.7022 H         1 UNK         0.0600 
    222 H222        2.0394  -24.2635  -51.6812 H         1 UNK         0.0600 
    223 H223        2.6484  -25.3572  -52.9212 H         1 UNK         0.0600 
    224 H224        3.4189  -23.7991  -52.6657 H         1 UNK         0.0600 
    225 H225        0.1086  -22.7292  -51.8315 H         1 UNK         0.3000 
    226 H226        0.7596  -19.8797  -52.1232 H         1 UNK         0.0600 
    227 H227        0.5808  -20.8450  -49.8719 H         1 UNK         0.0600 
    228 H228       -0.7386  -19.7101  -50.1034 H         1 UNK         0.0600 
    229 H229       -1.0386  -21.4443  -50.2081 H         1 UNK         0.0600 
    230 H230       -0.1317  -20.4782  -54.4718 H         1 UNK         0.3000 
    231 H231       -2.8471  -20.7749  -55.0121 H         1 UNK         0.0600 
    232 H232       -2.1939  -20.1342  -57.3402 H         1 UNK         0.0600 
    233 H233       -1.0387  -21.2506  -56.6302 H         1 UNK         0.0600 
    234 H234       -0.6485  -19.5340  -56.7480 H         1 UNK         0.0600 
    235 H235       -1.1691  -17.8179  -54.2395 H         1 UNK         0.3000 
    236 H236       -2.9753  -15.8761  -55.2442 H         1 UNK         0.0600 
    237 H237       -1.8693  -14.3984  -53.5526 H         1 UNK         0.0600 
    238 H238       -0.6834  -15.3464  -54.4352 H         1 UNK         0.0600 
    239 H239       -1.1329  -15.8024  -52.7905 H         1 UNK         0.0600 
    240 H240       -3.2626  -18.0544  -52.5038 H         1 UNK         0.3000 
    241 H241       -5.4667  -16.5690  -51.2620 H         1 UNK         0.0600 
    242 H242       -7.0463  -19.1233  -53.9014 H         1 UNK         0.3800 
    243 H243       -5.4165  -18.5188  -54.0573 H         1 UNK         0.3800 
    244 H244       -4.3025  -19.2848  -50.5197 H         1 UNK         0.0800 
    245 H245       -5.4626  -18.3856  -49.5793 H         1 UNK         0.0800 
    246 H246       -5.1763  -16.1891  -48.6086 H         1 UNK         0.0800 
    247 H247       -3.6929  -15.3055  -48.3990 H         1 UNK         0.0800 
@<TRIPOS>BOND
     1    1    2 1    
     2    1  127 1    
     3    1  128 1    
     4    1  129 1    
     5    2    3 2    
     6    2    4 am   BACKBONE|DICT|INTERRES
     7    4    5 1    
     8    4  130 1    
     9    5    6 1    
    10    5   65 1    
    11    5  131 1    
    12    6    7 1    
    13    6  132 1    
    14    6  133 1    
    15    7    8 1    
    16    8    9 1    
    17    8  134 1    
    18    8  135 1    
    19    9   10 ar   
    20    9   14 ar   
    21   10   11 ar   
    22   10  136 1    
    23   11   12 ar   
    24   11  126 1    
    25   12   13 ar   
    26   12  137 1    
    27   13   14 ar   
    28   13   15 1    
    29   14  138 1    
    30   15   16 1    
    31   15  139 1    
    32   15  140 1    
    33   16   17 1    
    34   17   18 1    
    35   17  141 1    
    36   17  142 1    
    37   18   19 1    
    38   18   67 1    
    39   18  143 1    
    40   19   20 am   BACKBONE|DICT|INTERRES
    41   19  144 1    
    42   20   21 2    
    43   20   22 1    
    44   22   23 1    
    45   22   24 1    
    46   22  145 1    
    47   23  146 1    
    48   23  147 1    
    49   23  148 1    
    50   24   25 am   BACKBONE|DICT|INTERRES
    51   24  149 1    
    52   25   26 2    
    53   25   27 1    
    54   27   28 1    
    55   27   29 1    
    56   27  150 1    
    57   28  151 1    
    58   28  152 1    
    59   28  153 1    
    60   29   30 am   BACKBONE|DICT|INTERRES
    61   29  154 1    
    62   30   31 2    
    63   30   32 1    
    64   32   33 1    
    65   32   34 1    
    66   32  155 1    
    67   33  156 1    
    68   33  157 1    
    69   33  158 1    
    70   34   35 am   BACKBONE|DICT|INTERRES
    71   34  159 1    
    72   35   36 2    
    73   35   37 1    
    74   37   38 1    
    75   37   39 1    
    76   37  160 1    
    77   38  161 1    
    78   38  162 1    
    79   38  163 1    
    80   39   40 am   BACKBONE|DICT|INTERRES
    81   39  164 1    
    82   40   41 2    
    83   40   42 1    
    84   42   43 1    
    85   42   44 1    
    86   42  165 1    
    87   43  166 1    
    88   43  167 1    
    89   43  168 1    
    90   44   45 am   BACKBONE|DICT|INTERRES
    91   44  169 1    
    92   45   46 2    
    93   45   47 1    
    94   47   48 1    
    95   47   49 1    
    96   47  170 1    
    97   48  171 1    
    98   48  172 1    
    99   48  173 1    
   100   49   50 am   BACKBONE|DICT|INTERRES
   101   49  174 1    
   102   50   51 2    
   103   50   52 1    
   104   52   53 1    
   105   52   54 1    
   106   52  175 1    
   107   53  176 1    
   108   53  177 1    
   109   53  178 1    
   110   54   55 am   BACKBONE|DICT|INTERRES
   111   54  179 1    
   112   55   56 2    
   113   55   57 1    
   114   57   58 1    
   115   57   59 1    
   116   57  180 1    
   117   58  181 1    
   118   58  182 1    
   119   58  183 1    
   120   59   60 am   BACKBONE|DICT|INTERRES
   121   59  184 1    
   122   60   61 2    
   123   60   62 1    
   124   62   63 1    
   125   62   64 1    
   126   62  185 1    
   127   63  186 1    
   128   63  187 1    
   129   63  188 1    
   130   64   65 am   BACKBONE|DICT|INTERRES
   131   64  189 1    
   132   65   66 2    
   133   67   68 2    
   134   67   69 am   BACKBONE|DICT|INTERRES
   135   69   70 1    
   136   69  190 1    
   137   70   71 1    
   138   70   72 1    
   139   70  191 1    
   140   71  192 1    
   141   71  193 1    
   142   71  194 1    
   143   72   73 2    
   144   72   74 am   BACKBONE|DICT|INTERRES
   145   74   75 1    
   146   74  195 1    
   147   75   76 1    
   148   75   77 1    
   149   75  196 1    
   150   76  197 1    
   151   76  198 1    
   152   76  199 1    
   153   77   78 2    
   154   77   79 am   BACKBONE|DICT|INTERRES
   155   79   80 1    
   156   79  200 1    
   157   80   81 1    
   158   80   82 1    
   159   80  201 1    
   160   81  202 1    
   161   81  203 1    
   162   81  204 1    
   163   82   83 2    
   164   82   84 am   BACKBONE|DICT|INTERRES
   165   84   85 1    
   166   84  205 1    
   167   85   86 1    
   168   85   87 1    
   169   85  206 1    
   170   86  207 1    
   171   86  208 1    
   172   86  209 1    
   173   87   88 2    
   174   87   89 am   BACKBONE|DICT|INTERRES
   175   89   90 1    
   176   89  210 1    
   177   90   91 1    
   178   90   92 1    
   179   90  211 1    
   180   91  212 1    
   181   91  213 1    
   182   91  214 1    
   183   92   93 2    
   184   92   94 am   BACKBONE|DICT|INTERRES
   185   94   95 1    
   186   94  215 1    
   187   95   96 1    
   188   95   97 1    
   189   95  216 1    
   190   96  217 1    
   191   96  218 1    
   192   96  219 1    
   193   97   98 2    
   194   97   99 am   BACKBONE|DICT|INTERRES
   195   99  100 1    
   196   99  220 1    
   197  100  101 1    
   198  100  102 1    
   199  100  221 1    
   200  101  222 1    
   201  101  223 1    
   202  101  224 1    
   203  102  103 2    
   204  102  104 am   BACKBONE|DICT|INTERRES
   205  104  105 1    
   206  104  225 1    
   207  105  106 1    
   208  105  107 1    
   209  105  226 1    
   210  106  227 1    
   211  106  228 1    
   212  106  229 1    
   213  107  108 2    
   214  107  109 am   BACKBONE|DICT|INTERRES
   215  109  110 1    
   216  109  230 1    
   217  110  111 1    
   218  110  112 1    
   219  110  231 1    
   220  111  232 1    
   221  111  233 1    
   222  111  234 1    
   223  112  113 2    
   224  112  114 am   BACKBONE|DICT|INTERRES
   225  114  115 1    
   226  114  235 1    
   227  115  116 1    
   228  115  117 1    
   229  115  236 1    
   230  116  237 1    
   231  116  238 1    
   232  116  239 1    
   233  117  118 2    
   234  117  119 am   BACKBONE|DICT|INTERRES
   235  119  120 1    
   236  119  240 1    
   237  120  121 1    
   238  120  124 1    
   239  120  241 1    
   240  121  122 am   BACKBONE|DICT|INTERRES
   241  121  123 2    
   242  122  242 1    
   243  122  243 1    
   244  124  125 1    
   245  124  244 1    
   246  124  245 1    
   247  125  126 1    
   248  126  246 1    
   249  126  247 1    
@<TRIPOS>SUBSTRUCTURE
     1 UNK         1 GROUP             0       ****    0 ROOT    
