@<TRIPOS>MOLECULE
3R540
247   249    1
SMALL
USER_CHARGES


@<TRIPOS>ATOM
      1 CA          3.7404   -8.9096  -46.3334 C.3       0 UNK        -0.1800 
      2 C           3.4555  -10.3993  -46.4557 C.2       0 UNK         0.5000 
      3 O           4.3314  -11.2159  -46.1726 O.2       0 UNK        -0.5000 
      4 N           2.2288  -10.7599  -46.8588 N.am      1 UNK        -0.5000 
      5 CA          1.7721  -12.1439  -47.0606 C.3       1 UNK         0.1400 
      6 C6          0.3734  -12.1807  -47.7249 C.3       23 UNK        -0.0398 
      7 S7          0.0692  -13.7332  -48.6273 S.3       23 UNK        -0.2404 
      8 C8         -1.2940  -13.2378  -49.7235 C.3       23 UNK        -0.0205 
      9 C9         -1.9230  -14.4339  -50.4260 C.ar      23 UNK        -0.0193 
     10 C10        -1.1988  -15.1517  -51.3820 C.ar      23 UNK        -0.1150 
     11 C11        -1.7791  -16.2323  -52.0531 C.ar      23 UNK        -0.0193 
     12 C12        -3.1062  -16.5773  -51.7793 C.ar      23 UNK        -0.1150 
     13 C13        -3.8389  -15.8768  -50.8168 C.ar      23 UNK        -0.0193 
     14 C14        -3.2393  -14.8091  -50.1410 C.ar      23 UNK        -0.1150 
     15 C15        -5.2870  -16.2504  -50.5219 C.3       23 UNK        -0.0205 
     16 S16        -5.4970  -17.9854  -50.0013 S.3       23 UNK        -0.2404 
     17 C17        -4.4387  -18.0844  -48.5196 C.3       23 UNK        -0.0398 
     18 CA         -3.2946  -19.1206  -48.6953 C.3       11 UNK         0.1400 
     19 N          -2.0189  -18.5980  -48.2134 N.am      11 UNK        -0.5000 
     20 C          -0.8196  -19.1739  -48.3338 C.2       10 UNK         0.5000 
     21 O          -0.6532  -20.3128  -48.7666 O.2       10 UNK        -0.5000 
     22 CA          0.4057  -18.3398  -47.9079 C.3       10 UNK         0.1400 
     23 CB          0.7692  -17.3416  -49.0225 C.3       10 UNK        -0.1800 
     24 N           0.2799  -17.6723  -46.6032 N.am      10 UNK        -0.5000 
     25 C          -0.5775  -16.7146  -46.2212 C.2       9 UNK         0.5000 
     26 O          -1.4414  -16.2245  -46.9512 O.2       9 UNK        -0.5000 
     27 CA         -0.5028  -16.3033  -44.7382 C.3       9 UNK         0.1400 
     28 CB         -1.4983  -15.1841  -44.3781 C.3       9 UNK        -0.1800 
     29 N          -0.6645  -17.4160  -43.7966 N.am      9 UNK        -0.5000 
     30 C          -1.5254  -18.4485  -43.8362 C.2       8 UNK         0.5000 
     31 O          -2.2879  -18.6995  -44.7724 O.2       8 UNK        -0.5000 
     32 CA         -1.5466  -19.3652  -42.5957 C.3       8 UNK         0.1400 
     33 CB         -0.6575  -20.5962  -42.8181 C.3       8 UNK        -0.1800 
     34 N          -1.1313  -18.6782  -41.3713 N.am      8 UNK        -0.5000 
     35 C          -1.8696  -17.7409  -40.7562 C.2       7 UNK         0.5000 
     36 O          -3.0109  -17.4396  -41.1079 O.2       7 UNK        -0.5000 
     37 CA         -1.2431  -17.0004  -39.5571 C.3       7 UNK         0.1400 
     38 CB         -1.8483  -17.5052  -38.2379 C.3       7 UNK        -0.1800 
     39 N           0.2152  -17.0947  -39.4696 N.am      7 UNK        -0.5000 
     40 C           1.0910  -16.6344  -40.3728 C.2       6 UNK         0.5000 
     41 O           0.7581  -16.0956  -41.4298 O.2       6 UNK        -0.5000 
     42 CA          2.5891  -16.8337  -40.0577 C.3       6 UNK         0.1400 
     43 CB          2.8710  -17.4590  -38.6712 C.3       6 UNK        -0.1800 
     44 N           3.2720  -17.6014  -41.1028 N.am      6 UNK        -0.5000 
     45 C           2.9652  -18.8385  -41.5200 C.2       5 UNK         0.5000 
     46 O           1.9967  -19.4799  -41.1064 O.2       5 UNK        -0.5000 
     47 CA          3.9379  -19.4641  -42.5413 C.3       5 UNK         0.1400 
     48 CB          3.4133  -20.7673  -43.1796 C.3       5 UNK        -0.1800 
     49 N           4.3946  -18.5203  -43.5671 N.am      5 UNK        -0.5000 
     50 C           3.6560  -17.9368  -44.5207 C.2       4 UNK         0.5000 
     51 O           2.4370  -18.0779  -44.6449 O.2       4 UNK        -0.5000 
     52 CA          4.4353  -17.0418  -45.5001 C.3       4 UNK         0.1400 
     53 CB          3.7642  -16.9602  -46.8783 C.3       4 UNK        -0.1800 
     54 N           4.5783  -15.6925  -44.9628 N.am      4 UNK        -0.5000 
     55 C           5.5324  -15.3081  -44.1028 C.2       3 UNK         0.5000 
     56 O           6.3922  -16.0720  -43.6614 O.2       3 UNK        -0.5000 
     57 CA          5.5365  -13.8304  -43.6577 C.3       3 UNK         0.1400 
     58 CB          6.5433  -13.0243  -44.4913 C.3       3 UNK        -0.1800 
     59 N           4.2168  -13.2037  -43.7548 N.am      3 UNK        -0.5000 
     60 C           3.1945  -13.4975  -42.9377 C.2       2 UNK         0.5000 
     61 O           3.3259  -14.2094  -41.9444 O.2       2 UNK        -0.5000 
     62 CA          1.7974  -12.9273  -43.2702 C.3       2 UNK         0.1400 
     63 CB          1.3776  -11.8796  -42.2280 C.3       2 UNK        -0.1800 
     64 N           1.6795  -12.3351  -44.6055 N.am      2 UNK        -0.5000 
     65 C           1.8165  -12.9918  -45.7666 C.2       1 UNK         0.5000 
     66 O           2.0407  -14.1994  -45.8323 O.2       1 UNK        -0.5000 
     67 C          -3.6532  -20.4847  -48.0725 C.2       11 UNK         0.5000 
     68 O          -3.9737  -21.4241  -48.8017 O.2       11 UNK        -0.5000 
     69 N          -3.5594  -20.5890  -46.7387 N.am      12 UNK        -0.5000 
     70 CA         -3.8123  -21.8440  -46.0276 C.3       12 UNK         0.1400 
     71 CB         -4.2191  -21.5531  -44.5781 C.3       12 UNK        -0.1800 
     72 C          -2.6027  -22.7939  -46.0813 C.2       12 UNK         0.5000 
     73 O          -2.7866  -24.0086  -46.0050 O.2       12 UNK        -0.5000 
     74 N          -1.3940  -22.2328  -46.2363 N.am      13 UNK        -0.5000 
     75 CA         -0.1401  -22.9792  -46.3643 C.3       13 UNK         0.1400 
     76 CB          1.0486  -22.0157  -46.2301 C.3       13 UNK        -0.1800 
     77 C          -0.0607  -23.7756  -47.6806 C.2       13 UNK         0.5000 
     78 O           0.5349  -24.8537  -47.7041 O.2       13 UNK        -0.5000 
     79 N          -0.7058  -23.2619  -48.7370 N.am      14 UNK        -0.5000 
     80 CA         -0.8977  -23.9013  -50.0383 C.3       14 UNK         0.1400 
     81 CB         -1.2795  -22.8171  -51.0621 C.3       14 UNK        -0.1800 
     82 C          -1.9321  -25.0479  -49.9717 C.2       14 UNK         0.5000 
     83 O          -2.9733  -24.9888  -50.6276 O.2       14 UNK        -0.5000 
     84 N          -1.6372  -26.0613  -49.1436 N.am      15 UNK        -0.5000 
     85 CA         -2.3810  -27.3120  -48.9333 C.3       15 UNK         0.1400 
     86 CB         -2.2579  -28.2036  -50.1865 C.3       15 UNK        -0.1800 
     87 C          -3.8534  -27.1254  -48.4994 C.2       15 UNK         0.5000 
     88 O          -4.6715  -28.0190  -48.7235 O.2       15 UNK        -0.5000 
     89 N          -4.1710  -25.9577  -47.9188 N.am      16 UNK        -0.5000 
     90 CA         -5.5112  -25.4561  -47.5917 C.3       16 UNK         0.1400 
     91 CB         -6.1443  -26.2866  -46.4567 C.3       16 UNK        -0.1800 
     92 C          -6.4466  -25.3056  -48.8159 C.2       16 UNK         0.5000 
     93 O          -7.6640  -25.2278  -48.6430 O.2       16 UNK        -0.5000 
     94 N          -5.8743  -25.2574  -50.0274 N.am      17 UNK        -0.5000 
     95 CA         -6.5997  -25.1819  -51.2966 C.3       17 UNK         0.1400 
     96 CB         -5.8710  -26.0550  -52.3286 C.3       17 UNK        -0.1800 
     97 C          -6.7658  -23.7380  -51.8055 C.2       17 UNK         0.5000 
     98 O          -7.4552  -23.5330  -52.8058 O.2       17 UNK        -0.5000 
     99 N          -6.1555  -22.7654  -51.1125 N.am      18 UNK        -0.5000 
    100 CA        -6.2030  -21.3301  -51.3934 C.3       18 UNK         0.1400 
    101 CB        -7.6365  -20.7841  -51.1915 C.3       18 UNK        -0.1800 
    102 C         -5.5743  -20.9838  -52.7583 C.2       18 UNK         0.5000 
    103 O         -4.5660  -21.5859  -53.1381 O.2       18 UNK        -0.5000 
    104 N         -6.1706  -20.0220  -53.4753 N.am      19 UNK        -0.5000 
    105 CA        -5.7146  -19.4957  -54.7643 C.3       19 UNK         0.1400 
    106 CB        -6.6603  -18.3686  -55.2033 C.3       19 UNK        -0.1800 
    107 C         -5.5729  -20.5488  -55.8809 C.2       19 UNK         0.5000 
    108 O         -4.7702  -20.3461  -56.7916 O.2       19 UNK        -0.5000 
    109 N         -6.3095  -21.6648  -55.7777 N.am      20 UNK        -0.5000 
    110 CA        -6.2292  -22.8025  -56.6967 C.3       20 UNK         0.1400 
    111 CB        -7.3590  -23.7930  -56.3781 C.3       20 UNK        -0.1800 
    112 C         -4.8625  -23.5172  -56.6748 C.2       20 UNK         0.5000 
    113 O         -4.4703  -24.0857  -57.6949 O.2       20 UNK        -0.5000 
    114 N         -4.1632  -23.4639  -55.5329 N.am      21 UNK        -0.5000 
    115 CA        -2.8051  -23.9814  -55.3688 C.3       21 UNK         0.1400 
    116 CB        -2.7473  -24.8648  -54.1163 C.3       21 UNK        -0.1800 
    117 C         -1.7787  -22.8419  -55.2720 C.2       21 UNK         0.5000 
    118 O         -0.6823  -22.9748  -55.8172 O.2       21 UNK        -0.5000 
    119 N         -2.1395  -21.7510  -54.5825 N.am      22 UNK        -0.5000 
    120 CA        -1.2829  -20.5730  -54.3836 C.3       22 UNK         0.1400 
    121 C         -1.0412  -19.7273  -55.6709 C.2       22 UNK         0.5000 
    122 N         -1.9481  -19.7088  -56.6402 N.am      22 UNK        -0.7600 
    123 O         -0.0001  -19.0912  -55.8070 O.2       22 UNK        -0.5000 
    124 C124       -1.8016  -19.7085  -53.2049 C.3       23 UNK        -0.0398 
    125 S125       -0.5071  -18.6631  -52.4558 S.3       23 UNK        -0.2404 
    126 C126       -0.9701  -17.0141  -53.0772 C.3       23 UNK        -0.0205 
    127 H127        4.0176   -8.6643  -45.3082 H         1 UNK         0.0600 
    128 H128        2.8739   -8.3067  -46.6058 H         1 UNK         0.0600 
    129 H129        4.5673   -8.6320  -46.9869 H         1 UNK         0.0600 
    130 H130        1.5529  -10.0387  -47.0680 H         1 UNK         0.3000 
    131 H131        2.4869  -12.5948  -47.7528 H         1 UNK         0.0600 
    132 H132        0.2875  -11.3684  -48.4482 H         1 UNK         0.0800 
    133 H133       -0.4227  -12.0215  -46.9951 H         1 UNK         0.0800 
    134 H134       -0.9212  -12.5353  -50.4700 H         1 UNK         0.0800 
    135 H135       -2.0442  -12.7025  -49.1394 H         1 UNK         0.0800 
    136 H136       -0.1772  -14.8696  -51.5949 H         1 UNK         0.1150 
    137 H137       -3.5705  -17.3998  -52.3025 H         1 UNK         0.1150 
    138 H138       -3.8027  -14.2589  -49.4006 H         1 UNK         0.1150 
    139 H139       -5.7059  -15.6022  -49.7506 H         1 UNK         0.0800 
    140 H140       -5.8819  -16.0805  -51.4201 H         1 UNK         0.0800 
    141 H141       -5.0671  -18.3032  -47.6542 H         1 UNK         0.0800 
    142 H142       -4.0313  -17.0922  -48.3208 H         1 UNK         0.0800 
    143 H143       -3.1378  -19.2958  -49.7624 H         1 UNK         0.0600 
    144 H144       -2.0274  -17.6590  -47.8176 H         1 UNK         0.3000 
    145 H145        1.2430  -19.0303  -47.8018 H         1 UNK         0.0600 
    146 H146        1.6203  -16.7182  -48.7565 H         1 UNK         0.0600 
    147 H147        1.0278  -17.8668  -49.9421 H         1 UNK         0.0600 
    148 H148       -0.0650  -16.6800  -49.2540 H         1 UNK         0.0600 
    149 H149        0.9375  -17.9898  -45.8947 H         1 UNK         0.3000 
    150 H150        0.5034  -15.9166  -44.5746 H         1 UNK         0.0600 
    151 H151       -1.3532  -14.3119  -45.0170 H         1 UNK         0.0600 
    152 H152       -1.3646  -14.8572  -43.3467 H         1 UNK         0.0600 
    153 H153       -2.5312  -15.5145  -44.4944 H         1 UNK         0.0600 
    154 H154       -0.0887  -17.3313  -42.9669 H         1 UNK         0.3000 
    155 H155       -2.5728  -19.7054  -42.4487 H         1 UNK         0.0600 
    156 H156        0.3701  -20.3077  -43.0327 H         1 UNK         0.0600 
    157 H157       -1.0109  -21.1892  -43.6606 H         1 UNK         0.0600 
    158 H158       -0.6498  -21.2463  -41.9432 H         1 UNK         0.0600 
    159 H159       -0.1952  -18.8707  -41.0343 H         1 UNK         0.3000 
    160 H160       -1.4964  -15.9440  -39.6674 H         1 UNK         0.0600 
    161 H161       -1.6044  -18.5533  -38.0598 H         1 UNK         0.0600 
    162 H162       -2.9357  -17.4182  -38.2463 H         1 UNK         0.0600 
    163 H163       -1.4854  -16.9257  -37.3887 H         1 UNK         0.0600 
    164 H164        0.5820  -17.5529  -38.6481 H         1 UNK         0.3000 
    165 H165        3.0348  -15.8403  -40.0500 H         1 UNK         0.0600 
    166 H166        2.4623  -18.4659  -38.5787 H         1 UNK         0.0600 
    167 H167        3.9436  -17.5244  -38.4880 H         1 UNK         0.0600 
    168 H168        2.4509  -16.8502  -37.8695 H         1 UNK         0.0600 
    169 H169        4.0457  -17.1304  -41.5493 H         1 UNK         0.3000 
    170 H170        4.8253  -19.7303  -41.9655 H         1 UNK         0.0600 
    171 H171        3.1445  -21.5003  -42.4181 H         1 UNK         0.0600 
    172 H172        2.5304  -20.5915  -43.7906 H         1 UNK         0.0600 
    173 H173        4.1706  -21.2253  -43.8155 H         1 UNK         0.0600 
    174 H174        5.3781  -18.2837  -43.5321 H         1 UNK         0.3000 
    175 H175        5.4242  -17.4807  -45.6500 H         1 UNK         0.0600 
    176 H176        2.7920  -16.4749  -46.8156 H         1 UNK         0.0600 
    177 H177        4.3737  -16.3927  -47.5816 H         1 UNK         0.0600 
    178 H178        3.6135  -17.9536  -47.3022 H         1 UNK         0.0600 
    179 H179        3.8590  -15.0300  -45.2326 H         1 UNK         0.3000 
    180 H180        5.8590  -13.7985  -42.6148 H         1 UNK         0.0600 
    181 H181        6.2923  -13.0435  -45.5526 H         1 UNK         0.0600 
    182 H182        7.5505  -13.4292  -44.3854 H         1 UNK         0.0600 
    183 H183        6.5760  -11.9821  -44.1733 H         1 UNK         0.0600 
    184 H184        4.0625  -12.5903  -44.5472 H         1 UNK         0.3000 
    185 H185        1.0958  -13.7621  -43.2147 H         1 UNK         0.0600 
    186 H186        2.0358  -11.0100  -42.2453 H         1 UNK         0.0600 
    187 H187        0.3580  -11.5355  -42.4024 H         1 UNK         0.0600 
    188 H188        1.4088  -12.2960  -41.2202 H         1 UNK         0.0600 
    189 H189        1.5319  -11.3371  -44.6413 H         1 UNK         0.3000 
    190 H190       -3.2448  -19.7961  -46.1855 H         1 UNK         0.3000 
    191 H191       -4.6542  -22.3503  -46.5023 H         1 UNK         0.0600 
    192 H192       -4.5031  -22.4713  -44.0626 H         1 UNK         0.0600 
    193 H193       -5.0718  -20.8755  -44.5330 H         1 UNK         0.0600 
    194 H194       -3.4030  -21.1055  -44.0177 H         1 UNK         0.0600 
    195 H195       -1.3420  -21.2304  -46.3386 H         1 UNK         0.3000 
    196 H196       -0.0926  -23.6929  -45.5391 H         1 UNK         0.0600 
    197 H197        1.1301  -21.3493  -47.0875 H         1 UNK         0.0600 
    198 H198        0.9618  -21.4012  -45.3352 H         1 UNK         0.0600 
    199 H199        1.9869  -22.5669  -46.1583 H         1 UNK         0.0600 
    200 H200       -1.1068  -22.3354  -48.6391 H         1 UNK         0.3000 
    201 H201        0.0526  -24.3370  -50.3527 H         1 UNK         0.0600 
    202 H202       -2.2437  -22.3628  -50.8291 H         1 UNK         0.0600 
    203 H203       -1.3440  -23.2335  -52.0665 H         1 UNK         0.0600 
    204 H204       -0.5354  -22.0207  -51.0922 H         1 UNK         0.0600 
    205 H205       -0.7843  -25.9625  -48.5995 H         1 UNK         0.3000 
    206 H206       -1.8865  -27.8258  -48.1081 H         1 UNK         0.0600 
    207 H207       -1.2150  -28.3411  -50.4723 H         1 UNK         0.0600 
    208 H208       -2.6755  -29.1953  -50.0092 H         1 UNK         0.0600 
    209 H209       -2.7851  -27.7732  -51.0390 H         1 UNK         0.0600 
    210 H210       -3.4164  -25.3096  -47.7297 H         1 UNK         0.3000 
    211 H211       -5.3654  -24.4461  -47.2112 H         1 UNK         0.0600 
    212 H212       -7.0668  -25.8265  -46.1011 H         1 UNK         0.0600 
    213 H213       -5.4715  -26.3608  -45.6023 H         1 UNK         0.0600 
    214 H214       -6.3887  -27.2982  -46.7816 H         1 UNK         0.0600 
    215 H215       -4.8606  -25.2912  -50.0977 H         1 UNK         0.3000 
    216 H216       -7.6050  -25.5893  -51.1724 H         1 UNK         0.0600 
    217 H217       -4.8346  -25.7459  -52.4431 H         1 UNK         0.0600 
    218 H218       -6.3460  -25.9981  -53.3089 H         1 UNK         0.0600 
    219 H219       -5.8716  -27.1020  -52.0253 H         1 UNK         0.0600 
    220 H220       -5.5622  -23.0366  -50.3409 H         1 UNK         0.3000 
    221 H221       -5.5671  -20.8531  -50.6522 H         1 UNK         0.0600 
    222 H222       -8.0259  -21.0716  -50.2148 H         1 UNK         0.0600 
    223 H223       -8.3299  -21.1572  -51.9458 H         1 UNK         0.0600 
    224 H224       -7.6610  -19.6950  -51.2299 H         1 UNK         0.0600 
    225 H225       -7.0002  -19.5935  -53.0912 H         1 UNK         0.3000 
    226 H226       -4.7260  -19.0622  -54.6080 H         1 UNK         0.0600 
    227 H227       -7.6799  -18.7307  -55.3415 H         1 UNK         0.0600 
    228 H228       -6.6848  -17.5646  -54.4673 H         1 UNK         0.0600 
    229 H229       -6.3359  -17.9310  -56.1485 H         1 UNK         0.0600 
    230 H230       -6.9233  -21.7674  -54.9816 H         1 UNK         0.3000 
    231 H231       -6.3850  -22.4228  -57.7086 H         1 UNK         0.0600 
    232 H232       -7.2456  -24.2258  -55.3839 H         1 UNK         0.0600 
    233 H233       -7.3675  -24.6167  -57.0931 H         1 UNK         0.0600 
    234 H234       -8.3354  -23.3108  -56.4266 H         1 UNK         0.0600 
    235 H235       -4.5525  -22.9547  -54.7481 H         1 UNK         0.3000 
    236 H236       -2.5212  -24.6004  -56.2224 H         1 UNK         0.0600 
    237 H237       -3.3499  -25.7630  -54.2480 H         1 UNK         0.0600 
    238 H238       -1.7275  -25.1882  -53.9037 H         1 UNK         0.0600 
    239 H239       -3.1162  -24.3333  -53.2389 H         1 UNK         0.0600 
    240 H240       -3.0461  -21.7277  -54.1224 H         1 UNK         0.3000 
    241 H241       -0.3056  -20.9615  -54.0894 H         1 UNK         0.0600 
    242 H242       -1.7603  -19.1665  -57.4680 H         1 UNK         0.3800 
    243 H243       -2.8361  -20.1928  -56.5641 H         1 UNK         0.3800 
    244 H244       -2.1692  -20.3520  -52.4048 H         1 UNK         0.0800 
    245 H245       -2.6575  -19.1092  -53.5113 H         1 UNK         0.0800 
    246 H246       -0.0539  -16.4759  -53.3242 H         1 UNK         0.0800 
    247 H247       -1.5280  -17.0936  -54.0110 H         1 UNK         0.0800 
@<TRIPOS>BOND
     1    1    2 1    
     2    1  127 1    
     3    1  128 1    
     4    1  129 1    
     5    2    3 2    
     6    2    4 am   BACKBONE|DICT|INTERRES
     7    4    5 1    
     8    4  130 1    
     9    5    6 1    
    10    5   65 1    
    11    5  131 1    
    12    6    7 1    
    13    6  132 1    
    14    6  133 1    
    15    7    8 1    
    16    8    9 1    
    17    8  134 1    
    18    8  135 1    
    19    9   10 ar   
    20    9   14 ar   
    21   10   11 ar   
    22   10  136 1    
    23   11   12 ar   
    24   11  126 1    
    25   12   13 ar   
    26   12  137 1    
    27   13   14 ar   
    28   13   15 1    
    29   14  138 1    
    30   15   16 1    
    31   15  139 1    
    32   15  140 1    
    33   16   17 1    
    34   17   18 1    
    35   17  141 1    
    36   17  142 1    
    37   18   19 1    
    38   18   67 1    
    39   18  143 1    
    40   19   20 am   BACKBONE|DICT|INTERRES
    41   19  144 1    
    42   20   21 2    
    43   20   22 1    
    44   22   23 1    
    45   22   24 1    
    46   22  145 1    
    47   23  146 1    
    48   23  147 1    
    49   23  148 1    
    50   24   25 am   BACKBONE|DICT|INTERRES
    51   24  149 1    
    52   25   26 2    
    53   25   27 1    
    54   27   28 1    
    55   27   29 1    
    56   27  150 1    
    57   28  151 1    
    58   28  152 1    
    59   28  153 1    
    60   29   30 am   BACKBONE|DICT|INTERRES
    61   29  154 1    
    62   30   31 2    
    63   30   32 1    
    64   32   33 1    
    65   32   34 1    
    66   32  155 1    
    67   33  156 1    
    68   33  157 1    
    69   33  158 1    
    70   34   35 am   BACKBONE|DICT|INTERRES
    71   34  159 1    
    72   35   36 2    
    73   35   37 1    
    74   37   38 1    
    75   37   39 1    
    76   37  160 1    
    77   38  161 1    
    78   38  162 1    
    79   38  163 1    
    80   39   40 am   BACKBONE|DICT|INTERRES
    81   39  164 1    
    82   40   41 2    
    83   40   42 1    
    84   42   43 1    
    85   42   44 1    
    86   42  165 1    
    87   43  166 1    
    88   43  167 1    
    89   43  168 1    
    90   44   45 am   BACKBONE|DICT|INTERRES
    91   44  169 1    
    92   45   46 2    
    93   45   47 1    
    94   47   48 1    
    95   47   49 1    
    96   47  170 1    
    97   48  171 1    
    98   48  172 1    
    99   48  173 1    
   100   49   50 am   BACKBONE|DICT|INTERRES
   101   49  174 1    
   102   50   51 2    
   103   50   52 1    
   104   52   53 1    
   105   52   54 1    
   106   52  175 1    
   107   53  176 1    
   108   53  177 1    
   109   53  178 1    
   110   54   55 am   BACKBONE|DICT|INTERRES
   111   54  179 1    
   112   55   56 2    
   113   55   57 1    
   114   57   58 1    
   115   57   59 1    
   116   57  180 1    
   117   58  181 1    
   118   58  182 1    
   119   58  183 1    
   120   59   60 am   BACKBONE|DICT|INTERRES
   121   59  184 1    
   122   60   61 2    
   123   60   62 1    
   124   62   63 1    
   125   62   64 1    
   126   62  185 1    
   127   63  186 1    
   128   63  187 1    
   129   63  188 1    
   130   64   65 am   BACKBONE|DICT|INTERRES
   131   64  189 1    
   132   65   66 2    
   133   67   68 2    
   134   67   69 am   BACKBONE|DICT|INTERRES
   135   69   70 1    
   136   69  190 1    
   137   70   71 1    
   138   70   72 1    
   139   70  191 1    
   140   71  192 1    
   141   71  193 1    
   142   71  194 1    
   143   72   73 2    
   144   72   74 am   BACKBONE|DICT|INTERRES
   145   74   75 1    
   146   74  195 1    
   147   75   76 1    
   148   75   77 1    
   149   75  196 1    
   150   76  197 1    
   151   76  198 1    
   152   76  199 1    
   153   77   78 2    
   154   77   79 am   BACKBONE|DICT|INTERRES
   155   79   80 1    
   156   79  200 1    
   157   80   81 1    
   158   80   82 1    
   159   80  201 1    
   160   81  202 1    
   161   81  203 1    
   162   81  204 1    
   163   82   83 2    
   164   82   84 am   BACKBONE|DICT|INTERRES
   165   84   85 1    
   166   84  205 1    
   167   85   86 1    
   168   85   87 1    
   169   85  206 1    
   170   86  207 1    
   171   86  208 1    
   172   86  209 1    
   173   87   88 2    
   174   87   89 am   BACKBONE|DICT|INTERRES
   175   89   90 1    
   176   89  210 1    
   177   90   91 1    
   178   90   92 1    
   179   90  211 1    
   180   91  212 1    
   181   91  213 1    
   182   91  214 1    
   183   92   93 2    
   184   92   94 am   BACKBONE|DICT|INTERRES
   185   94   95 1    
   186   94  215 1    
   187   95   96 1    
   188   95   97 1    
   189   95  216 1    
   190   96  217 1    
   191   96  218 1    
   192   96  219 1    
   193   97   98 2    
   194   97   99 am   BACKBONE|DICT|INTERRES
   195   99  100 1    
   196   99  220 1    
   197  100  101 1    
   198  100  102 1    
   199  100  221 1    
   200  101  222 1    
   201  101  223 1    
   202  101  224 1    
   203  102  103 2    
   204  102  104 am   BACKBONE|DICT|INTERRES
   205  104  105 1    
   206  104  225 1    
   207  105  106 1    
   208  105  107 1    
   209  105  226 1    
   210  106  227 1    
   211  106  228 1    
   212  106  229 1    
   213  107  108 2    
   214  107  109 am   BACKBONE|DICT|INTERRES
   215  109  110 1    
   216  109  230 1    
   217  110  111 1    
   218  110  112 1    
   219  110  231 1    
   220  111  232 1    
   221  111  233 1    
   222  111  234 1    
   223  112  113 2    
   224  112  114 am   BACKBONE|DICT|INTERRES
   225  114  115 1    
   226  114  235 1    
   227  115  116 1    
   228  115  117 1    
   229  115  236 1    
   230  116  237 1    
   231  116  238 1    
   232  116  239 1    
   233  117  118 2    
   234  117  119 am   BACKBONE|DICT|INTERRES
   235  119  120 1    
   236  119  240 1    
   237  120  121 1    
   238  120  124 1    
   239  120  241 1    
   240  121  122 am   BACKBONE|DICT|INTERRES
   241  121  123 2    
   242  122  242 1    
   243  122  243 1    
   244  124  125 1    
   245  124  244 1    
   246  124  245 1    
   247  125  126 1    
   248  126  246 1    
   249  126  247 1    
@<TRIPOS>SUBSTRUCTURE
     1 UNK         1 GROUP             0       ****    0 ROOT    
