@<TRIPOS>MOLECULE
3R540
247   249    1
SMALL
USER_CHARGES


@<TRIPOS>ATOM
      1 CA         -5.0819  -14.7705  -50.2378 C.3       0 UNK        -0.1800 
      2 C          -3.9046  -15.3363  -49.4581 C.2       0 UNK         0.5000 
      3 O          -3.7665  -16.5526  -49.3696 O.2       0 UNK        -0.5000 
      4 N          -3.0721  -14.4481  -48.9004 N.am      1 UNK        -0.5000 
      5 CA         -1.8300  -14.6555  -48.1343 C.3       1 UNK         0.1400 
      6 C6         -0.6348  -15.2168  -48.9558 C.3       23 UNK        -0.0398 
      7 S7         -0.6402  -17.0167  -49.2740 S.3       23 UNK        -0.2404 
      8 C8          1.0793  -17.2740  -49.7944 C.3       23 UNK        -0.0205 
      9 C9          1.2898  -18.6935  -50.2939 C.ar      23 UNK        -0.0193 
     10 C10         0.7939  -19.0690  -51.5461 C.ar      23 UNK        -0.1150 
     11 C11         0.9819  -20.3678  -52.0236 C.ar      23 UNK        -0.0193 
     12 C12         1.6889  -21.2894  -51.2457 C.ar      23 UNK        -0.1150 
     13 C13         2.2061  -20.9216  -49.9993 C.ar      23 UNK        -0.0193 
     14 C14         1.9898  -19.6256  -49.5203 C.ar      23 UNK        -0.1150 
     15 C15         3.0482  -21.9120  -49.2076 C.3       23 UNK        -0.0205 
     16 S16         2.0357  -23.1545  -48.3490 S.3       23 UNK        -0.2404 
     17 C17         1.7180  -22.3350  -46.7521 C.3       23 UNK        -0.0398 
     18 CA          1.0886  -23.2931  -45.7096 C.3       11 UNK         0.1400 
     19 N           1.3269  -22.8389  -44.3344 N.am      11 UNK        -0.5000 
     20 C           1.0793  -23.5556  -43.2273 C.2       10 UNK         0.5000 
     21 O           0.6358  -24.7044  -43.2434 O.2       10 UNK        -0.5000 
     22 CA          1.3276  -22.8541  -41.8780 C.3       10 UNK         0.1400 
     23 CB          2.8173  -22.8804  -41.5043 C.3       10 UNK        -0.1800 
     24 N           0.8445  -21.4728  -41.8860 N.am      10 UNK        -0.5000 
     25 C          -0.4514  -21.1300  -41.9031 C.2       9 UNK         0.5000 
     26 O          -1.3684  -21.9412  -41.7817 O.2       9 UNK        -0.5000 
     27 CA         -0.7837  -19.6430  -42.1343 C.3       9 UNK         0.1400 
     28 CB         -0.8271  -18.8797  -40.8026 C.3       9 UNK        -0.1800 
     29 N           0.1507  -18.9867  -43.0522 N.am      9 UNK        -0.5000 
     30 C           0.2951  -19.3124  -44.3442 C.2       8 UNK         0.5000 
     31 O          -0.3856  -20.1654  -44.9073 O.2       8 UNK        -0.5000 
     32 CA          1.4302  -18.6270  -45.1242 C.3       8 UNK         0.1400 
     33 CB          0.9817  -17.2819  -45.7000 C.3       8 UNK        -0.1800 
     34 N           2.6222  -18.4368  -44.3020 N.am      8 UNK        -0.5000 
     35 C           3.4265  -19.4335  -43.9100 C.2       7 UNK         0.5000 
     36 O           3.2662  -20.6078  -44.2401 O.2       7 UNK        -0.5000 
     37 CA          4.5666  -19.0583  -42.9472 C.3       7 UNK         0.1400 
     38 CB          5.7706  -18.5016  -43.7213 C.3       7 UNK        -0.1800 
     39 N           4.1402  -18.0837  -41.9415 N.am      7 UNK        -0.5000 
     40 C           3.2404  -18.3365  -40.9802 C.2       6 UNK         0.5000 
     41 O           2.7186  -19.4376  -40.8087 O.2       6 UNK        -0.5000 
     42 CA          2.8222  -17.1492  -40.0928 C.3       6 UNK         0.1400 
     43 CB          3.7578  -17.0264  -38.8812 C.3       6 UNK        -0.1800 
     44 N           2.7913  -15.8736  -40.8147 N.am      6 UNK        -0.5000 
     45 C           1.9488  -15.5842  -41.8150 C.2       5 UNK         0.5000 
     46 O           1.1058  -16.3692  -42.2533 O.2       5 UNK        -0.5000 
     47 CA          2.1219  -14.2119  -42.4720 C.3       5 UNK         0.1400 
     48 CB          3.1684  -14.2843  -43.5988 C.3       5 UNK        -0.1800 
     49 N           0.8463  -13.7540  -43.0163 N.am      5 UNK        -0.5000 
     50 C           0.5136  -12.4678  -43.1795 C.2       4 UNK         0.5000 
     51 O           1.2467  -11.5324  -42.8539 O.2       4 UNK        -0.5000 
     52 CA         -0.8470  -12.1501  -43.8236 C.3       4 UNK         0.1400 
     53 CB         -0.6588  -11.7895  -45.3065 C.3       4 UNK        -0.1800 
     54 N          -1.8169  -13.2422  -43.7168 N.am      4 UNK        -0.5000 
     55 C          -2.6652  -13.3984  -42.6904 C.2       3 UNK         0.5000 
     56 O          -2.6277  -12.6992  -41.6767 O.2       3 UNK        -0.5000 
     57 CA         -3.7662  -14.4731  -42.8116 C.3       3 UNK         0.1400 
     58 CB         -5.1580  -13.8183  -42.7977 C.3       3 UNK        -0.1800 
     59 N          -3.6524  -15.2729  -44.0331 N.am      3 UNK        -0.5000 
     60 C          -3.1829  -16.5251  -44.0826 C.2       2 UNK         0.5000 
     61 O          -2.8340  -17.1591  -43.0884 O.2       2 UNK        -0.5000 
     62 CA         -3.0845  -17.1933  -45.4709 C.3       2 UNK         0.1400 
     63 CB         -4.3093  -18.0874  -45.7115 C.3       2 UNK        -0.1800 
     64 N          -2.9248  -16.2905  -46.6198 N.am      2 UNK        -0.5000 
     65 C          -1.9771  -15.3556  -46.7658 C.2       1 UNK         0.5000 
     66 O          -1.2198  -15.0178  -45.8578 O.2       1 UNK        -0.5000 
     67 C          -0.4037  -23.5683  -46.0067 C.2       11 UNK         0.5000 
     68 O          -0.7025  -24.4376  -46.8247 O.2       11 UNK        -0.5000 
     69 N          -1.3183  -22.8820  -45.3055 N.am      12 UNK        -0.5000 
     70 CA         -2.7764  -23.0169  -45.4160 C.3       12 UNK         0.1400 
     71 CB         -3.4553  -21.9561  -44.5364 C.3       12 UNK        -0.1800 
     72 C          -3.3378  -24.4228  -45.1214 C.2       12 UNK         0.5000 
     73 O          -4.4892  -24.6950  -45.4629 O.2       12 UNK        -0.5000 
     74 N          -2.5191  -25.3043  -44.5327 N.am      13 UNK        -0.5000 
     75 CA         -2.7955  -26.7327  -44.3969 C.3       13 UNK         0.1400 
     76 CB         -1.7740  -27.3386  -43.4223 C.3       13 UNK        -0.1800 
     77 C          -2.7748  -27.4961  -45.7409 C.2       13 UNK         0.5000 
     78 O          -3.3572  -28.5794  -45.8116 O.2       13 UNK        -0.5000 
     79 N          -2.1066  -26.9453  -46.7665 N.am      14 UNK        -0.5000 
     80 CA         -1.9286  -27.5703  -48.0791 C.3       14 UNK         0.1400 
     81 CB         -0.4824  -28.0790  -48.1954 C.3       14 UNK        -0.1800 
     82 C          -2.2597  -26.6302  -49.2529 C.2       14 UNK         0.5000 
     83 O          -2.7618  -27.1091  -50.2711 O.2       14 UNK        -0.5000 
     84 N          -1.9669  -25.3312  -49.1186 N.am      15 UNK        -0.5000 
     85 CA         -2.1119  -24.3254  -50.1688 C.3       15 UNK         0.1400 
     86 CB         -0.8018  -24.2450  -50.9804 C.3       15 UNK        -0.1800 
     87 C          -2.5753  -22.9940  -49.5480 C.2       15 UNK         0.5000 
     88 O          -3.6233  -22.9832  -48.9027 O.2       15 UNK        -0.5000 
     89 N          -1.8116  -21.9115  -49.7639 N.am      16 UNK        -0.5000 
     90 CA         -2.0570  -20.5288  -49.3332 C.3       16 UNK         0.1400 
     91 CB         -1.8894  -20.3743  -47.8130 C.3       16 UNK        -0.1800 
     92 C          -3.4033  -19.9765  -49.8390 C.2       16 UNK         0.5000 
     93 O          -4.3384  -19.7711  -49.0633 O.2       16 UNK        -0.5000 
     94 N          -3.4717  -19.7686  -51.1548 N.am      17 UNK        -0.5000 
     95 CA         -4.5953  -19.1558  -51.8504 C.3       17 UNK         0.1400 
     96 CB         -5.5375  -20.2489  -52.3861 C.3       17 UNK        -0.1800 
     97 C          -4.0301  -18.2425  -52.9449 C.2       17 UNK         0.5000 
     98 O          -4.3370  -18.4181  -54.1263 O.2       17 UNK        -0.5000 
     99 N          -3.1789  -17.2908  -52.5332 N.am      18 UNK        -0.5000 
    100 CA        -2.4395  -16.3769  -53.4131 C.3       18 UNK         0.1400 
    101 CB        -1.4981  -15.5030  -52.5762 C.3       18 UNK        -0.1800 
    102 C         -3.3240  -15.4929  -54.3126 C.2       18 UNK         0.5000 
    103 O         -2.8861  -15.1142  -55.3983 O.2       18 UNK        -0.5000 
    104 N         -4.5682  -15.2363  -53.8852 N.am      19 UNK        -0.5000 
    105 CA        -5.6030  -14.5456  -54.6608 C.3       19 UNK         0.1400 
    106 CB        -6.8236  -14.3104  -53.7580 C.3       19 UNK        -0.1800 
    107 C         -6.0173  -15.2953  -55.9463 C.2       19 UNK         0.5000 
    108 O         -6.4686  -14.6576  -56.8981 O.2       19 UNK        -0.5000 
    109 N         -5.8338  -16.6221  -55.9567 N.am      20 UNK        -0.5000 
    110 CA        -6.0333  -17.5074  -57.1043 C.3       20 UNK         0.1400 
    111 CB        -7.0001  -18.6278  -56.6818 C.3       20 UNK        -0.1800 
    112 C         -4.6934  -18.0930  -57.5986 C.2       20 UNK         0.5000 
    113 O         -4.7033  -19.0435  -58.3830 O.2       20 UNK        -0.5000 
    114 N         -3.5652  -17.5619  -57.0963 N.am      21 UNK        -0.5000 
    115 CA        -2.1834  -18.0173  -57.3053 C.3       21 UNK         0.1400 
    116 CB        -1.7341  -17.7057  -58.7473 C.3       21 UNK        -0.1800 
    117 C         -1.9493  -19.4962  -56.9163 C.2       21 UNK         0.5000 
    118 O         -1.0665  -20.1457  -57.4794 O.2       21 UNK        -0.5000 
    119 N         -2.7666  -20.0063  -55.9839 N.am      22 UNK        -0.5000 
    120 CA        -2.8901  -21.4250  -55.6094 C.3       22 UNK         0.1400 
    121 C         -3.3793  -22.3618  -56.7599 C.2       22 UNK         0.5000 
    122 N         -3.9994  -21.8517  -57.8185 N.am      22 UNK        -0.7600 
    123 O         -3.2292  -23.5783  -56.6833 O.2       22 UNK        -0.5000 
    124 C124       -1.6419  -21.9735  -54.8644 C.3       23 UNK        -0.0398 
    125 S125       -1.3482  -21.1080  -53.2856 S.3       23 UNK        -0.2404 
    126 C126        0.4326  -20.7695  -53.3831 C.3       23 UNK        -0.0205 
    127 H127       -5.8861  -14.4939  -49.5562 H         1 UNK         0.0600 
    128 H128       -5.4701  -15.5116  -50.9362 H         1 UNK         0.0600 
    129 H129       -4.7889  -13.8880  -50.8070 H         1 UNK         0.0600 
    130 H130       -3.3100  -13.4724  -49.0131 H         1 UNK         0.3000 
    131 H131       -1.5433  -13.6346  -47.8761 H         1 UNK         0.0600 
    132 H132        0.2923  -14.9813  -48.4297 H         1 UNK         0.0800 
    133 H133       -0.5643  -14.6937  -49.9090 H         1 UNK         0.0800 
    134 H134        1.7464  -17.0549  -48.9594 H         1 UNK         0.0800 
    135 H135        1.3309  -16.5698  -50.5887 H         1 UNK         0.0800 
    136 H136        0.2508  -18.3523  -52.1457 H         1 UNK         0.1150 
    137 H137        1.8528  -22.2919  -51.6158 H         1 UNK         0.1150 
    138 H138        2.3866  -19.3357  -48.5576 H         1 UNK         0.1150 
    139 H139        3.7200  -22.4306  -49.8931 H         1 UNK         0.0800 
    140 H140        3.6923  -21.3934  -48.4960 H         1 UNK         0.0800 
    141 H141        1.1086  -21.4457  -46.9070 H         1 UNK         0.0800 
    142 H142        2.6811  -21.9804  -46.3849 H         1 UNK         0.0800 
    143 H143        1.6008  -24.2543  -45.7930 H         1 UNK         0.0600 
    144 H144        1.7441  -21.9199  -44.2306 H         1 UNK         0.3000 
    145 H145        0.7794  -23.4038  -41.1099 H         1 UNK         0.0600 
    146 H146        2.9850  -22.4280  -40.5267 H         1 UNK         0.0600 
    147 H147        3.4286  -22.3425  -42.2286 H         1 UNK         0.0600 
    148 H148        3.1888  -23.9047  -41.4579 H         1 UNK         0.0600 
    149 H149        1.5436  -20.7384  -41.8984 H         1 UNK         0.3000 
    150 H150       -1.7765  -19.5958  -42.5861 H         1 UNK         0.0600 
    151 H151       -1.5958  -19.2898  -40.1467 H         1 UNK         0.0600 
    152 H152       -1.0599  -17.8260  -40.9582 H         1 UNK         0.0600 
    153 H153        0.1216  -18.9409  -40.2713 H         1 UNK         0.0600 
    154 H154        0.6875  -18.2091  -42.6803 H         1 UNK         0.3000 
    155 H155        1.6945  -19.2730  -45.9636 H         1 UNK         0.0600 
    156 H156        0.1236  -17.4189  -46.3573 H         1 UNK         0.0600 
    157 H157        1.7708  -16.8167  -46.2904 H         1 UNK         0.0600 
    158 H158        0.6916  -16.5839  -44.9148 H         1 UNK         0.0600 
    159 H159        2.7885  -17.5074  -43.9480 H         1 UNK         0.3000 
    160 H160        4.8810  -19.9680  -42.4310 H         1 UNK         0.0600 
    161 H161        5.5248  -17.5743  -44.2405 H         1 UNK         0.0600 
    162 H162        6.1161  -19.2157  -44.4701 H         1 UNK         0.0600 
    163 H163        6.6091  -18.3009  -43.0542 H         1 UNK         0.0600 
    164 H164        4.5296  -17.1551  -42.0066 H         1 UNK         0.3000 
    165 H165        1.8146  -17.3489  -39.7239 H         1 UNK         0.0600 
    166 H166        3.4236  -16.2414  -38.2025 H         1 UNK         0.0600 
    167 H167        3.7829  -17.9568  -38.3120 H         1 UNK         0.0600 
    168 H168        4.7810  -16.7981  -39.1821 H         1 UNK         0.0600 
    169 H169        3.4610  -15.1770  -40.5208 H         1 UNK         0.3000 
    170 H170        2.4627  -13.5130  -41.7050 H         1 UNK         0.0600 
    171 H171        2.8511  -14.9553  -44.3982 H         1 UNK         0.0600 
    172 H172        3.3427  -13.3024  -44.0391 H         1 UNK         0.0600 
    173 H173        4.1277  -14.6446  -43.2256 H         1 UNK         0.0600 
    174 H174        0.1904  -14.4835  -43.2656 H         1 UNK         0.3000 
    175 H175       -1.2483  -11.2675  -43.3207 H         1 UNK         0.0600 
    176 H176       -0.1735  -12.5936  -45.8600 H         1 UNK         0.0600 
    177 H177       -1.6132  -11.5753  -45.7877 H         1 UNK         0.0600 
    178 H178       -0.0348  -10.9013  -45.4132 H         1 UNK         0.0600 
    179 H179       -1.8247  -13.9106  -44.4827 H         1 UNK         0.3000 
    180 H180       -3.6875  -15.1099  -41.9281 H         1 UNK         0.0600 
    181 H181       -5.9465  -14.5699  -42.8411 H         1 UNK         0.0600 
    182 H182       -5.2929  -13.1411  -43.6420 H         1 UNK         0.0600 
    183 H183       -5.3133  -13.2412  -41.8852 H         1 UNK         0.0600 
    184 H184       -3.9195  -14.8259  -44.8979 H         1 UNK         0.3000 
    185 H185       -2.2015  -17.8342  -45.4476 H         1 UNK         0.0600 
    186 H186       -5.2234  -17.4994  -45.8005 H         1 UNK         0.0600 
    187 H187       -4.1968  -18.6715  -46.6240 H         1 UNK         0.0600 
    188 H188       -4.4489  -18.7936  -44.8921 H         1 UNK         0.0600 
    189 H189       -3.4555  -16.5240  -47.4544 H         1 UNK         0.3000 
    190 H190       -0.9847  -22.1283  -44.7149 H         1 UNK         0.3000 
    191 H191       -3.0340  -22.8097  -46.4512 H         1 UNK         0.0600 
    192 H192       -3.0644  -20.9589  -44.7393 H         1 UNK         0.0600 
    193 H193       -3.3152  -22.1651  -43.4766 H         1 UNK         0.0600 
    194 H194       -4.5294  -21.9269  -44.7227 H         1 UNK         0.0600 
    195 H195       -1.5934  -24.9953  -44.2663 H         1 UNK         0.3000 
    196 H196       -3.7919  -26.8495  -43.9658 H         1 UNK         0.0600 
    197 H197       -1.8186  -26.8498  -42.4489 H         1 UNK         0.0600 
    198 H198       -0.7547  -27.2420  -43.7988 H         1 UNK         0.0600 
    199 H199       -1.9666  -28.4002  -43.2622 H         1 UNK         0.0600 
    200 H200       -1.6561  -26.0446  -46.6323 H         1 UNK         0.3000 
    201 H201       -2.5951  -28.4294  -48.1790 H         1 UNK         0.0600 
    202 H202       -0.2638  -28.8219  -47.4281 H         1 UNK         0.0600 
    203 H203        0.2374  -27.2660  -48.0899 H         1 UNK         0.0600 
    204 H204       -0.3084  -28.5503  -49.1636 H         1 UNK         0.0600 
    205 H205       -1.5518  -24.9944  -48.2512 H         1 UNK         0.3000 
    206 H206       -2.9109  -24.6232  -50.8509 H         1 UNK         0.0600 
    207 H207        0.0403  -23.9357  -50.3623 H         1 UNK         0.0600 
    208 H208       -0.5511  -25.2138  -51.4126 H         1 UNK         0.0600 
    209 H209       -0.8883  -23.5457  -51.8103 H         1 UNK         0.0600 
    210 H210       -0.9791  -22.0373  -50.3223 H         1 UNK         0.3000 
    211 H211       -1.2748  -19.9318  -49.8000 H         1 UNK         0.0600 
    212 H212       -2.7323  -20.7901  -47.2661 H         1 UNK         0.0600 
    213 H213       -1.8193  -19.3216  -47.5387 H         1 UNK         0.0600 
    214 H214       -0.9829  -20.8618  -47.4647 H         1 UNK         0.0600 
    215 H215       -2.6688  -19.9903  -51.7313 H         1 UNK         0.3000 
    216 H216       -5.1579  -18.5142  -51.1686 H         1 UNK         0.0600 
    217 H217       -6.3670  -19.8142  -52.9452 H         1 UNK         0.0600 
    218 H218       -5.9649  -20.8303  -51.5691 H         1 UNK         0.0600 
    219 H219       -5.0169  -20.9400  -53.0477 H         1 UNK         0.0600 
    220 H220       -2.9889  -17.2194  -51.5407 H         1 UNK         0.3000 
    221 H221       -1.8275  -16.9934  -54.0745 H         1 UNK         0.0600 
    222 H222       -2.0450  -14.9166  -51.8381 H         1 UNK         0.0600 
    223 H223       -0.7618  -16.1114  -52.0545 H         1 UNK         0.0600 
    224 H224       -0.9450  -14.8046  -53.2058 H         1 UNK         0.0600 
    225 H225       -4.8453  -15.6021  -52.9877 H         1 UNK         0.3000 
    226 H226       -5.2047  -13.5744  -54.9617 H         1 UNK         0.0600 
    227 H227       -6.5621  -13.7059  -52.8893 H         1 UNK         0.0600 
    228 H228       -7.6108  -13.7798  -54.2953 H         1 UNK         0.0600 
    229 H229       -7.2465  -15.2500  -53.4000 H         1 UNK         0.0600 
    230 H230       -5.4385  -17.0691  -55.1356 H         1 UNK         0.3000 
    231 H231       -6.4758  -16.9647  -57.9416 H         1 UNK         0.0600 
    232 H232       -7.2279  -19.2901  -57.5178 H         1 UNK         0.0600 
    233 H233       -7.9462  -18.2180  -56.3281 H         1 UNK         0.0600 
    234 H234       -6.5797  -19.2390  -55.8816 H         1 UNK         0.0600 
    235 H235       -3.6590  -16.7631  -56.4814 H         1 UNK         0.3000 
    236 H236       -1.5619  -17.4272  -56.6308 H         1 UNK         0.0600 
    237 H237       -2.2758  -18.3075  -59.4776 H         1 UNK         0.0600 
    238 H238       -1.8956  -16.6558  -58.9915 H         1 UNK         0.0600 
    239 H239       -0.6706  -17.9075  -58.8805 H         1 UNK         0.0600 
    240 H240       -3.4329  -19.3843  -55.5363 H         1 UNK         0.3000 
    241 H241       -3.7150  -21.4529  -54.8988 H         1 UNK         0.0600 
    242 H242       -4.1526  -20.8522  -57.9150 H         1 UNK         0.3800 
    243 H243       -4.3184  -22.4716  -58.5457 H         1 UNK         0.3800 
    244 H244       -0.7592  -21.9144  -55.5018 H         1 UNK         0.0800 
    245 H245       -1.7677  -23.0294  -54.6207 H         1 UNK         0.0800 
    246 H246        0.9535  -21.6550  -53.7507 H         1 UNK         0.0800 
    247 H247        0.6124  -19.9767  -54.1109 H         1 UNK         0.0800 
@<TRIPOS>BOND
     1    1    2 1    
     2    1  127 1    
     3    1  128 1    
     4    1  129 1    
     5    2    3 2    
     6    2    4 am   BACKBONE|DICT|INTERRES
     7    4    5 1    
     8    4  130 1    
     9    5    6 1    
    10    5   65 1    
    11    5  131 1    
    12    6    7 1    
    13    6  132 1    
    14    6  133 1    
    15    7    8 1    
    16    8    9 1    
    17    8  134 1    
    18    8  135 1    
    19    9   10 ar   
    20    9   14 ar   
    21   10   11 ar   
    22   10  136 1    
    23   11   12 ar   
    24   11  126 1    
    25   12   13 ar   
    26   12  137 1    
    27   13   14 ar   
    28   13   15 1    
    29   14  138 1    
    30   15   16 1    
    31   15  139 1    
    32   15  140 1    
    33   16   17 1    
    34   17   18 1    
    35   17  141 1    
    36   17  142 1    
    37   18   19 1    
    38   18   67 1    
    39   18  143 1    
    40   19   20 am   BACKBONE|DICT|INTERRES
    41   19  144 1    
    42   20   21 2    
    43   20   22 1    
    44   22   23 1    
    45   22   24 1    
    46   22  145 1    
    47   23  146 1    
    48   23  147 1    
    49   23  148 1    
    50   24   25 am   BACKBONE|DICT|INTERRES
    51   24  149 1    
    52   25   26 2    
    53   25   27 1    
    54   27   28 1    
    55   27   29 1    
    56   27  150 1    
    57   28  151 1    
    58   28  152 1    
    59   28  153 1    
    60   29   30 am   BACKBONE|DICT|INTERRES
    61   29  154 1    
    62   30   31 2    
    63   30   32 1    
    64   32   33 1    
    65   32   34 1    
    66   32  155 1    
    67   33  156 1    
    68   33  157 1    
    69   33  158 1    
    70   34   35 am   BACKBONE|DICT|INTERRES
    71   34  159 1    
    72   35   36 2    
    73   35   37 1    
    74   37   38 1    
    75   37   39 1    
    76   37  160 1    
    77   38  161 1    
    78   38  162 1    
    79   38  163 1    
    80   39   40 am   BACKBONE|DICT|INTERRES
    81   39  164 1    
    82   40   41 2    
    83   40   42 1    
    84   42   43 1    
    85   42   44 1    
    86   42  165 1    
    87   43  166 1    
    88   43  167 1    
    89   43  168 1    
    90   44   45 am   BACKBONE|DICT|INTERRES
    91   44  169 1    
    92   45   46 2    
    93   45   47 1    
    94   47   48 1    
    95   47   49 1    
    96   47  170 1    
    97   48  171 1    
    98   48  172 1    
    99   48  173 1    
   100   49   50 am   BACKBONE|DICT|INTERRES
   101   49  174 1    
   102   50   51 2    
   103   50   52 1    
   104   52   53 1    
   105   52   54 1    
   106   52  175 1    
   107   53  176 1    
   108   53  177 1    
   109   53  178 1    
   110   54   55 am   BACKBONE|DICT|INTERRES
   111   54  179 1    
   112   55   56 2    
   113   55   57 1    
   114   57   58 1    
   115   57   59 1    
   116   57  180 1    
   117   58  181 1    
   118   58  182 1    
   119   58  183 1    
   120   59   60 am   BACKBONE|DICT|INTERRES
   121   59  184 1    
   122   60   61 2    
   123   60   62 1    
   124   62   63 1    
   125   62   64 1    
   126   62  185 1    
   127   63  186 1    
   128   63  187 1    
   129   63  188 1    
   130   64   65 am   BACKBONE|DICT|INTERRES
   131   64  189 1    
   132   65   66 2    
   133   67   68 2    
   134   67   69 am   BACKBONE|DICT|INTERRES
   135   69   70 1    
   136   69  190 1    
   137   70   71 1    
   138   70   72 1    
   139   70  191 1    
   140   71  192 1    
   141   71  193 1    
   142   71  194 1    
   143   72   73 2    
   144   72   74 am   BACKBONE|DICT|INTERRES
   145   74   75 1    
   146   74  195 1    
   147   75   76 1    
   148   75   77 1    
   149   75  196 1    
   150   76  197 1    
   151   76  198 1    
   152   76  199 1    
   153   77   78 2    
   154   77   79 am   BACKBONE|DICT|INTERRES
   155   79   80 1    
   156   79  200 1    
   157   80   81 1    
   158   80   82 1    
   159   80  201 1    
   160   81  202 1    
   161   81  203 1    
   162   81  204 1    
   163   82   83 2    
   164   82   84 am   BACKBONE|DICT|INTERRES
   165   84   85 1    
   166   84  205 1    
   167   85   86 1    
   168   85   87 1    
   169   85  206 1    
   170   86  207 1    
   171   86  208 1    
   172   86  209 1    
   173   87   88 2    
   174   87   89 am   BACKBONE|DICT|INTERRES
   175   89   90 1    
   176   89  210 1    
   177   90   91 1    
   178   90   92 1    
   179   90  211 1    
   180   91  212 1    
   181   91  213 1    
   182   91  214 1    
   183   92   93 2    
   184   92   94 am   BACKBONE|DICT|INTERRES
   185   94   95 1    
   186   94  215 1    
   187   95   96 1    
   188   95   97 1    
   189   95  216 1    
   190   96  217 1    
   191   96  218 1    
   192   96  219 1    
   193   97   98 2    
   194   97   99 am   BACKBONE|DICT|INTERRES
   195   99  100 1    
   196   99  220 1    
   197  100  101 1    
   198  100  102 1    
   199  100  221 1    
   200  101  222 1    
   201  101  223 1    
   202  101  224 1    
   203  102  103 2    
   204  102  104 am   BACKBONE|DICT|INTERRES
   205  104  105 1    
   206  104  225 1    
   207  105  106 1    
   208  105  107 1    
   209  105  226 1    
   210  106  227 1    
   211  106  228 1    
   212  106  229 1    
   213  107  108 2    
   214  107  109 am   BACKBONE|DICT|INTERRES
   215  109  110 1    
   216  109  230 1    
   217  110  111 1    
   218  110  112 1    
   219  110  231 1    
   220  111  232 1    
   221  111  233 1    
   222  111  234 1    
   223  112  113 2    
   224  112  114 am   BACKBONE|DICT|INTERRES
   225  114  115 1    
   226  114  235 1    
   227  115  116 1    
   228  115  117 1    
   229  115  236 1    
   230  116  237 1    
   231  116  238 1    
   232  116  239 1    
   233  117  118 2    
   234  117  119 am   BACKBONE|DICT|INTERRES
   235  119  120 1    
   236  119  240 1    
   237  120  121 1    
   238  120  124 1    
   239  120  241 1    
   240  121  122 am   BACKBONE|DICT|INTERRES
   241  121  123 2    
   242  122  242 1    
   243  122  243 1    
   244  124  125 1    
   245  124  244 1    
   246  124  245 1    
   247  125  126 1    
   248  126  246 1    
   249  126  247 1    
@<TRIPOS>SUBSTRUCTURE
     1 UNK         1 GROUP             0       ****    0 ROOT    
