@<TRIPOS>MOLECULE
3R540
247   249    1
SMALL
USER_CHARGES


@<TRIPOS>ATOM
      1 CA          0.3014  -16.4393  -38.7712 C.3       0 UNK        -0.1800 
      2 C           0.2908  -15.2053  -39.6628 C.2       0 UNK         0.5000 
      3 O           1.0475  -14.2651  -39.4184 O.2       0 UNK        -0.5000 
      4 N          -0.5700  -15.2029  -40.6871 N.am      1 UNK        -0.5000 
      5 CA         -0.6606  -14.1612  -41.7141 C.3       1 UNK         0.1400 
      6 C6         -2.0120  -14.2440  -42.4745 C.3       23 UNK        -0.0398 
      7 S7         -2.3234  -15.8565  -43.2716 S.3       23 UNK        -0.2404 
      8 C8         -3.8214  -15.4911  -44.2367 C.3       23 UNK        -0.0205 
      9 C9         -4.0782  -16.6068  -45.2345 C.ar      23 UNK        -0.0193 
     10 C10        -3.5913  -16.5039  -46.5390 C.ar      23 UNK        -0.1150 
     11 C11        -3.7170  -17.5638  -47.4418 C.ar      23 UNK        -0.0193 
     12 C12        -4.3659  -18.7331  -47.0233 C.ar      23 UNK        -0.1150 
     13 C13        -4.8802  -18.8386  -45.7275 C.ar      23 UNK        -0.0193 
     14 C14        -4.7461  -17.7672  -44.8407 C.ar      23 UNK        -0.1150 
     15 C15        -5.5131  -20.1413  -45.2635 C.3       23 UNK        -0.0205 
     16 S16        -4.5482  -20.9634  -43.9480 S.3       23 UNK        -0.2404 
     17 C17        -2.8234  -20.8271  -44.5396 C.3       23 UNK        -0.0398 
     18 CA         -2.4979  -21.7829  -45.7109 C.3       11 UNK         0.1400 
     19 N          -1.3875  -21.2866  -46.5335 N.am      11 UNK        -0.5000 
     20 C          -0.9502  -21.8531  -47.6681 C.2       10 UNK         0.5000 
     21 O          -1.4856  -22.8275  -48.1940 O.2       10 UNK        -0.5000 
     22 CA          0.3327  -21.2800  -48.2890 C.3       10 UNK         0.1400 
     23 CB          0.0138  -20.1068  -49.2250 C.3       10 UNK        -0.1800 
     24 N           1.2792  -20.8664  -47.2533 N.am      10 UNK        -0.5000 
     25 C           2.0318  -21.7255  -46.5490 C.2       9 UNK         0.5000 
     26 O           2.0737  -22.9346  -46.7756 O.2       9 UNK        -0.5000 
     27 CA          2.8426  -21.1509  -45.3709 C.3       9 UNK         0.1400 
     28 CB          4.2372  -20.7118  -45.8395 C.3       9 UNK        -0.1800 
     29 N           2.1694  -20.0291  -44.7122 N.am      9 UNK        -0.5000 
     30 C           1.0365  -20.1454  -44.0015 C.2       8 UNK         0.5000 
     31 O           0.4864  -21.2247  -43.7844 O.2       8 UNK        -0.5000 
     32 CA          0.3691  -18.8499  -43.4916 C.3       8 UNK         0.1400 
     33 CB          0.8085  -18.5559  -42.0512 C.3       8 UNK        -0.1800 
     34 N           0.6340  -17.6764  -44.3242 N.am      8 UNK        -0.5000 
     35 C           0.3779  -17.5795  -45.6364 C.2       7 UNK         0.5000 
     36 O          -0.2214  -18.4477  -46.2718 O.2       7 UNK        -0.5000 
     37 CA          0.9625  -16.3622  -46.3840 C.3       7 UNK         0.1400 
     38 CB         -0.1100  -15.2929  -46.6240 C.3       7 UNK        -0.1800 
     39 N           2.1077  -15.7319  -45.7233 N.am      7 UNK        -0.5000 
     40 C           3.2633  -16.3159  -45.3836 C.2       6 UNK         0.5000 
     41 O           3.5110  -17.5041  -45.5956 O.2       6 UNK        -0.5000 
     42 CA          4.3073  -15.4057  -44.7020 C.3       6 UNK         0.1400 
     43 CB          5.5411  -16.1865  -44.2150 C.3       6 UNK        -0.1800 
     44 N           4.7494  -14.3317  -45.5944 N.am      6 UNK        -0.5000 
     45 C           4.0501  -13.2285  -45.8856 C.2       5 UNK         0.5000 
     46 O           2.9429  -12.9785  -45.4017 O.2       5 UNK        -0.5000 
     47 CA          4.6627  -12.2956  -46.9458 C.3       5 UNK         0.1400 
     48 CB          4.3449  -12.8191  -48.3556 C.3       5 UNK        -0.1800 
     49 N           4.1549  -10.9290  -46.8342 N.am      5 UNK        -0.5000 
     50 C           4.5197  -10.0476  -45.8949 C.2       4 UNK         0.5000 
     51 O           5.3773  -10.2808  -45.0415 O.2       4 UNK        -0.5000 
     52 CA          3.8202   -8.6731  -45.9120 C.3       4 UNK         0.1400 
     53 CB          3.1058   -8.3495  -47.2403 C.3       4 UNK        -0.1800 
     54 N           2.8424   -8.6213  -44.8309 N.am      4 UNK        -0.5000 
     55 C           3.0781   -8.1875  -43.5856 C.2       3 UNK         0.5000 
     56 O           4.1309   -7.6575  -43.2276 O.2       3 UNK        -0.5000 
     57 CA          1.9389   -8.3799  -42.5614 C.3       3 UNK         0.1400 
     58 CB          1.1202   -7.0874  -42.4176 C.3       3 UNK        -0.1800 
     59 N           1.0328   -9.4839  -42.8999 N.am      3 UNK        -0.5000 
     60 C           1.3803  -10.7779  -42.8851 C.2       2 UNK         0.5000 
     61 O           2.4865  -11.1760  -42.5120 O.2       2 UNK        -0.5000 
     62 CA          0.3147  -11.7785  -43.3725 C.3       2 UNK         0.1400 
     63 CB         -0.1530  -11.4479  -44.8022 C.3       2 UNK        -0.1800 
     64 N           0.8897  -13.1220  -43.3924 N.am      2 UNK        -0.5000 
     65 C           0.5597  -14.2022  -42.6740 C.2       1 UNK         0.5000 
     66 O           1.2035  -15.2473  -42.7897 O.2       1 UNK        -0.5000 
     67 C          -2.2505  -23.2214  -45.2101 C.2       11 UNK         0.5000 
     68 O          -3.1387  -24.0666  -45.3202 O.2       11 UNK        -0.5000 
     69 N          -1.0216  -23.4920  -44.7463 N.am      12 UNK        -0.5000 
     70 CA         -0.5396  -24.8173  -44.3455 C.3       12 UNK         0.1400 
     71 CB          0.8541  -24.6729  -43.7163 C.3       12 UNK        -0.1800 
     72 C          -0.5117  -25.8437  -45.4983 C.2       12 UNK         0.5000 
     73 O          -0.6007  -27.0443  -45.2412 O.2       12 UNK        -0.5000 
     74 N          -0.4321  -25.3545  -46.7426 N.am      13 UNK        -0.5000 
     75 CA         -0.5429  -26.1297  -47.9777 C.3       13 UNK         0.1400 
     76 CB          0.4462  -25.5584  -49.0100 C.3       13 UNK        -0.1800 
     77 C          -1.9883  -26.1518  -48.5234 C.2       13 UNK         0.5000 
     78 O          -2.1777  -26.4397  -49.7051 O.2       13 UNK        -0.5000 
     79 N          -2.9804  -25.8327  -47.6770 N.am      14 UNK        -0.5000 
     80 CA         -4.4191  -25.7855  -47.9610 C.3       14 UNK         0.1400 
     81 CB         -4.9585  -27.1881  -48.3144 C.3       14 UNK        -0.1800 
     82 C          -4.7796  -24.7162  -49.0106 C.2       14 UNK         0.5000 
     83 O          -5.5308  -24.9946  -49.9441 O.2       14 UNK        -0.5000 
     84 N          -4.2021  -23.5172  -48.8512 N.am      15 UNK        -0.5000 
     85 CA         -4.2716  -22.3721  -49.7674 C.3       15 UNK         0.1400 
     86 CB         -5.7066  -21.8151  -49.8701 C.3       15 UNK        -0.1800 
     87 C          -3.6390  -22.7011  -51.1345 C.2       15 UNK         0.5000 
     88 O          -4.2002  -22.3678  -52.1804 O.2       15 UNK        -0.5000 
     89 N          -2.4818  -23.3785  -51.0813 N.am      16 UNK        -0.5000 
     90 CA         -1.7319  -23.9477  -52.2056 C.3       16 UNK         0.1400 
     91 CB         -1.1084  -22.8294  -53.0645 C.3       16 UNK        -0.1800 
     92 C          -2.5857  -24.9480  -53.0153 C.2       16 UNK         0.5000 
     93 O          -2.8121  -24.7592  -54.2117 O.2       16 UNK        -0.5000 
     94 N          -3.0777  -25.9797  -52.3138 N.am      17 UNK        -0.5000 
     95 CA         -3.9603  -27.0494  -52.7951 C.3       17 UNK         0.1400 
     96 CB         -3.2132  -27.9605  -53.7908 C.3       17 UNK        -0.1800 
     97 C          -5.3059  -26.5330  -53.3503 C.2       17 UNK         0.5000 
     98 O          -5.8670  -27.1347  -54.2683 O.2       17 UNK        -0.5000 
     99 N          -5.7870  -25.4178  -52.7839 N.am      18 UNK        -0.5000 
    100 CA        -6.9975  -24.6450  -53.0774 C.3       18 UNK         0.1400 
    101 CB        -8.2634  -25.4713  -52.7873 C.3       18 UNK        -0.1800 
    102 C         -7.0534  -24.0200  -54.4847 C.2       18 UNK         0.5000 
    103 O         -7.3795  -22.8394  -54.6068 O.2       18 UNK        -0.5000 
    104 N         -6.7467  -24.8124  -55.5178 N.am      19 UNK        -0.5000 
    105 CA        -6.8645  -24.4750  -56.9361 C.3       19 UNK         0.1400 
    106 CB        -6.5586  -25.7272  -57.7717 C.3       19 UNK        -0.1800 
    107 C         -5.9800  -23.2990  -57.3853 C.2       19 UNK         0.5000 
    108 O         -6.3902  -22.5427  -58.2668 O.2       19 UNK        -0.5000 
    109 N         -4.7959  -23.1549  -56.7743 N.am      20 UNK        -0.5000 
    110 CA        -3.8703  -22.0559  -57.0547 C.3       20 UNK         0.1400 
    111 CB        -2.4327  -22.5160  -56.7748 C.3       20 UNK        -0.1800 
    112 C         -4.1989  -20.7740  -56.2651 C.2       20 UNK         0.5000 
    113 O         -3.6179  -19.7324  -56.5714 O.2       20 UNK        -0.5000 
    114 N         -5.0961  -20.8622  -55.2680 N.am      21 UNK        -0.5000 
    115 CA        -5.5808  -19.7773  -54.4037 C.3       21 UNK         0.1400 
    116 CB        -6.5655  -18.8852  -55.1859 C.3       21 UNK        -0.1800 
    117 C         -4.4347  -18.9781  -53.7470 C.2       21 UNK         0.5000 
    118 O         -4.3726  -17.7537  -53.8721 O.2       21 UNK        -0.5000 
    119 N         -3.5187  -19.7157  -53.1099 N.am      22 UNK        -0.5000 
    120 CA        -2.2497  -19.2469  -52.5253 C.3       22 UNK         0.1400 
    121 C         -1.1501  -18.8463  -53.5567 C.2       22 UNK         0.5000 
    122 N         -1.3598  -18.9629  -54.8621 N.am      22 UNK        -0.7600 
    123 O         -0.0563  -18.4525  -53.1621 O.2       22 UNK        -0.5000 
    124 C124       -2.4226  -18.1623  -51.4246 C.3       23 UNK        -0.0398 
    125 S125       -3.4857  -18.7002  -50.0460 S.3       23 UNK        -0.2404 
    126 C126       -3.0825  -17.4061  -48.8240 C.3       23 UNK        -0.0205 
    127 H127        0.1095  -16.1575  -37.7359 H         1 UNK         0.0600 
    128 H128        1.2751  -16.9268  -38.8193 H         1 UNK         0.0600 
    129 H129       -0.4561  -17.1635  -39.0722 H         1 UNK         0.0600 
    130 H130       -1.1470  -16.0142  -40.8555 H         1 UNK         0.3000 
    131 H131       -0.6347  -13.2133  -41.1754 H         1 UNK         0.0600 
    132 H132       -2.8301  -14.0503  -41.7795 H         1 UNK         0.0800 
    133 H133       -2.0781  -13.4619  -43.2315 H         1 UNK         0.0800 
    134 H134       -4.6735  -15.3783  -43.5648 H         1 UNK         0.0800 
    135 H135       -3.7041  -14.5403  -44.7589 H         1 UNK         0.0800 
    136 H136       -3.0825  -15.6007  -46.8414 H         1 UNK         0.1150 
    137 H137       -4.4525  -19.5791  -47.6881 H         1 UNK         0.1150 
    138 H138       -5.1116  -17.8597  -43.8276 H         1 UNK         0.1150 
    139 H139       -6.5184  -19.9391  -44.8918 H         1 UNK         0.0800 
    140 H140       -5.6318  -20.8330  -46.0990 H         1 UNK         0.0800 
    141 H141       -2.1645  -21.0084  -43.6894 H         1 UNK         0.0800 
    142 H142       -2.6282  -19.7937  -44.8258 H         1 UNK         0.0800 
    143 H143       -3.3634  -21.8165  -46.3751 H         1 UNK         0.0600 
    144 H144       -0.9146  -20.4509  -46.2094 H         1 UNK         0.3000 
    145 H145        0.7931  -22.0670  -48.8902 H         1 UNK         0.0600 
    146 H146        0.9188  -19.7034  -49.6790 H         1 UNK         0.0600 
    147 H147       -0.6389  -20.4328  -50.0344 H         1 UNK         0.0600 
    148 H148       -0.4937  -19.2949  -48.7060 H         1 UNK         0.0600 
    149 H149        1.2444  -19.8958  -46.9696 H         1 UNK         0.3000 
    150 H150        2.9679  -21.9475  -44.6345 H         1 UNK         0.0600 
    151 H151        4.7869  -21.5517  -46.2662 H         1 UNK         0.0600 
    152 H152        4.8286  -20.3218  -45.0109 H         1 UNK         0.0600 
    153 H153        4.1794  -19.9362  -46.6041 H         1 UNK         0.0600 
    154 H154        2.5615  -19.1064  -44.8771 H         1 UNK         0.3000 
    155 H155       -0.7097  -19.0096  -43.4915 H         1 UNK         0.0600 
    156 H156        0.6281  -19.4129  -41.4009 H         1 UNK         0.0600 
    157 H157        0.2523  -17.7154  -41.6400 H         1 UNK         0.0600 
    158 H158        1.8706  -18.3144  -41.9958 H         1 UNK         0.0600 
    159 H159        1.0710  -16.8836  -43.8626 H         1 UNK         0.3000 
    160 H160        1.3116  -16.7189  -47.3549 H         1 UNK         0.0600 
    161 H161       -0.5717  -14.9660  -45.6915 H         1 UNK         0.0600 
    162 H162       -0.8935  -15.6827  -47.2709 H         1 UNK         0.0600 
    163 H163        0.3055  -14.4147  -47.1188 H         1 UNK         0.0600 
    164 H164        2.0243  -14.7403  -45.5305 H         1 UNK         0.3000 
    165 H165        3.8299  -14.9625  -43.8253 H         1 UNK         0.0600 
    166 H166        6.2361  -15.5348  -43.6854 H         1 UNK         0.0600 
    167 H167        5.2527  -16.9806  -43.5248 H         1 UNK         0.0600 
    168 H168        6.0791  -16.6499  -45.0430 H         1 UNK         0.0600 
    169 H169        5.6288  -14.4864  -46.0663 H         1 UNK         0.3000 
    170 H170        5.7466  -12.2787  -46.8130 H         1 UNK         0.0600 
    171 H171        4.7391  -13.8258  -48.5004 H         1 UNK         0.0600 
    172 H172        3.2698  -12.8599  -48.5367 H         1 UNK         0.0600 
    173 H173        4.7908  -12.1850  -49.1221 H         1 UNK         0.0600 
    174 H174        3.4219  -10.6712  -47.4779 H         1 UNK         0.3000 
    175 H175        4.5911   -7.9153  -45.7569 H         1 UNK         0.0600 
    176 H176        2.7114   -7.3332  -47.2279 H         1 UNK         0.0600 
    177 H177        3.7943   -8.4136  -48.0841 H         1 UNK         0.0600 
    178 H178        2.2690   -9.0214  -47.4355 H         1 UNK         0.0600 
    179 H179        1.9524   -9.0597  -45.0127 H         1 UNK         0.3000 
    180 H180        2.3995   -8.6009  -41.5961 H         1 UNK         0.0600 
    181 H181        0.6202   -6.8214  -43.3498 H         1 UNK         0.0600 
    182 H182        1.7599   -6.2493  -42.1378 H         1 UNK         0.0600 
    183 H183        0.3594   -7.1858  -41.6431 H         1 UNK         0.0600 
    184 H184        0.1026   -9.2245  -43.1958 H         1 UNK         0.3000 
    185 H185       -0.5406  -11.6980  -42.7042 H         1 UNK         0.0600 
    186 H186       -0.6755  -10.4919  -44.8433 H         1 UNK         0.0600 
    187 H187        0.6845  -11.3973  -45.4993 H         1 UNK         0.0600 
    188 H188       -0.8445  -12.2045  -45.1739 H         1 UNK         0.0600 
    189 H189        1.7278  -13.1686  -43.9644 H         1 UNK         0.3000 
    190 H190       -0.3690  -22.7216  -44.6269 H         1 UNK         0.3000 
    191 H191       -1.2211  -25.2007  -43.5835 H         1 UNK         0.0600 
    192 H192        1.5782  -24.2801  -44.4303 H         1 UNK         0.0600 
    193 H193        0.8322  -24.0008  -42.8582 H         1 UNK         0.0600 
    194 H194        1.2273  -25.6360  -43.3658 H         1 UNK         0.0600 
    195 H195       -0.3814  -24.3515  -46.8599 H         1 UNK         0.3000 
    196 H196       -0.2607  -27.1666  -47.7859 H         1 UNK         0.0600 
    197 H197        1.4596  -25.5290  -48.6091 H         1 UNK         0.0600 
    198 H198        0.1795  -24.5462  -49.3124 H         1 UNK         0.0600 
    199 H199        0.4735  -26.1727  -49.9108 H         1 UNK         0.0600 
    200 H200       -2.7276  -25.5387  -46.7408 H         1 UNK         0.3000 
    201 H201       -4.9033  -25.4742  -47.0344 H         1 UNK         0.0600 
    202 H202       -6.0458  -27.1768  -48.3988 H         1 UNK         0.0600 
    203 H203       -4.7011  -27.9147  -47.5439 H         1 UNK         0.0600 
    204 H204       -4.5634  -27.5510  -49.2635 H         1 UNK         0.0600 
    205 H205       -3.5133  -23.4289  -48.1143 H         1 UNK         0.3000 
    206 H206       -3.6517  -21.5913  -49.3269 H         1 UNK         0.0600 
    207 H207       -6.1022  -21.5662  -48.8856 H         1 UNK         0.0600 
    208 H208       -6.3897  -22.5236  -50.3378 H         1 UNK         0.0600 
    209 H209       -5.7270  -20.9026  -50.4672 H         1 UNK         0.0600 
    210 H210       -2.1157  -23.5842  -50.1594 H         1 UNK         0.3000 
    211 H211       -0.9120  -24.5236  -51.7739 H         1 UNK         0.0600 
    212 H212       -0.4464  -22.2010  -52.4690 H         1 UNK         0.0600 
    213 H213       -0.5135  -23.2472  -53.8773 H         1 UNK         0.0600 
    214 H214       -1.8671  -22.1877  -53.5105 H         1 UNK         0.0600 
    215 H215       -2.8153  -26.0548  -51.3310 H         1 UNK         0.3000 
    216 H216       -4.2080  -27.6505  -51.9192 H         1 UNK         0.0600 
    217 H217       -3.8099  -28.8376  -54.0437 H         1 UNK         0.0600 
    218 H218       -2.9851  -27.4408  -54.7219 H         1 UNK         0.0600 
    219 H219       -2.2750  -28.3197  -53.3680 H         1 UNK         0.0600 
    220 H220       -5.2597  -25.0541  -51.9978 H         1 UNK         0.3000 
    221 H221       -6.9828  -23.8130  -52.3718 H         1 UNK         0.0600 
    222 H222       -8.3475  -26.3351  -53.4472 H         1 UNK         0.0600 
    223 H223       -8.2671  -25.8329  -51.7589 H         1 UNK         0.0600 
    224 H224       -9.1616  -24.8679  -52.9233 H         1 UNK         0.0600 
    225 H225       -6.4641  -25.7644  -55.2936 H         1 UNK         0.3000 
    226 H226       -7.9025  -24.1890  -57.1177 H         1 UNK         0.0600 
    227 H227       -7.2463  -26.5386  -57.5324 H         1 UNK         0.0600 
    228 H228       -6.6580  -25.5213  -58.8383 H         1 UNK         0.0600 
    229 H229       -5.5434  -26.0865  -57.5982 H         1 UNK         0.0600 
    230 H230       -4.5245  -23.8132  -56.0554 H         1 UNK         0.3000 
    231 H231       -3.9292  -21.8026  -58.1154 H         1 UNK         0.0600 
    232 H232       -1.7130  -21.7461  -57.0556 H         1 UNK         0.0600 
    233 H233       -2.1859  -23.4145  -57.3403 H         1 UNK         0.0600 
    234 H234       -2.2817  -22.7313  -55.7199 H         1 UNK         0.0600 
    235 H235       -5.5290  -21.7620  -55.1009 H         1 UNK         0.3000 
    236 H236       -6.1335  -20.2513  -53.5908 H         1 UNK         0.0600 
    237 H237       -7.3878  -19.4735  -55.5935 H         1 UNK         0.0600 
    238 H238       -7.0012  -18.1226  -54.5394 H         1 UNK         0.0600 
    239 H239       -6.0759  -18.3738  -56.0154 H         1 UNK         0.0600 
    240 H240       -3.6908  -20.7144  -53.0315 H         1 UNK         0.3000 
    241 H241       -1.8408  -20.1286  -52.0341 H         1 UNK         0.0600 
    242 H242       -0.6210  -18.7071  -55.4970 H         1 UNK         0.3800 
    243 H243       -2.2587  -19.2441  -55.2388 H         1 UNK         0.3800 
    244 H244       -1.4503  -17.9000  -51.0041 H         1 UNK         0.0800 
    245 H245       -2.8265  -17.2399  -51.8429 H         1 UNK         0.0800 
    246 H246       -2.0004  -17.3772  -48.6919 H         1 UNK         0.0800 
    247 H247       -3.3735  -16.4407  -49.2407 H         1 UNK         0.0800 
@<TRIPOS>BOND
     1    1    2 1    
     2    1  127 1    
     3    1  128 1    
     4    1  129 1    
     5    2    3 2    
     6    2    4 am   BACKBONE|DICT|INTERRES
     7    4    5 1    
     8    4  130 1    
     9    5    6 1    
    10    5   65 1    
    11    5  131 1    
    12    6    7 1    
    13    6  132 1    
    14    6  133 1    
    15    7    8 1    
    16    8    9 1    
    17    8  134 1    
    18    8  135 1    
    19    9   10 ar   
    20    9   14 ar   
    21   10   11 ar   
    22   10  136 1    
    23   11   12 ar   
    24   11  126 1    
    25   12   13 ar   
    26   12  137 1    
    27   13   14 ar   
    28   13   15 1    
    29   14  138 1    
    30   15   16 1    
    31   15  139 1    
    32   15  140 1    
    33   16   17 1    
    34   17   18 1    
    35   17  141 1    
    36   17  142 1    
    37   18   19 1    
    38   18   67 1    
    39   18  143 1    
    40   19   20 am   BACKBONE|DICT|INTERRES
    41   19  144 1    
    42   20   21 2    
    43   20   22 1    
    44   22   23 1    
    45   22   24 1    
    46   22  145 1    
    47   23  146 1    
    48   23  147 1    
    49   23  148 1    
    50   24   25 am   BACKBONE|DICT|INTERRES
    51   24  149 1    
    52   25   26 2    
    53   25   27 1    
    54   27   28 1    
    55   27   29 1    
    56   27  150 1    
    57   28  151 1    
    58   28  152 1    
    59   28  153 1    
    60   29   30 am   BACKBONE|DICT|INTERRES
    61   29  154 1    
    62   30   31 2    
    63   30   32 1    
    64   32   33 1    
    65   32   34 1    
    66   32  155 1    
    67   33  156 1    
    68   33  157 1    
    69   33  158 1    
    70   34   35 am   BACKBONE|DICT|INTERRES
    71   34  159 1    
    72   35   36 2    
    73   35   37 1    
    74   37   38 1    
    75   37   39 1    
    76   37  160 1    
    77   38  161 1    
    78   38  162 1    
    79   38  163 1    
    80   39   40 am   BACKBONE|DICT|INTERRES
    81   39  164 1    
    82   40   41 2    
    83   40   42 1    
    84   42   43 1    
    85   42   44 1    
    86   42  165 1    
    87   43  166 1    
    88   43  167 1    
    89   43  168 1    
    90   44   45 am   BACKBONE|DICT|INTERRES
    91   44  169 1    
    92   45   46 2    
    93   45   47 1    
    94   47   48 1    
    95   47   49 1    
    96   47  170 1    
    97   48  171 1    
    98   48  172 1    
    99   48  173 1    
   100   49   50 am   BACKBONE|DICT|INTERRES
   101   49  174 1    
   102   50   51 2    
   103   50   52 1    
   104   52   53 1    
   105   52   54 1    
   106   52  175 1    
   107   53  176 1    
   108   53  177 1    
   109   53  178 1    
   110   54   55 am   BACKBONE|DICT|INTERRES
   111   54  179 1    
   112   55   56 2    
   113   55   57 1    
   114   57   58 1    
   115   57   59 1    
   116   57  180 1    
   117   58  181 1    
   118   58  182 1    
   119   58  183 1    
   120   59   60 am   BACKBONE|DICT|INTERRES
   121   59  184 1    
   122   60   61 2    
   123   60   62 1    
   124   62   63 1    
   125   62   64 1    
   126   62  185 1    
   127   63  186 1    
   128   63  187 1    
   129   63  188 1    
   130   64   65 am   BACKBONE|DICT|INTERRES
   131   64  189 1    
   132   65   66 2    
   133   67   68 2    
   134   67   69 am   BACKBONE|DICT|INTERRES
   135   69   70 1    
   136   69  190 1    
   137   70   71 1    
   138   70   72 1    
   139   70  191 1    
   140   71  192 1    
   141   71  193 1    
   142   71  194 1    
   143   72   73 2    
   144   72   74 am   BACKBONE|DICT|INTERRES
   145   74   75 1    
   146   74  195 1    
   147   75   76 1    
   148   75   77 1    
   149   75  196 1    
   150   76  197 1    
   151   76  198 1    
   152   76  199 1    
   153   77   78 2    
   154   77   79 am   BACKBONE|DICT|INTERRES
   155   79   80 1    
   156   79  200 1    
   157   80   81 1    
   158   80   82 1    
   159   80  201 1    
   160   81  202 1    
   161   81  203 1    
   162   81  204 1    
   163   82   83 2    
   164   82   84 am   BACKBONE|DICT|INTERRES
   165   84   85 1    
   166   84  205 1    
   167   85   86 1    
   168   85   87 1    
   169   85  206 1    
   170   86  207 1    
   171   86  208 1    
   172   86  209 1    
   173   87   88 2    
   174   87   89 am   BACKBONE|DICT|INTERRES
   175   89   90 1    
   176   89  210 1    
   177   90   91 1    
   178   90   92 1    
   179   90  211 1    
   180   91  212 1    
   181   91  213 1    
   182   91  214 1    
   183   92   93 2    
   184   92   94 am   BACKBONE|DICT|INTERRES
   185   94   95 1    
   186   94  215 1    
   187   95   96 1    
   188   95   97 1    
   189   95  216 1    
   190   96  217 1    
   191   96  218 1    
   192   96  219 1    
   193   97   98 2    
   194   97   99 am   BACKBONE|DICT|INTERRES
   195   99  100 1    
   196   99  220 1    
   197  100  101 1    
   198  100  102 1    
   199  100  221 1    
   200  101  222 1    
   201  101  223 1    
   202  101  224 1    
   203  102  103 2    
   204  102  104 am   BACKBONE|DICT|INTERRES
   205  104  105 1    
   206  104  225 1    
   207  105  106 1    
   208  105  107 1    
   209  105  226 1    
   210  106  227 1    
   211  106  228 1    
   212  106  229 1    
   213  107  108 2    
   214  107  109 am   BACKBONE|DICT|INTERRES
   215  109  110 1    
   216  109  230 1    
   217  110  111 1    
   218  110  112 1    
   219  110  231 1    
   220  111  232 1    
   221  111  233 1    
   222  111  234 1    
   223  112  113 2    
   224  112  114 am   BACKBONE|DICT|INTERRES
   225  114  115 1    
   226  114  235 1    
   227  115  116 1    
   228  115  117 1    
   229  115  236 1    
   230  116  237 1    
   231  116  238 1    
   232  116  239 1    
   233  117  118 2    
   234  117  119 am   BACKBONE|DICT|INTERRES
   235  119  120 1    
   236  119  240 1    
   237  120  121 1    
   238  120  124 1    
   239  120  241 1    
   240  121  122 am   BACKBONE|DICT|INTERRES
   241  121  123 2    
   242  122  242 1    
   243  122  243 1    
   244  124  125 1    
   245  124  244 1    
   246  124  245 1    
   247  125  126 1    
   248  126  246 1    
   249  126  247 1    
@<TRIPOS>SUBSTRUCTURE
     1 UNK         1 GROUP             0       ****    0 ROOT    
