@<TRIPOS>MOLECULE
3R540
247   249    1
SMALL
USER_CHARGES


@<TRIPOS>ATOM
      1 CA         -1.4667  -13.2559  -51.6424 C.3       0 UNK        -0.1800 
      2 C          -1.0927  -13.3831  -50.1730 C.2       0 UNK         0.5000 
      3 O          -1.8998  -13.8594  -49.3764 O.2       0 UNK        -0.5000 
      4 N           0.1267  -12.9567  -49.8155 N.am      1 UNK        -0.5000 
      5 CA          0.6893  -12.9704  -48.4559 C.3       1 UNK         0.1400 
      6 C6          0.8905  -14.3938  -47.8629 C.3       23 UNK        -0.0398 
      7 S7          1.9081  -15.4940  -48.9046 S.3       23 UNK        -0.2404 
      8 C8          0.6509  -16.6854  -49.4561 C.3       23 UNK        -0.0205 
      9 C9          1.2652  -17.8351  -50.2364 C.ar      23 UNK        -0.0193 
     10 C10         1.6326  -17.6591  -51.5723 C.ar      23 UNK        -0.1150 
     11 C11         2.1662  -18.7208  -52.3092 C.ar      23 UNK        -0.0193 
     12 C12         2.3245  -19.9688  -51.6992 C.ar      23 UNK        -0.1150 
     13 C13         1.9520  -20.1603  -50.3649 C.ar      23 UNK        -0.0193 
     14 C14         1.4388  -19.0841  -49.6345 C.ar      23 UNK        -0.1150 
     15 C15         2.0986  -21.5324  -49.7228 C.3       23 UNK        -0.0205 
     16 S16         0.5794  -22.5239  -49.9054 S.3       23 UNK        -0.2404 
     17 C17        -0.3811  -21.9995  -48.4464 C.3       23 UNK        -0.0398 
     18 CA         -0.4561  -23.1141  -47.3681 C.3       11 UNK         0.1400 
     19 N          -0.1569  -22.6193  -46.0181 N.am      11 UNK        -0.5000 
     20 C          -0.0254  -23.3929  -44.9294 C.2       10 UNK         0.5000 
     21 O          -0.1322  -24.6181  -44.9462 O.2       10 UNK        -0.5000 
     22 CA          0.2004  -22.6800  -43.5854 C.3       10 UNK         0.1400 
     23 CB          1.6645  -22.2432  -43.4311 C.3       10 UNK        -0.1800 
     24 N          -0.6897  -21.5315  -43.4211 N.am      10 UNK        -0.5000 
     25 C          -2.0235  -21.6229  -43.3177 C.2       9 UNK         0.5000 
     26 O          -2.6269  -22.6935  -43.2448 O.2       9 UNK        -0.5000 
     27 CA         -2.8211  -20.3043  -43.3497 C.3       9 UNK         0.1400 
     28 CB         -2.9004  -19.6800  -41.9495 C.3       9 UNK        -0.1800 
     29 N          -2.2739  -19.3267  -44.2938 N.am      9 UNK        -0.5000 
     30 C          -2.1906  -19.5143  -45.6191 C.2       8 UNK         0.5000 
     31 O          -2.5976  -20.5213  -46.1967 O.2       8 UNK        -0.5000 
     32 CA         -1.4687  -18.4250  -46.4295 C.3       8 UNK         0.1400 
     33 CB         -2.4008  -17.2396  -46.7265 C.3       8 UNK        -0.1800 
     34 N          -0.2551  -17.9636  -45.7529 N.am      8 UNK        -0.5000 
     35 C           0.8357  -18.7246  -45.5760 C.2       7 UNK         0.5000 
     36 O           0.9480  -19.8655  -46.0225 O.2       7 UNK        -0.5000 
     37 CA          1.9667  -18.1380  -44.7156 C.3       7 UNK         0.1400 
     38 CB          2.8728  -17.2284  -45.5568 C.3       7 UNK        -0.1800 
     39 N           1.4526  -17.4024  -43.5595 N.am      7 UNK        -0.5000 
     40 C           0.8578  -17.9867  -42.5074 C.2       6 UNK         0.5000 
     41 O           0.7280  -19.2046  -42.3958 O.2       6 UNK        -0.5000 
     42 CA          0.2713  -17.0706  -41.4133 C.3       6 UNK         0.1400 
     43 CB          1.3118  -16.8183  -40.3126 C.3       6 UNK        -0.1800 
     44 N          -0.2081  -15.7860  -41.9212 N.am      6 UNK        -0.5000 
     45 C          -1.1522  -15.6259  -42.8585 C.2       5 UNK         0.5000 
     46 O          -1.8094  -16.5570  -43.3257 O.2       5 UNK        -0.5000 
     47 CA         -1.3527  -14.1994  -43.4120 C.3       5 UNK         0.1400 
     48 CB         -2.5961  -13.5504  -42.7873 C.3       5 UNK        -0.1800 
     49 N          -0.2050  -13.2962  -43.2429 N.am      5 UNK        -0.5000 
     50 C           1.0370  -13.5154  -43.6992 C.2       4 UNK         0.5000 
     51 O           1.3889  -14.5652  -44.2396 O.2       4 UNK        -0.5000 
     52 CA          2.0313  -12.3576  -43.5373 C.3       4 UNK         0.1400 
     53 CB          3.4432  -12.7023  -44.0524 C.3       4 UNK        -0.1800 
     54 N           1.5241  -11.1797  -44.2383 N.am      4 UNK        -0.5000 
     55 C           1.7976   -9.9124  -43.8989 C.2       3 UNK         0.5000 
     56 O           2.4386   -9.6114  -42.8907 O.2       3 UNK        -0.5000 
     57 CA          1.3147   -8.7839  -44.8354 C.3       3 UNK         0.1400 
     58 CB          2.5137   -7.9990  -45.3942 C.3       3 UNK        -0.1800 
     59 N           0.5214   -9.2690  -45.9653 N.am      3 UNK        -0.5000 
     60 C          -0.8124   -9.3826  -45.9776 C.2       2 UNK         0.5000 
     61 O          -1.5360   -9.0659  -45.0329 O.2       2 UNK        -0.5000 
     62 CA         -1.4444   -9.9684  -47.2582 C.3       2 UNK         0.1400 
     63 CB         -1.8780   -8.8411  -48.2075 C.3       2 UNK        -0.1800 
     64 N          -0.5833  -10.9054  -47.9920 N.am      2 UNK        -0.5000 
     65 C          -0.1044  -12.0550  -47.4934 C.2       1 UNK         0.5000 
     66 O          -0.2710  -12.3902  -46.3221 O.2       1 UNK        -0.5000 
     67 C          -1.8029  -23.8627  -47.4390 C.2       11 UNK         0.5000 
     68 O          -1.8897  -24.8912  -48.1104 O.2       11 UNK        -0.5000 
     69 N          -2.8136  -23.3619  -46.7131 N.am      12 UNK        -0.5000 
     70 CA         -4.1412  -23.9681  -46.5858 C.3       12 UNK         0.1400 
     71 CB         -5.0533  -23.0563  -45.7490 C.3       12 UNK        -0.1800 
     72 C          -4.1106  -25.3857  -45.9834 C.2       12 UNK         0.5000 
     73 O          -4.9164  -26.2271  -46.3806 O.2       12 UNK        -0.5000 
     74 N          -3.1777  -25.6234  -45.0533 N.am      13 UNK        -0.5000 
     75 CA         -2.9471  -26.9249  -44.4346 C.3       13 UNK         0.1400 
     76 CB         -2.3762  -26.7171  -43.0226 C.3       13 UNK        -0.1800 
     77 C          -2.0073  -27.8023  -45.2799 C.2       13 UNK         0.5000 
     78 O          -2.2939  -28.9840  -45.4754 O.2       13 UNK        -0.5000 
     79 N          -0.8903  -27.2206  -45.7373 N.am      14 UNK        -0.5000 
     80 CA          0.2013  -27.9317  -46.4017 C.3       14 UNK         0.1400 
     81 CB          1.4640  -27.0559  -46.3777 C.3       14 UNK        -0.1800 
     82 C          -0.1169  -28.3660  -47.8418 C.2       14 UNK         0.5000 
     83 O           0.2583  -29.4741  -48.2287 O.2       14 UNK        -0.5000 
     84 N          -0.7688  -27.4867  -48.6112 N.am      15 UNK        -0.5000 
     85 CA         -1.0479  -27.6802  -50.0347 C.3       15 UNK         0.1400 
     86 CB         -0.3612  -26.5606  -50.8364 C.3       15 UNK        -0.1800 
     87 C          -2.5551  -27.6966  -50.3242 C.2       15 UNK         0.5000 
     88 O          -3.0005  -28.5279  -51.1167 O.2       15 UNK        -0.5000 
     89 N          -3.2944  -26.7795  -49.6812 N.am      16 UNK        -0.5000 
     90 CA         -4.7004  -26.4220  -49.9041 C.3       16 UNK         0.1400 
     91 CB         -5.6381  -27.6379  -49.7680 C.3       16 UNK        -0.1800 
     92 C          -4.9171  -25.6750  -51.2364 C.2       16 UNK         0.5000 
     93 O          -4.1056  -25.7804  -52.1582 O.2       16 UNK        -0.5000 
     94 N          -6.0020  -24.8887  -51.2973 N.am      17 UNK        -0.5000 
     95 CA         -6.4834  -24.0578  -52.4170 C.3       17 UNK         0.1400 
     96 CB         -6.8250  -24.9254  -53.6434 C.3       17 UNK        -0.1800 
     97 C          -5.5729  -22.8746  -52.8185 C.2       17 UNK         0.5000 
     98 O          -6.0877  -21.8314  -53.2196 O.2       17 UNK        -0.5000 
     99 N          -4.2511  -23.0396  -52.6911 N.am      18 UNK        -0.5000 
    100 CA        -3.2148  -22.0502  -52.9921 C.3       18 UNK         0.1400 
    101 CB        -1.8469  -22.7486  -52.9397 C.3       18 UNK        -0.1800 
    102 C         -3.2209  -20.8303  -52.0520 C.2       18 UNK         0.5000 
    103 O         -2.7275  -19.7724  -52.4430 O.2       18 UNK        -0.5000 
    104 N         -3.7744  -21.0014  -50.8433 N.am      19 UNK        -0.5000 
    105 CA        -3.8888  -20.0172  -49.7663 C.3       19 UNK         0.1400 
    106 CB        -4.7217  -20.6384  -48.6378 C.3       19 UNK        -0.1800 
    107 C         -4.4903  -18.6755  -50.2257 C.2       19 UNK         0.5000 
    108 O         -5.7021  -18.5803  -50.4230 O.2       19 UNK        -0.5000 
    109 N         -3.6076  -17.6885  -50.4292 N.am      20 UNK        -0.5000 
    110 CA        -3.8580  -16.3239  -50.9116 C.3       20 UNK         0.1400 
    111 CB        -4.8129  -15.5634  -49.9698 C.3       20 UNK        -0.1800 
    112 C         -4.2920  -16.2150  -52.3911 C.2       20 UNK         0.5000 
    113 O         -4.4381  -15.0982  -52.8897 O.2       20 UNK        -0.5000 
    114 N         -4.4588  -17.3501  -53.0812 N.am      21 UNK        -0.5000 
    115 CA        -4.6905  -17.4253  -54.5239 C.3       21 UNK         0.1400 
    116 CB        -5.4721  -18.7090  -54.8424 C.3       21 UNK        -0.1800 
    117 C         -3.3564  -17.3980  -55.2897 C.2       21 UNK         0.5000 
    118 O         -3.2676  -16.7838  -56.3532 O.2       21 UNK        -0.5000 
    119 N         -2.3446  -18.0584  -54.7165 N.am      22 UNK        -0.5000 
    120 CA        -0.9428  -18.0458  -55.1390 C.3       22 UNK         0.1400 
    121 C         -0.3041  -16.6417  -54.9424 C.2       22 UNK         0.5000 
    122 N          0.4357  -16.1424  -55.9232 N.am      22 UNK        -0.7600 
    123 O         -0.4500  -16.0153  -53.8957 O.2       22 UNK        -0.5000 
    124 C124       -0.1875  -19.1476  -54.3589 C.3       23 UNK        -0.0398 
    125 S125        1.5143  -19.4939  -54.9267 S.3       23 UNK        -0.2404 
    126 C126        2.5417  -18.5190  -53.7720 C.3       23 UNK        -0.0205 
    127 H127       -1.5133  -14.2413  -52.1045 H         1 UNK         0.0600 
    128 H128       -0.7432  -12.6561  -52.1948 H         1 UNK         0.0600 
    129 H129       -2.4453  -12.7864  -51.7432 H         1 UNK         0.0600 
    130 H130        0.7419  -12.5911  -50.5288 H         1 UNK         0.3000 
    131 H131        1.6773  -12.5155  -48.5393 H         1 UNK         0.0600 
    132 H132        1.3989  -14.3229  -46.9006 H         1 UNK         0.0800 
    133 H133       -0.0714  -14.8631  -47.6533 H         1 UNK         0.0800 
    134 H134       -0.0884  -16.1771  -50.0761 H         1 UNK         0.0800 
    135 H135        0.1172  -17.0693  -48.5873 H         1 UNK         0.0800 
    136 H136        1.4910  -16.6943  -52.0394 H         1 UNK         0.1150 
    137 H137        2.7191  -20.7963  -52.2720 H         1 UNK         0.1150 
    138 H138        1.1618  -19.2193  -48.6002 H         1 UNK         0.1150 
    139 H139        2.9231  -22.0707  -50.1926 H         1 UNK         0.0800 
    140 H140        2.3643  -21.4367  -48.6685 H         1 UNK         0.0800 
    141 H141       -1.3688  -21.6772  -48.7807 H         1 UNK         0.0800 
    142 H142        0.0743  -21.1024  -48.0376 H         1 UNK         0.0800 
    143 H143        0.3174  -23.8567  -47.5756 H         1 UNK         0.0600 
    144 H144       -0.0169  -21.6187  -45.9211 H         1 UNK         0.3000 
    145 H145       -0.0225  -23.3940  -42.7897 H         1 UNK         0.0600 
    146 H146        1.8419  -21.8032  -42.4497 H         1 UNK         0.0600 
    147 H147        2.3376  -23.0955  -43.5317 H         1 UNK         0.0600 
    148 H148        1.9517  -21.5086  -44.1828 H         1 UNK         0.0600 
    149 H149       -0.2533  -20.6159  -43.3869 H         1 UNK         0.3000 
    150 H150       -3.8365  -20.5405  -43.6747 H         1 UNK         0.0600 
    151 H151       -3.3902  -20.3578  -41.2494 H         1 UNK         0.0600 
    152 H152       -3.4724  -18.7520  -41.9606 H         1 UNK         0.0600 
    153 H153       -1.9103  -19.4601  -41.5517 H         1 UNK         0.0600 
    154 H154       -1.9506  -18.4450  -43.9071 H         1 UNK         0.3000 
    155 H155       -1.1769  -18.8670  -47.3843 H         1 UNK         0.0600 
    156 H156       -2.7260  -16.7386  -45.8149 H         1 UNK         0.0600 
    157 H157       -1.9156  -16.4971  -47.3594 H         1 UNK         0.0600 
    158 H158       -3.2971  -17.5728  -47.2513 H         1 UNK         0.0600 
    159 H159       -0.2926  -17.0592  -45.3056 H         1 UNK         0.3000 
    160 H160        2.5726  -18.9694  -44.3493 H         1 UNK         0.0600 
    161 H161        3.2979  -17.7730  -46.4009 H         1 UNK         0.0600 
    162 H162        2.3247  -16.3784  -45.9614 H         1 UNK         0.0600 
    163 H163        3.7023  -16.8402  -44.9657 H         1 UNK         0.0600 
    164 H164        1.4888  -16.3880  -43.6160 H         1 UNK         0.3000 
    165 H165       -0.5798  -17.5873  -40.9672 H         1 UNK         0.0600 
    166 H166        0.8865  -16.2410  -39.4915 H         1 UNK         0.0600 
    167 H167        1.6729  -17.7588  -39.8940 H         1 UNK         0.0600 
    168 H168        2.1772  -16.2748  -40.6941 H         1 UNK         0.0600 
    169 H169        0.2817  -14.9634  -41.6031 H         1 UNK         0.3000 
    170 H170       -1.5251  -14.2995  -44.4857 H         1 UNK         0.0600 
    171 H171       -3.4760  -14.1815  -42.9201 H         1 UNK         0.0600 
    172 H172       -2.4680  -13.3853  -41.7169 H         1 UNK         0.0600 
    173 H173       -2.8150  -12.5893  -43.2534 H         1 UNK         0.0600 
    174 H174       -0.4052  -12.3983  -42.8268 H         1 UNK         0.3000 
    175 H175        2.0958  -12.1511  -42.4669 H         1 UNK         0.0600 
    176 H176        3.4389  -12.9080  -45.1237 H         1 UNK         0.0600 
    177 H177        4.1421  -11.8858  -43.8711 H         1 UNK         0.0600 
    178 H178        3.8397  -13.5848  -43.5487 H         1 UNK         0.0600 
    179 H179        0.9259  -11.3715  -45.0364 H         1 UNK         0.3000 
    180 H180        0.7155   -8.0981  -44.2328 H         1 UNK         0.0600 
    181 H181        3.1702   -8.6360  -45.9884 H         1 UNK         0.0600 
    182 H182        3.1128   -7.5694  -44.5902 H         1 UNK         0.0600 
    183 H183        2.1846   -7.1736  -46.0258 H         1 UNK         0.0600 
    184 H184        1.0327   -9.5560  -46.7871 H         1 UNK         0.3000 
    185 H185       -2.3373  -10.5180  -46.9531 H         1 UNK         0.0600 
    186 H186       -2.4182   -9.2356  -49.0683 H         1 UNK         0.0600 
    187 H187       -2.5429   -8.1387  -47.7030 H         1 UNK         0.0600 
    188 H188       -1.0219   -8.2753  -48.5771 H         1 UNK         0.0600 
    189 H189       -0.4128  -10.6965  -48.9649 H         1 UNK         0.3000 
    190 H190       -2.6721  -22.4731  -46.2411 H         1 UNK         0.3000 
    191 H191       -4.5626  -24.0346  -47.5892 H         1 UNK         0.0600 
    192 H192       -4.7397  -23.0177  -44.7066 H         1 UNK         0.0600 
    193 H193       -6.0809  -23.4211  -45.7632 H         1 UNK         0.0600 
    194 H194       -5.0669  -22.0350  -46.1264 H         1 UNK         0.0600 
    195 H195       -2.5508  -24.8737  -44.7921 H         1 UNK         0.3000 
    196 H196       -3.8989  -27.4510  -44.3339 H         1 UNK         0.0600 
    197 H197       -2.2026  -27.6731  -42.5271 H         1 UNK         0.0600 
    198 H198       -3.0670  -26.1481  -42.4000 H         1 UNK         0.0600 
    199 H199       -1.4273  -26.1797  -43.0425 H         1 UNK         0.0600 
    200 H200       -0.7129  -26.2460  -45.5025 H         1 UNK         0.3000 
    201 H201        0.4130  -28.8350  -45.8253 H         1 UNK         0.0600 
    202 H202        1.7528  -26.8085  -45.3560 H         1 UNK         0.0600 
    203 H203        1.3152  -26.1205  -46.9184 H         1 UNK         0.0600 
    204 H204        2.3076  -27.5715  -46.8383 H         1 UNK         0.0600 
    205 H205       -1.0707  -26.6044  -48.2089 H         1 UNK         0.3000 
    206 H206       -0.6431  -28.6326  -50.3828 H         1 UNK         0.0600 
    207 H207        0.7194  -26.5816  -50.6951 H         1 UNK         0.0600 
    208 H208       -0.5531  -26.6708  -51.9045 H         1 UNK         0.0600 
    209 H209       -0.7164  -25.5724  -50.5413 H         1 UNK         0.0600 
    210 H210       -2.7919  -26.1312  -49.0794 H         1 UNK         0.3000 
    211 H211       -4.9511  -25.7257  -49.1055 H         1 UNK         0.0600 
    212 H212       -5.5312  -28.3360  -50.5984 H         1 UNK         0.0600 
    213 H213       -6.6817  -27.3230  -49.7469 H         1 UNK         0.0600 
    214 H214       -5.4458  -28.1806  -48.8422 H         1 UNK         0.0600 
    215 H215       -6.5903  -24.8500  -50.4763 H         1 UNK         0.3000 
    216 H216       -7.4165  -23.6138  -52.0665 H         1 UNK         0.0600 
    217 H217       -7.2869  -24.3247  -54.4279 H         1 UNK         0.0600 
    218 H218       -7.5288  -25.7161  -53.3834 H         1 UNK         0.0600 
    219 H219       -5.9386  -25.3927  -54.0730 H         1 UNK         0.0600 
    220 H220       -3.9345  -23.9690  -52.4253 H         1 UNK         0.3000 
    221 H221       -3.3784  -21.6822  -54.0068 H         1 UNK         0.0600 
    222 H222       -1.6699  -23.2082  -51.9664 H         1 UNK         0.0600 
    223 H223       -1.7752  -23.5312  -53.6951 H         1 UNK         0.0600 
    224 H224       -1.0323  -22.0465  -53.1202 H         1 UNK         0.0600 
    225 H225       -4.1754  -21.9069  -50.6546 H         1 UNK         0.3000 
    226 H226       -2.8849  -19.8336  -49.3788 H         1 UNK         0.0600 
    227 H227       -4.2449  -21.5429  -48.2663 H         1 UNK         0.0600 
    228 H228       -4.8200  -19.9507  -47.7970 H         1 UNK         0.0600 
    229 H229       -5.7269  -20.9013  -48.9696 H         1 UNK         0.0600 
    230 H230       -2.6299  -17.9145  -50.3151 H         1 UNK         0.3000 
    231 H231       -2.8890  -15.8295  -50.8603 H         1 UNK         0.0600 
    232 H232       -4.8652  -14.5081  -50.2401 H         1 UNK         0.0600 
    233 H233       -4.4677  -15.6124  -48.9369 H         1 UNK         0.0600 
    234 H234       -5.8275  -15.9599  -50.0081 H         1 UNK         0.0600 
    235 H235       -4.2893  -18.2242  -52.6013 H         1 UNK         0.3000 
    236 H236       -5.2897  -16.5708  -54.8453 H         1 UNK         0.0600 
    237 H237       -6.4265  -18.7308  -54.3159 H         1 UNK         0.0600 
    238 H238       -5.6863  -18.7805  -55.9094 H         1 UNK         0.0600 
    239 H239       -4.9158  -19.6029  -54.5586 H         1 UNK         0.0600 
    240 H240       -2.5223  -18.5354  -53.8373 H         1 UNK         0.3000 
    241 H241       -0.9186  -18.2972  -56.2011 H         1 UNK         0.0600 
    242 H242        0.5786  -16.6451  -56.7854 H         1 UNK         0.3800 
    243 H243        0.8593  -15.2360  -55.8029 H         1 UNK         0.3800 
    244 H244       -0.2125  -18.9398  -53.2898 H         1 UNK         0.0800 
    245 H245       -0.7294  -20.0868  -54.4730 H         1 UNK         0.0800 
    246 H246        3.5870  -18.7974  -53.9115 H         1 UNK         0.0800 
    247 H247        2.4718  -17.4647  -54.0437 H         1 UNK         0.0800 
@<TRIPOS>BOND
     1    1    2 1    
     2    1  127 1    
     3    1  128 1    
     4    1  129 1    
     5    2    3 2    
     6    2    4 am   BACKBONE|DICT|INTERRES
     7    4    5 1    
     8    4  130 1    
     9    5    6 1    
    10    5   65 1    
    11    5  131 1    
    12    6    7 1    
    13    6  132 1    
    14    6  133 1    
    15    7    8 1    
    16    8    9 1    
    17    8  134 1    
    18    8  135 1    
    19    9   10 ar   
    20    9   14 ar   
    21   10   11 ar   
    22   10  136 1    
    23   11   12 ar   
    24   11  126 1    
    25   12   13 ar   
    26   12  137 1    
    27   13   14 ar   
    28   13   15 1    
    29   14  138 1    
    30   15   16 1    
    31   15  139 1    
    32   15  140 1    
    33   16   17 1    
    34   17   18 1    
    35   17  141 1    
    36   17  142 1    
    37   18   19 1    
    38   18   67 1    
    39   18  143 1    
    40   19   20 am   BACKBONE|DICT|INTERRES
    41   19  144 1    
    42   20   21 2    
    43   20   22 1    
    44   22   23 1    
    45   22   24 1    
    46   22  145 1    
    47   23  146 1    
    48   23  147 1    
    49   23  148 1    
    50   24   25 am   BACKBONE|DICT|INTERRES
    51   24  149 1    
    52   25   26 2    
    53   25   27 1    
    54   27   28 1    
    55   27   29 1    
    56   27  150 1    
    57   28  151 1    
    58   28  152 1    
    59   28  153 1    
    60   29   30 am   BACKBONE|DICT|INTERRES
    61   29  154 1    
    62   30   31 2    
    63   30   32 1    
    64   32   33 1    
    65   32   34 1    
    66   32  155 1    
    67   33  156 1    
    68   33  157 1    
    69   33  158 1    
    70   34   35 am   BACKBONE|DICT|INTERRES
    71   34  159 1    
    72   35   36 2    
    73   35   37 1    
    74   37   38 1    
    75   37   39 1    
    76   37  160 1    
    77   38  161 1    
    78   38  162 1    
    79   38  163 1    
    80   39   40 am   BACKBONE|DICT|INTERRES
    81   39  164 1    
    82   40   41 2    
    83   40   42 1    
    84   42   43 1    
    85   42   44 1    
    86   42  165 1    
    87   43  166 1    
    88   43  167 1    
    89   43  168 1    
    90   44   45 am   BACKBONE|DICT|INTERRES
    91   44  169 1    
    92   45   46 2    
    93   45   47 1    
    94   47   48 1    
    95   47   49 1    
    96   47  170 1    
    97   48  171 1    
    98   48  172 1    
    99   48  173 1    
   100   49   50 am   BACKBONE|DICT|INTERRES
   101   49  174 1    
   102   50   51 2    
   103   50   52 1    
   104   52   53 1    
   105   52   54 1    
   106   52  175 1    
   107   53  176 1    
   108   53  177 1    
   109   53  178 1    
   110   54   55 am   BACKBONE|DICT|INTERRES
   111   54  179 1    
   112   55   56 2    
   113   55   57 1    
   114   57   58 1    
   115   57   59 1    
   116   57  180 1    
   117   58  181 1    
   118   58  182 1    
   119   58  183 1    
   120   59   60 am   BACKBONE|DICT|INTERRES
   121   59  184 1    
   122   60   61 2    
   123   60   62 1    
   124   62   63 1    
   125   62   64 1    
   126   62  185 1    
   127   63  186 1    
   128   63  187 1    
   129   63  188 1    
   130   64   65 am   BACKBONE|DICT|INTERRES
   131   64  189 1    
   132   65   66 2    
   133   67   68 2    
   134   67   69 am   BACKBONE|DICT|INTERRES
   135   69   70 1    
   136   69  190 1    
   137   70   71 1    
   138   70   72 1    
   139   70  191 1    
   140   71  192 1    
   141   71  193 1    
   142   71  194 1    
   143   72   73 2    
   144   72   74 am   BACKBONE|DICT|INTERRES
   145   74   75 1    
   146   74  195 1    
   147   75   76 1    
   148   75   77 1    
   149   75  196 1    
   150   76  197 1    
   151   76  198 1    
   152   76  199 1    
   153   77   78 2    
   154   77   79 am   BACKBONE|DICT|INTERRES
   155   79   80 1    
   156   79  200 1    
   157   80   81 1    
   158   80   82 1    
   159   80  201 1    
   160   81  202 1    
   161   81  203 1    
   162   81  204 1    
   163   82   83 2    
   164   82   84 am   BACKBONE|DICT|INTERRES
   165   84   85 1    
   166   84  205 1    
   167   85   86 1    
   168   85   87 1    
   169   85  206 1    
   170   86  207 1    
   171   86  208 1    
   172   86  209 1    
   173   87   88 2    
   174   87   89 am   BACKBONE|DICT|INTERRES
   175   89   90 1    
   176   89  210 1    
   177   90   91 1    
   178   90   92 1    
   179   90  211 1    
   180   91  212 1    
   181   91  213 1    
   182   91  214 1    
   183   92   93 2    
   184   92   94 am   BACKBONE|DICT|INTERRES
   185   94   95 1    
   186   94  215 1    
   187   95   96 1    
   188   95   97 1    
   189   95  216 1    
   190   96  217 1    
   191   96  218 1    
   192   96  219 1    
   193   97   98 2    
   194   97   99 am   BACKBONE|DICT|INTERRES
   195   99  100 1    
   196   99  220 1    
   197  100  101 1    
   198  100  102 1    
   199  100  221 1    
   200  101  222 1    
   201  101  223 1    
   202  101  224 1    
   203  102  103 2    
   204  102  104 am   BACKBONE|DICT|INTERRES
   205  104  105 1    
   206  104  225 1    
   207  105  106 1    
   208  105  107 1    
   209  105  226 1    
   210  106  227 1    
   211  106  228 1    
   212  106  229 1    
   213  107  108 2    
   214  107  109 am   BACKBONE|DICT|INTERRES
   215  109  110 1    
   216  109  230 1    
   217  110  111 1    
   218  110  112 1    
   219  110  231 1    
   220  111  232 1    
   221  111  233 1    
   222  111  234 1    
   223  112  113 2    
   224  112  114 am   BACKBONE|DICT|INTERRES
   225  114  115 1    
   226  114  235 1    
   227  115  116 1    
   228  115  117 1    
   229  115  236 1    
   230  116  237 1    
   231  116  238 1    
   232  116  239 1    
   233  117  118 2    
   234  117  119 am   BACKBONE|DICT|INTERRES
   235  119  120 1    
   236  119  240 1    
   237  120  121 1    
   238  120  124 1    
   239  120  241 1    
   240  121  122 am   BACKBONE|DICT|INTERRES
   241  121  123 2    
   242  122  242 1    
   243  122  243 1    
   244  124  125 1    
   245  124  244 1    
   246  124  245 1    
   247  125  126 1    
   248  126  246 1    
   249  126  247 1    
@<TRIPOS>SUBSTRUCTURE
     1 UNK         1 GROUP             0       ****    0 ROOT    
