@<TRIPOS>MOLECULE
3R540
247   249    1
SMALL
USER_CHARGES


@<TRIPOS>ATOM
      1 CA         -1.0475  -10.5785  -45.1611 C.3       0 UNK        -0.1800 
      2 C          -0.6246  -11.5623  -46.2422 C.2       0 UNK         0.5000 
      3 O          -0.1356  -12.6410  -45.9129 O.2       0 UNK        -0.5000 
      4 N          -0.8021  -11.1764  -47.5137 N.am      1 UNK        -0.5000 
      5 CA         -0.4981  -11.8993  -48.7579 C.3       1 UNK         0.1400 
      6 C6         -1.6280  -12.8564  -49.2318 C.3       23 UNK        -0.0398 
      7 S7         -1.9980  -14.3176  -48.1924 S.3       23 UNK        -0.2404 
      8 C8         -2.6886  -15.4710  -49.4220 C.3       23 UNK        -0.0205 
      9 C9         -1.6137  -16.1422  -50.2672 C.ar      23 UNK        -0.0193 
     10 C10        -1.2296  -15.5952  -51.4956 C.ar      23 UNK        -0.1150 
     11 C11        -0.2610  -16.2219  -52.2864 C.ar      23 UNK        -0.0193 
     12 C12         0.3018  -17.4229  -51.8481 C.ar      23 UNK        -0.1150 
     13 C13        -0.0751  -17.9885  -50.6269 C.ar      23 UNK        -0.0193 
     14 C14        -1.0227  -17.3323  -49.8334 C.ar      23 UNK        -0.1150 
     15 C15         0.5682  -19.2936  -50.1737 C.3       23 UNK        -0.0205 
     16 S16        -0.6607  -20.5808  -49.7759 S.3       23 UNK        -0.2404 
     17 C17        -0.8011  -20.4232  -47.9647 C.3       23 UNK        -0.0398 
     18 CA         -0.8808  -21.7992  -47.2549 C.3       11 UNK         0.1400 
     19 N          -0.2064  -21.7832  -45.9521 N.am      11 UNK        -0.5000 
     20 C          -0.0215  -22.8512  -45.1627 C.2       10 UNK         0.5000 
     21 O          -0.3623  -23.9929  -45.4661 O.2       10 UNK        -0.5000 
     22 CA          0.5950  -22.5946  -43.7758 C.3       10 UNK         0.1400 
     23 CB          2.1260  -22.5157  -43.8630 C.3       10 UNK        -0.1800 
     24 N           0.0656  -21.3857  -43.1428 N.am      10 UNK        -0.5000 
     25 C          -1.2184  -21.2146  -42.7950 C.2       9 UNK         0.5000 
     26 O          -2.0768  -22.0884  -42.9102 O.2       9 UNK        -0.5000 
     27 CA         -1.6291  -19.8185  -42.2940 C.3       9 UNK         0.1400 
     28 CB         -1.2609  -19.6346  -40.8147 C.3       9 UNK        -0.1800 
     29 N          -1.0376  -18.7422  -43.0894 N.am      9 UNK        -0.5000 
     30 C          -1.2695  -18.5407  -44.3949 C.2       8 UNK         0.5000 
     31 O          -2.0565  -19.2124  -45.0626 O.2       8 UNK        -0.5000 
     32 CA         -0.4325  -17.4477  -45.0826 C.3       8 UNK         0.1400 
     33 CB         -1.0273  -16.0529  -44.8432 C.3       8 UNK        -0.1800 
     34 N           0.9615  -17.4718  -44.6387 N.am      8 UNK        -0.5000 
     35 C           1.8291  -18.4489  -44.9379 C.2       7 UNK         0.5000 
     36 O           1.5523  -19.4121  -45.6505 O.2       7 UNK        -0.5000 
     37 CA          3.2229  -18.3621  -44.2941 C.3       7 UNK         0.1400 
     38 CB          4.1531  -17.4637  -45.1204 C.3       7 UNK        -0.1800 
     39 N           3.1622  -17.8891  -42.9097 N.am      7 UNK        -0.5000 
     40 C           2.6539  -18.6189  -41.9057 C.2       6 UNK         0.5000 
     41 O           2.1951  -19.7509  -42.0531 O.2       6 UNK        -0.5000 
     42 CA          2.6186  -17.9749  -40.5099 C.3       6 UNK         0.1400 
     43 CB          3.9647  -18.1632  -39.7952 C.3       6 UNK        -0.1800 
     44 N           2.2776  -16.5542  -40.5225 N.am      6 UNK        -0.5000 
     45 C           1.1464  -16.0138  -40.9893 C.2       5 UNK         0.5000 
     46 O           0.2581  -16.6653  -41.5383 O.2       5 UNK        -0.5000 
     47 CA          0.9833  -14.4882  -40.8372 C.3       5 UNK         0.1400 
     48 CB          0.5375  -14.1160  -39.4110 C.3       5 UNK        -0.1800 
     49 N           2.1570  -13.7099  -41.2566 N.am      5 UNK        -0.5000 
     50 C           3.3974  -13.6798  -40.7451 C.2       4 UNK         0.5000 
     51 O           3.7287  -14.2919  -39.7283 O.2       4 UNK        -0.5000 
     52 CA          4.4550  -12.8401  -41.4977 C.3       4 UNK         0.1400 
     53 CB          5.7953  -13.5942  -41.6250 C.3       4 UNK        -0.1800 
     54 N           4.0253  -12.3295  -42.8096 N.am      4 UNK        -0.5000 
     55 C           3.6932  -13.0359  -43.9012 C.2       3 UNK         0.5000 
     56 O           3.6531  -14.2670  -43.9332 O.2       3 UNK        -0.5000 
     57 CA          3.2796  -12.1949  -45.1229 C.3       3 UNK         0.1400 
     58 CB          4.4275  -11.2969  -45.6314 C.3       3 UNK        -0.1800 
     59 N           2.6915  -12.9835  -46.2082 N.am      3 UNK        -0.5000 
     60 C           3.2917  -13.7942  -47.0932 C.2       2 UNK         0.5000 
     61 O           4.4983  -14.0415  -47.1042 O.2       2 UNK        -0.5000 
     62 CA          2.3915  -14.4131  -48.1873 C.3       2 UNK         0.1400 
     63 CB          2.1166  -15.8959  -47.8976 C.3       2 UNK        -0.1800 
     64 N           1.1080  -13.7262  -48.3508 N.am      2 UNK        -0.5000 
     65 C           0.9334  -12.4839  -48.8180 C.2       1 UNK         0.5000 
     66 O           1.8503  -11.7878  -49.2576 O.2       1 UNK        -0.5000 
     67 C          -2.3434  -22.2806  -47.1473 C.2       11 UNK         0.5000 
     68 O          -2.7905  -23.0760  -47.9756 O.2       11 UNK        -0.5000 
     69 N          -3.0536  -21.8063  -46.1148 N.am      12 UNK        -0.5000 
     70 CA         -4.4134  -22.2244  -45.7825 C.3       12 UNK         0.1400 
     71 CB         -5.0158  -21.2554  -44.7546 C.3       12 UNK        -0.1800 
     72 C          -4.4748  -23.6795  -45.2864 C.2       12 UNK         0.5000 
     73 O          -5.3233  -24.4375  -45.7554 O.2       12 UNK        -0.5000 
     74 N          -3.5587  -24.0566  -44.3829 N.am      13 UNK        -0.5000 
     75 CA         -3.4453  -25.4039  -43.8149 C.3       13 UNK         0.1400 
     76 CB         -2.4045  -25.3995  -42.6856 C.3       13 UNK        -0.1800 
     77 C          -3.1048  -26.4818  -44.8614 C.2       13 UNK         0.5000 
     78 O          -3.6533  -27.5827  -44.8022 O.2       13 UNK        -0.5000 
     79 N          -2.2356  -26.1347  -45.8197 N.am      14 UNK        -0.5000 
     80 CA         -1.8707  -26.9694  -46.9664 C.3       14 UNK         0.1400 
     81 CB         -0.5597  -26.4337  -47.5651 C.3       14 UNK        -0.1800 
     82 C          -2.9611  -27.0286  -48.0559 C.2       14 UNK         0.5000 
     83 O          -2.8439  -27.8417  -48.9730 O.2       14 UNK        -0.5000 
     84 N          -3.9701  -26.1484  -47.9604 N.am      15 UNK        -0.5000 
     85 CA         -5.0545  -25.9078  -48.9190 C.3       15 UNK         0.1400 
     86 CB         -5.9304  -27.1626  -49.1106 C.3       15 UNK        -0.1800 
     87 C          -4.5739  -25.3088  -50.2576 C.2       15 UNK         0.5000 
     88 O          -5.3321  -25.2910  -51.2264 O.2       15 UNK        -0.5000 
     89 N          -3.3468  -24.7750  -50.2843 N.am      16 UNK        -0.5000 
     90 CA         -2.7562  -24.0811  -51.4260 C.3       16 UNK         0.1400 
     91 CB         -1.2452  -23.9380  -51.1988 C.3       16 UNK        -0.1800 
     92 C          -3.4250  -22.7181  -51.6764 C.2       16 UNK         0.5000 
     93 O          -3.6003  -22.3289  -52.8310 O.2       16 UNK        -0.5000 
     94 N          -3.8480  -22.0450  -50.5966 N.am      17 UNK        -0.5000 
     95 CA         -4.6390  -20.8153  -50.6627 C.3       17 UNK         0.1400 
     96 CB         -4.6863  -20.1511  -49.2797 C.3       17 UNK        -0.1800 
     97 C          -6.0624  -21.0715  -51.1941 C.2       17 UNK         0.5000 
     98 O          -6.5807  -20.2553  -51.9550 O.2       17 UNK        -0.5000 
     99 N          -6.6499  -22.2185  -50.8198 N.am      18 UNK        -0.5000 
    100 CA        -7.9598  -22.6782  -51.2905 C.3       18 UNK         0.1400 
    101 CB        -8.4628  -23.8140  -50.3864 C.3       18 UNK        -0.1800 
    102 C         -7.9282  -23.1174  -52.7669 C.2       18 UNK         0.5000 
    103 O         -8.8724  -22.8389  -53.5061 O.2       18 UNK        -0.5000 
    104 N         -6.8202  -23.7497  -53.1793 N.am      19 UNK        -0.5000 
    105 CA        -6.5090  -24.1029  -54.5676 C.3       19 UNK         0.1400 
    106 CB        -5.3706  -25.1351  -54.5717 C.3       19 UNK        -0.1800 
    107 C         -6.1358  -22.8881  -55.4453 C.2       19 UNK         0.5000 
    108 O         -6.0486  -23.0354  -56.6650 O.2       19 UNK        -0.5000 
    109 N         -5.9271  -21.7238  -54.8136 N.am      20 UNK        -0.5000 
    110 CA        -5.5697  -20.4311  -55.3954 C.3       20 UNK         0.1400 
    111 CB        -6.6893  -19.9080  -56.3197 C.3       20 UNK        -0.1800 
    112 C         -4.1810  -20.4453  -56.0609 C.2       20 UNK         0.5000 
    113 O         -4.0268  -19.9765  -57.1916 O.2       20 UNK        -0.5000 
    114 N         -3.1751  -20.9489  -55.3309 N.am      21 UNK        -0.5000 
    115 CA        -1.7541  -20.9561  -55.7015 C.3       21 UNK         0.1400 
    116 CB        -1.0195  -21.9777  -54.8150 C.3       21 UNK        -0.1800 
    117 C         -1.1110  -19.5484  -55.6361 C.2       21 UNK         0.5000 
    118 O         -0.0956  -19.3512  -54.9666 O.2       21 UNK        -0.5000 
    119 N         -1.7352  -18.5889  -56.3228 N.am      22 UNK        -0.5000 
    120 CA        -1.3910  -17.1625  -56.3562 C.3       22 UNK         0.1400 
    121 C         -1.7277  -16.4956  -57.7260 C.2       22 UNK         0.5000 
    122 N         -2.1049  -17.2424  -58.7585 N.am      22 UNK        -0.7600 
    123 O         -1.6300  -15.2813  -57.8754 O.2       22 UNK        -0.5000 
    124 C124       -2.0017  -16.4244  -55.1312 C.3       23 UNK        -0.0398 
    125 S125       -1.0976  -14.9163  -54.6452 S.3       23 UNK        -0.2404 
    126 C126        0.2255  -15.5990  -53.5920 C.3       23 UNK        -0.0205 
    127 H127       -1.4636   -9.6633  -45.5828 H         1 UNK         0.0600 
    128 H128       -0.1905  -10.3102  -44.5433 H         1 UNK         0.0600 
    129 H129       -1.8030  -11.0315  -44.5192 H         1 UNK         0.0600 
    130 H130       -1.1873  -10.2548  -47.6655 H         1 UNK         0.3000 
    131 H131       -0.4838  -11.1038  -49.5052 H         1 UNK         0.0600 
    132 H132       -1.3961  -13.1826  -50.2429 H         1 UNK         0.0800 
    133 H133       -2.5550  -12.2892  -49.3243 H         1 UNK         0.0800 
    134 H134       -3.4013  -14.9451  -50.0592 H         1 UNK         0.0800 
    135 H135       -3.2642  -16.2341  -48.8957 H         1 UNK         0.0800 
    136 H136       -1.6850  -14.6793  -51.8419 H         1 UNK         0.1150 
    137 H137        1.0450  -17.9162  -52.4591 H         1 UNK         0.1150 
    138 H138       -1.3136  -17.7531  -48.8826 H         1 UNK         0.1150 
    139 H139        1.2300  -19.0986  -49.3295 H         1 UNK         0.0800 
    140 H140        1.2070  -19.6896  -50.9645 H         1 UNK         0.0800 
    141 H141       -1.6484  -19.7827  -47.7160 H         1 UNK         0.0800 
    142 H142        0.0736  -19.8809  -47.6140 H         1 UNK         0.0800 
    143 H143       -0.3433  -22.5361  -47.8557 H         1 UNK         0.0600 
    144 H144        0.1583  -20.8884  -45.6430 H         1 UNK         0.3000 
    145 H145        0.3392  -23.4419  -43.1370 H         1 UNK         0.0600 
    146 H146        2.5379  -23.4179  -44.3167 H         1 UNK         0.0600 
    147 H147        2.5718  -22.4173  -42.8732 H         1 UNK         0.0600 
    148 H148        2.4543  -21.6673  -44.4632 H         1 UNK         0.0600 
    149 H149        0.7315  -20.6418  -42.9547 H         1 UNK         0.3000 
    150 H150       -2.7142  -19.7391  -42.3860 H         1 UNK         0.0600 
    151 H151       -0.1847  -19.6983  -40.6560 H         1 UNK         0.0600 
    152 H152       -1.7297  -20.4025  -40.1983 H         1 UNK         0.0600 
    153 H153       -1.5970  -18.6668  -40.4420 H         1 UNK         0.0600 
    154 H154       -0.4117  -18.1068  -42.6017 H         1 UNK         0.3000 
    155 H155       -0.4512  -17.6401  -46.1577 H         1 UNK         0.0600 
    156 H156       -0.4614  -15.2892  -45.3764 H         1 UNK         0.0600 
    157 H157       -1.0338  -15.7880  -43.7857 H         1 UNK         0.0600 
    158 H158       -2.0559  -16.0016  -45.2023 H         1 UNK         0.0600 
    159 H159        1.2543  -16.7395  -44.0088 H         1 UNK         0.3000 
    160 H160        3.6506  -19.3670  -44.2879 H         1 UNK         0.0600 
    161 H161        3.7398  -16.4645  -45.2509 H         1 UNK         0.0600 
    162 H162        4.3089  -17.8818  -46.1155 H         1 UNK         0.0600 
    163 H163        5.1325  -17.3650  -44.6521 H         1 UNK         0.0600 
    164 H164        3.5007  -16.9556  -42.7227 H         1 UNK         0.3000 
    165 H165        1.8506  -18.4895  -39.9296 H         1 UNK         0.0600 
    166 H166        4.2420  -19.2174  -39.7533 H         1 UNK         0.0600 
    167 H167        4.7687  -17.6305  -40.3049 H         1 UNK         0.0600 
    168 H168        3.9200  -17.7984  -38.7688 H         1 UNK         0.0600 
    169 H169        2.9479  -15.9161  -40.1001 H         1 UNK         0.3000 
    170 H170        0.1801  -14.1950  -41.5153 H         1 UNK         0.0600 
    171 H171        0.3552  -13.0450  -39.3226 H         1 UNK         0.0600 
    172 H172        1.2807  -14.3925  -38.6628 H         1 UNK         0.0600 
    173 H173       -0.3905  -14.6263  -39.1498 H         1 UNK         0.0600 
    174 H174        2.0257  -13.1878  -42.1105 H         1 UNK         0.3000 
    175 H175        4.6311  -11.9610  -40.8765 H         1 UNK         0.0600 
    176 H176        5.6844  -14.5296  -42.1744 H         1 UNK         0.0600 
    177 H177        6.2033  -13.8402  -40.6439 H         1 UNK         0.0600 
    178 H178        6.5409  -12.9890  -42.1405 H         1 UNK         0.0600 
    179 H179        3.9918  -11.3213  -42.8754 H         1 UNK         0.3000 
    180 H180        2.4752  -11.5392  -44.7865 H         1 UNK         0.0600 
    181 H181        5.3215  -11.8737  -45.8700 H         1 UNK         0.0600 
    182 H182        4.7127  -10.5574  -44.8828 H         1 UNK         0.0600 
    183 H183        4.1324  -10.7490  -46.5266 H         1 UNK         0.0600 
    184 H184        1.6772  -12.9220  -46.2633 H         1 UNK         0.3000 
    185 H185        2.9326  -14.3436  -49.1330 H         1 UNK         0.0600 
    186 H186        3.0468  -16.4566  -47.8031 H         1 UNK         0.0600 
    187 H187        1.5569  -16.0219  -46.9715 H         1 UNK         0.0600 
    188 H188        1.5428  -16.3548  -48.7022 H         1 UNK         0.0600 
    189 H189        0.2920  -14.1985  -47.9818 H         1 UNK         0.3000 
    190 H190       -2.6276  -21.1109  -45.5103 H         1 UNK         0.3000 
    191 H191       -5.0168  -22.1661  -46.6896 H         1 UNK         0.0600 
    192 H192       -5.0284  -20.2349  -45.1382 H         1 UNK         0.0600 
    193 H193       -6.0449  -21.5281  -44.5181 H         1 UNK         0.0600 
    194 H194       -4.4541  -21.2525  -43.8206 H         1 UNK         0.0600 
    195 H195       -2.9198  -23.3557  -44.0146 H         1 UNK         0.3000 
    196 H196       -4.4140  -25.6604  -43.3814 H         1 UNK         0.0600 
    197 H197       -2.3275  -26.3831  -42.2208 H         1 UNK         0.0600 
    198 H198       -2.6739  -24.6899  -41.9030 H         1 UNK         0.0600 
    199 H199       -1.4143  -25.1319  -43.0543 H         1 UNK         0.0600 
    200 H200       -1.7672  -25.2340  -45.7515 H         1 UNK         0.3000 
    201 H201       -1.6982  -27.9891  -46.6163 H         1 UNK         0.0600 
    202 H202       -0.2285  -27.0475  -48.4036 H         1 UNK         0.0600 
    203 H203        0.2413  -26.4369  -46.8256 H         1 UNK         0.0600 
    204 H204       -0.6738  -25.4119  -47.9301 H         1 UNK         0.0600 
    205 H205       -3.9752  -25.5338  -47.1559 H         1 UNK         0.3000 
    206 H206       -5.6831  -25.1413  -48.4642 H         1 UNK         0.0600 
    207 H207       -6.2564  -27.5652  -48.1516 H         1 UNK         0.0600 
    208 H208       -6.8275  -26.9294  -49.6848 H         1 UNK         0.0600 
    209 H209       -5.4012  -27.9515  -49.6452 H         1 UNK         0.0600 
    210 H210       -2.8337  -24.7310  -49.4135 H         1 UNK         0.3000 
    211 H211       -2.9071  -24.6924  -52.3176 H         1 UNK         0.0600 
    212 H212       -0.7594  -24.9136  -51.1795 H         1 UNK         0.0600 
    213 H213       -0.7778  -23.3571  -51.9942 H         1 UNK         0.0600 
    214 H214       -1.0264  -23.4424  -50.2534 H         1 UNK         0.0600 
    215 H215       -3.6277  -22.4164  -49.6783 H         1 UNK         0.3000 
    216 H216       -4.1419  -20.1278  -51.3509 H         1 UNK         0.0600 
    217 H217       -5.1697  -20.7901  -48.5420 H         1 UNK         0.0600 
    218 H218       -5.2434  -19.2141  -49.3169 H         1 UNK         0.0600 
    219 H219       -3.6855  -19.9160  -48.9211 H         1 UNK         0.0600 
    220 H220       -6.1396  -22.8436  -50.2157 H         1 UNK         0.3000 
    221 H221       -8.6614  -21.8453  -51.2069 H         1 UNK         0.0600 
    222 H222       -7.8142  -24.6883  -50.4318 H         1 UNK         0.0600 
    223 H223       -8.5233  -23.4940  -49.3460 H         1 UNK         0.0600 
    224 H224       -9.4616  -24.1341  -50.6859 H         1 UNK         0.0600 
    225 H225       -6.1352  -24.0295  -52.4838 H         1 UNK         0.3000 
    226 H226       -7.3934  -24.5665  -55.0092 H         1 UNK         0.0600 
    227 H227       -5.6293  -26.0129  -53.9792 H         1 UNK         0.0600 
    228 H228       -5.1560  -25.4785  -55.5843 H         1 UNK         0.0600 
    229 H229       -4.4500  -24.7152  -54.1666 H         1 UNK         0.0600 
    230 H230       -5.9948  -21.7343  -53.8054 H         1 UNK         0.3000 
    231 H231       -5.4928  -19.7364  -54.5577 H         1 UNK         0.0600 
    232 H232       -6.7987  -20.5193  -57.2158 H         1 UNK         0.0600 
    233 H233       -6.4802  -18.8883  -56.6451 H         1 UNK         0.0600 
    234 H234       -7.6496  -19.8929  -55.8040 H         1 UNK         0.0600 
    235 H235       -3.3911  -21.3437  -54.4178 H         1 UNK         0.3000 
    236 H236       -1.6741  -21.2972  -56.7355 H         1 UNK         0.0600 
    237 H237       -1.0288  -21.6739  -53.7675 H         1 UNK         0.0600 
    238 H238       -1.4790  -22.9641  -54.8819 H         1 UNK         0.0600 
    239 H239        0.0229  -22.0830  -55.1178 H         1 UNK         0.0600 
    240 H240       -2.5819  -18.8526  -56.8202 H         1 UNK         0.3000 
    241 H241       -0.3040  -17.0997  -56.2848 H         1 UNK         0.0600 
    242 H242       -2.1631  -18.2460  -58.6913 H         1 UNK         0.3800 
    243 H243       -2.3119  -16.7926  -59.6369 H         1 UNK         0.3800 
    244 H244       -3.0429  -16.1617  -55.3240 H         1 UNK         0.0800 
    245 H245       -2.0284  -17.0839  -54.2627 H         1 UNK         0.0800 
    246 H246        0.7921  -16.3264  -54.1758 H         1 UNK         0.0800 
    247 H247        0.9208  -14.7953  -53.3469 H         1 UNK         0.0800 
@<TRIPOS>BOND
     1    1    2 1    
     2    1  127 1    
     3    1  128 1    
     4    1  129 1    
     5    2    3 2    
     6    2    4 am   BACKBONE|DICT|INTERRES
     7    4    5 1    
     8    4  130 1    
     9    5    6 1    
    10    5   65 1    
    11    5  131 1    
    12    6    7 1    
    13    6  132 1    
    14    6  133 1    
    15    7    8 1    
    16    8    9 1    
    17    8  134 1    
    18    8  135 1    
    19    9   10 ar   
    20    9   14 ar   
    21   10   11 ar   
    22   10  136 1    
    23   11   12 ar   
    24   11  126 1    
    25   12   13 ar   
    26   12  137 1    
    27   13   14 ar   
    28   13   15 1    
    29   14  138 1    
    30   15   16 1    
    31   15  139 1    
    32   15  140 1    
    33   16   17 1    
    34   17   18 1    
    35   17  141 1    
    36   17  142 1    
    37   18   19 1    
    38   18   67 1    
    39   18  143 1    
    40   19   20 am   BACKBONE|DICT|INTERRES
    41   19  144 1    
    42   20   21 2    
    43   20   22 1    
    44   22   23 1    
    45   22   24 1    
    46   22  145 1    
    47   23  146 1    
    48   23  147 1    
    49   23  148 1    
    50   24   25 am   BACKBONE|DICT|INTERRES
    51   24  149 1    
    52   25   26 2    
    53   25   27 1    
    54   27   28 1    
    55   27   29 1    
    56   27  150 1    
    57   28  151 1    
    58   28  152 1    
    59   28  153 1    
    60   29   30 am   BACKBONE|DICT|INTERRES
    61   29  154 1    
    62   30   31 2    
    63   30   32 1    
    64   32   33 1    
    65   32   34 1    
    66   32  155 1    
    67   33  156 1    
    68   33  157 1    
    69   33  158 1    
    70   34   35 am   BACKBONE|DICT|INTERRES
    71   34  159 1    
    72   35   36 2    
    73   35   37 1    
    74   37   38 1    
    75   37   39 1    
    76   37  160 1    
    77   38  161 1    
    78   38  162 1    
    79   38  163 1    
    80   39   40 am   BACKBONE|DICT|INTERRES
    81   39  164 1    
    82   40   41 2    
    83   40   42 1    
    84   42   43 1    
    85   42   44 1    
    86   42  165 1    
    87   43  166 1    
    88   43  167 1    
    89   43  168 1    
    90   44   45 am   BACKBONE|DICT|INTERRES
    91   44  169 1    
    92   45   46 2    
    93   45   47 1    
    94   47   48 1    
    95   47   49 1    
    96   47  170 1    
    97   48  171 1    
    98   48  172 1    
    99   48  173 1    
   100   49   50 am   BACKBONE|DICT|INTERRES
   101   49  174 1    
   102   50   51 2    
   103   50   52 1    
   104   52   53 1    
   105   52   54 1    
   106   52  175 1    
   107   53  176 1    
   108   53  177 1    
   109   53  178 1    
   110   54   55 am   BACKBONE|DICT|INTERRES
   111   54  179 1    
   112   55   56 2    
   113   55   57 1    
   114   57   58 1    
   115   57   59 1    
   116   57  180 1    
   117   58  181 1    
   118   58  182 1    
   119   58  183 1    
   120   59   60 am   BACKBONE|DICT|INTERRES
   121   59  184 1    
   122   60   61 2    
   123   60   62 1    
   124   62   63 1    
   125   62   64 1    
   126   62  185 1    
   127   63  186 1    
   128   63  187 1    
   129   63  188 1    
   130   64   65 am   BACKBONE|DICT|INTERRES
   131   64  189 1    
   132   65   66 2    
   133   67   68 2    
   134   67   69 am   BACKBONE|DICT|INTERRES
   135   69   70 1    
   136   69  190 1    
   137   70   71 1    
   138   70   72 1    
   139   70  191 1    
   140   71  192 1    
   141   71  193 1    
   142   71  194 1    
   143   72   73 2    
   144   72   74 am   BACKBONE|DICT|INTERRES
   145   74   75 1    
   146   74  195 1    
   147   75   76 1    
   148   75   77 1    
   149   75  196 1    
   150   76  197 1    
   151   76  198 1    
   152   76  199 1    
   153   77   78 2    
   154   77   79 am   BACKBONE|DICT|INTERRES
   155   79   80 1    
   156   79  200 1    
   157   80   81 1    
   158   80   82 1    
   159   80  201 1    
   160   81  202 1    
   161   81  203 1    
   162   81  204 1    
   163   82   83 2    
   164   82   84 am   BACKBONE|DICT|INTERRES
   165   84   85 1    
   166   84  205 1    
   167   85   86 1    
   168   85   87 1    
   169   85  206 1    
   170   86  207 1    
   171   86  208 1    
   172   86  209 1    
   173   87   88 2    
   174   87   89 am   BACKBONE|DICT|INTERRES
   175   89   90 1    
   176   89  210 1    
   177   90   91 1    
   178   90   92 1    
   179   90  211 1    
   180   91  212 1    
   181   91  213 1    
   182   91  214 1    
   183   92   93 2    
   184   92   94 am   BACKBONE|DICT|INTERRES
   185   94   95 1    
   186   94  215 1    
   187   95   96 1    
   188   95   97 1    
   189   95  216 1    
   190   96  217 1    
   191   96  218 1    
   192   96  219 1    
   193   97   98 2    
   194   97   99 am   BACKBONE|DICT|INTERRES
   195   99  100 1    
   196   99  220 1    
   197  100  101 1    
   198  100  102 1    
   199  100  221 1    
   200  101  222 1    
   201  101  223 1    
   202  101  224 1    
   203  102  103 2    
   204  102  104 am   BACKBONE|DICT|INTERRES
   205  104  105 1    
   206  104  225 1    
   207  105  106 1    
   208  105  107 1    
   209  105  226 1    
   210  106  227 1    
   211  106  228 1    
   212  106  229 1    
   213  107  108 2    
   214  107  109 am   BACKBONE|DICT|INTERRES
   215  109  110 1    
   216  109  230 1    
   217  110  111 1    
   218  110  112 1    
   219  110  231 1    
   220  111  232 1    
   221  111  233 1    
   222  111  234 1    
   223  112  113 2    
   224  112  114 am   BACKBONE|DICT|INTERRES
   225  114  115 1    
   226  114  235 1    
   227  115  116 1    
   228  115  117 1    
   229  115  236 1    
   230  116  237 1    
   231  116  238 1    
   232  116  239 1    
   233  117  118 2    
   234  117  119 am   BACKBONE|DICT|INTERRES
   235  119  120 1    
   236  119  240 1    
   237  120  121 1    
   238  120  124 1    
   239  120  241 1    
   240  121  122 am   BACKBONE|DICT|INTERRES
   241  121  123 2    
   242  122  242 1    
   243  122  243 1    
   244  124  125 1    
   245  124  244 1    
   246  124  245 1    
   247  125  126 1    
   248  126  246 1    
   249  126  247 1    
@<TRIPOS>SUBSTRUCTURE
     1 UNK         1 GROUP             0       ****    0 ROOT    
