@<TRIPOS>MOLECULE
3R540
247   249    1
SMALL
USER_CHARGES


@<TRIPOS>ATOM
      1 CA          5.9352   -9.9232  -47.4146 C.3       0 UNK        -0.1800 
      2 C           6.1034  -11.3755  -46.9920 C.2       0 UNK         0.5000 
      3 O           7.1207  -11.7285  -46.3938 O.2       0 UNK        -0.5000 
      4 N           5.1087  -12.2182  -47.2948 N.am      1 UNK        -0.5000 
      5 CA          5.0616  -13.6537  -46.9866 C.3       1 UNK         0.1400 
      6 C6          4.0415  -14.4050  -47.8891 C.3       23 UNK        -0.0398 
      7 S7          4.2818  -14.1067  -49.6732 S.3       23 UNK        -0.2404 
      8 C8          5.1688  -15.6073  -50.1925 C.3       23 UNK        -0.0205 
      9 C9          4.2648  -16.8305  -50.2729 C.ar      23 UNK        -0.0193 
     10 C10         3.3013  -16.9279  -51.2813 C.ar      23 UNK        -0.1150 
     11 C11         2.5050  -18.0731  -51.4056 C.ar      23 UNK        -0.0193 
     12 C12         2.7116  -19.1393  -50.5217 C.ar      23 UNK        -0.1150 
     13 C13         3.6732  -19.0586  -49.5073 C.ar      23 UNK        -0.0193 
     14 C14         4.4337  -17.8924  -49.3805 C.ar      23 UNK        -0.1150 
     15 C15         3.9572  -20.2497  -48.5961 C.3       23 UNK        -0.0205 
     16 S16         2.6743  -20.5173  -47.3283 S.3       23 UNK        -0.2404 
     17 C17         1.4953  -21.5603  -48.2432 C.3       23 UNK        -0.0398 
     18 CA          0.5195  -22.3668  -47.3502 C.3       11 UNK         0.1400 
     19 N          -0.3685  -21.5180  -46.5433 N.am      11 UNK        -0.5000 
     20 C          -1.3161  -21.9690  -45.7051 C.2       10 UNK         0.5000 
     21 O          -1.4713  -23.1577  -45.4316 O.2       10 UNK        -0.5000 
     22 CA         -2.3123  -20.9449  -45.1274 C.3       10 UNK         0.1400 
     23 CB         -1.8533  -20.4342  -43.7541 C.3       10 UNK        -0.1800 
     24 N          -2.5836  -19.8253  -46.0312 N.am      10 UNK        -0.5000 
     25 C          -3.1479  -19.9483  -47.2427 C.2       9 UNK         0.5000 
     26 O          -3.5239  -21.0230  -47.7122 O.2       9 UNK        -0.5000 
     27 CA         -3.2709  -18.6692  -48.0874 C.3       9 UNK         0.1400 
     28 CB         -4.5219  -17.8752  -47.6843 C.3       9 UNK        -0.1800 
     29 N          -2.0763  -17.8314  -47.9686 N.am      9 UNK        -0.5000 
     30 C          -0.8909  -18.1396  -48.5163 C.2       8 UNK         0.5000 
     31 O          -0.7324  -19.0911  -49.2814 O.2       8 UNK        -0.5000 
     32 CA          0.3289  -17.2888  -48.1020 C.3       8 UNK         0.1400 
     33 CB          0.5383  -16.0990  -49.0386 C.3       8 UNK        -0.1800 
     34 N           0.2509  -16.7918  -46.7305 N.am      8 UNK        -0.5000 
     35 C           0.2705  -17.5727  -45.6453 C.2       7 UNK         0.5000 
     36 O           0.3912  -18.7942  -45.6882 O.2       7 UNK        -0.5000 
     37 CA          0.0575  -16.8827  -44.2900 C.3       7 UNK         0.1400 
     38 CB          1.3742  -16.3263  -43.7329 C.3       7 UNK        -0.1800 
     39 N          -0.9453  -15.8199  -44.3677 N.am      7 UNK        -0.5000 
     40 C          -2.2591  -16.0422  -44.5045 C.2       6 UNK         0.5000 
     41 O          -2.7583  -17.1662  -44.5555 O.2       6 UNK        -0.5000 
     42 CA         -3.1585  -14.8006  -44.6379 C.3       6 UNK         0.1400 
     43 CB         -3.3712  -14.1345  -43.2698 C.3       6 UNK        -0.1800 
     44 N          -2.6226  -13.8154  -45.5770 N.am      6 UNK        -0.5000 
     45 C          -2.5244  -14.0029  -46.9005 C.2       5 UNK         0.5000 
     46 O          -2.8943  -15.0232  -47.4805 O.2       5 UNK        -0.5000 
     47 CA         -1.8765  -12.8722  -47.7197 C.3       5 UNK         0.1400 
     48 CB         -2.9416  -11.8680  -48.1831 C.3       5 UNK        -0.1800 
     49 N          -0.7959  -12.1535  -47.0392 N.am      5 UNK        -0.5000 
     50 C           0.2987  -12.7127  -46.5063 C.2       4 UNK         0.5000 
     51 O           0.4697  -13.9294  -46.4120 O.2       4 UNK        -0.5000 
     52 CA          1.4125  -11.7717  -46.0189 C.3       4 UNK         0.1400 
     53 CB          1.1136  -10.2614  -46.1591 C.3       4 UNK        -0.1800 
     54 N           1.8362  -12.1250  -44.6663 N.am      4 UNK        -0.5000 
     55 C           1.1797  -11.9383  -43.5133 C.2       3 UNK         0.5000 
     56 O           0.0676  -11.4147  -43.4372 O.2       3 UNK        -0.5000 
     57 CA          1.8745  -12.4273  -42.2212 C.3       3 UNK         0.1400 
     58 CB          0.9464  -13.3498  -41.4134 C.3       3 UNK        -0.1800 
     59 N           3.1471  -13.1162  -42.4738 N.am      3 UNK        -0.5000 
     60 C           4.3190  -12.5074  -42.7082 C.2       2 UNK         0.5000 
     61 O           4.4757  -11.2874  -42.6516 O.2       2 UNK        -0.5000 
     62 CA          5.5070  -13.3963  -43.1339 C.3       2 UNK         0.1400 
     63 CB          5.4592  -14.8239  -42.5439 C.3       2 UNK        -0.1800 
     64 N           5.6485  -13.4255  -44.5958 N.am      2 UNK        -0.5000 
     65 C           4.7569  -13.8804  -45.4873 C.2       1 UNK         0.5000 
     66 O           3.6947  -14.4036  -45.1593 O.2       1 UNK        -0.5000 
     67 C          -0.2850  -23.3305  -48.2470 C.2       11 UNK         0.5000 
     68 O          -0.0396  -24.5355  -48.2277 O.2       11 UNK        -0.5000 
     69 N          -1.2479  -22.7791  -48.9978 N.am      12 UNK        -0.5000 
     70 CA         -2.1149  -23.5217  -49.9113 C.3       12 UNK         0.1400 
     71 CB         -2.8266  -22.5239  -50.8323 C.3       12 UNK        -0.1800 
     72 C          -3.1267  -24.4180  -49.1749 C.2       12 UNK         0.5000 
     73 O          -3.4548  -25.5017  -49.6634 O.2       12 UNK        -0.5000 
     74 N          -3.5935  -23.9638  -48.0035 N.am      13 UNK        -0.5000 
     75 CA         -4.4243  -24.7458  -47.0885 C.3       13 UNK         0.1400 
     76 CB         -4.9692  -23.8473  -45.9700 C.3       13 UNK        -0.1800 
     77 C          -3.6698  -25.9589  -46.5114 C.2       13 UNK         0.5000 
     78 O          -4.2163  -27.0600  -46.4991 O.2       13 UNK        -0.5000 
     79 N          -2.4164  -25.7564  -46.0873 N.am      14 UNK        -0.5000 
     80 CA         -1.5375  -26.8186  -45.5979 C.3       14 UNK         0.1400 
     81 CB         -0.2918  -26.1966  -44.9484 C.3       14 UNK        -0.1800 
     82 C          -1.1366  -27.8151  -46.7013 C.2       14 UNK         0.5000 
     83 O          -1.1001  -29.0195  -46.4458 O.2       14 UNK        -0.5000 
     84 N          -0.8413  -27.2966  -47.9007 N.am      15 UNK        -0.5000 
     85 CA         -0.3883  -28.0798  -49.0471 C.3       15 UNK         0.1400 
     86 CB          0.2307  -27.1452  -50.0981 C.3       15 UNK        -0.1800 
     87 C          -1.4908  -28.9411  -49.6852 C.2       15 UNK         0.5000 
     88 O          -1.2309  -30.1064  -49.9900 O.2       15 UNK        -0.5000 
     89 N          -2.6740  -28.3549  -49.9194 N.am      16 UNK        -0.5000 
     90 CA         -3.6983  -28.9502  -50.7838 C.3       16 UNK         0.1400 
     91 CB         -3.5015  -28.4044  -52.2118 C.3       16 UNK        -0.1800 
     92 C          -5.1423  -28.7262  -50.3029 C.2       16 UNK         0.5000 
     93 O          -6.0648  -29.0975  -51.0301 O.2       16 UNK        -0.5000 
     94 N          -5.3359  -28.1099  -49.1252 N.am      17 UNK        -0.5000 
     95 CA         -6.6336  -27.6909  -48.5656 C.3       17 UNK         0.1400 
     96 CB         -7.5217  -28.9115  -48.2430 C.3       17 UNK        -0.1800 
     97 C          -7.3580  -26.6330  -49.4290 C.2       17 UNK         0.5000 
     98 O          -8.5804  -26.5041  -49.3457 O.2       17 UNK        -0.5000 
     99 N          -6.5934  -25.9045  -50.2548 N.am      18 UNK        -0.5000 
    100 CA        -7.1182  -24.9883  -51.2634 C.3       18 UNK         0.1400 
    101 CB        -6.0855  -24.8449  -52.3915 C.3       18 UNK        -0.1800 
    102 C         -7.4972  -23.6141  -50.6902 C.2       18 UNK         0.5000 
    103 O         -8.4971  -23.0438  -51.1271 O.2       18 UNK        -0.5000 
    104 N         -6.6872  -23.1090  -49.7427 N.am      19 UNK        -0.5000 
    105 CA        -6.7839  -21.7774  -49.1215 C.3       19 UNK         0.1400 
    106 CB        -7.9762  -21.7240  -48.1457 C.3       19 UNK        -0.1800 
    107 C         -6.8029  -20.6440  -50.1739 C.2       19 UNK         0.5000 
    108 O         -7.6968  -19.7955  -50.1706 O.2       19 UNK        -0.5000 
    109 N         -5.8450  -20.7269  -51.1067 N.am      20 UNK        -0.5000 
    110 CA        -5.7627  -19.9493  -52.3411 C.3       20 UNK         0.1400 
    111 CB        -4.5761  -20.4772  -53.1646 C.3       20 UNK        -0.1800 
    112 C         -5.6322  -18.4277  -52.1458 C.2       20 UNK         0.5000 
    113 O         -5.1648  -17.9578  -51.1050 O.2       20 UNK        -0.5000 
    114 N         -5.9757  -17.6966  -53.2156 N.am      21 UNK        -0.5000 
    115 CA        -5.9515  -16.2341  -53.3377 C.3       21 UNK         0.1400 
    116 CB        -6.6138  -15.8476  -54.6706 C.3       21 UNK        -0.1800 
    117 C         -4.5590  -15.5773  -53.2087 C.2       21 UNK         0.5000 
    118 O         -4.4774  -14.3482  -53.1897 O.2       21 UNK        -0.5000 
    119 N         -3.4989  -16.3903  -53.1018 N.am      22 UNK        -0.5000 
    120 CA        -2.1581  -15.9778  -52.6609 C.3       22 UNK         0.1400 
    121 C         -2.1581  -15.3129  -51.2520 C.2       22 UNK         0.5000 
    122 N         -2.9963  -15.7684  -50.3254 N.am      22 UNK        -0.7600 
    123 O         -1.4180  -14.3635  -51.0168 O.2       22 UNK        -0.5000 
    124 C124       -1.1679  -17.1748  -52.7158 C.3       23 UNK        -0.0398 
    125 S125        0.5728  -16.6663  -52.9259 S.3       23 UNK        -0.2404 
    126 C126        1.4714  -18.2109  -52.5259 C.3       23 UNK        -0.0205 
    127 H127        4.9872   -9.7569  -47.9269 H         1 UNK         0.0600 
    128 H128        6.7416   -9.6327  -48.0879 H         1 UNK         0.0600 
    129 H129        5.9676   -9.2728  -46.5405 H         1 UNK         0.0600 
    130 H130        4.3177  -11.8667  -47.8136 H         1 UNK         0.3000 
    131 H131        6.0483  -14.0789  -47.1818 H         1 UNK         0.0600 
    132 H132        3.0215  -14.0979  -47.6540 H         1 UNK         0.0800 
    133 H133        4.0769  -15.4777  -47.6926 H         1 UNK         0.0800 
    134 H134        5.6044  -15.4293  -51.1767 H         1 UNK         0.0800 
    135 H135        6.0086  -15.7826  -49.5183 H         1 UNK         0.0800 
    136 H136        3.1835  -16.1095  -51.9772 H         1 UNK         0.1150 
    137 H137        2.1357  -20.0447  -50.6405 H         1 UNK         0.1150 
    138 H138        5.1898  -17.8277  -48.6107 H         1 UNK         0.1150 
    139 H139        4.0897  -21.1486  -49.1994 H         1 UNK         0.0800 
    140 H140        4.9078  -20.1033  -48.0810 H         1 UNK         0.0800 
    141 H141        2.0742  -22.2459  -48.8651 H         1 UNK         0.0800 
    142 H142        0.9420  -20.9241  -48.9307 H         1 UNK         0.0800 
    143 H143        1.1065  -22.9743  -46.6584 H         1 UNK         0.0600 
    144 H144       -0.2397  -20.5148  -46.6246 H         1 UNK         0.3000 
    145 H145       -3.2619  -21.4599  -44.9783 H         1 UNK         0.0600 
    146 H146       -2.5503  -19.7006  -43.3488 H         1 UNK         0.0600 
    147 H147       -1.7950  -21.2559  -43.0394 H         1 UNK         0.0600 
    148 H148       -0.8667  -19.9767  -43.7963 H         1 UNK         0.0600 
    149 H149       -2.3351  -18.9013  -45.6977 H         1 UNK         0.3000 
    150 H150       -3.3839  -18.9675  -49.1321 H         1 UNK         0.0600 
    151 H151       -5.4173  -18.4928  -47.7660 H         1 UNK         0.0600 
    152 H152       -4.6684  -17.0129  -48.3339 H         1 UNK         0.0600 
    153 H153       -4.4611  -17.5136  -46.6578 H         1 UNK         0.0600 
    154 H154       -2.1599  -16.9908  -47.4096 H         1 UNK         0.3000 
    155 H155        1.2082  -17.9309  -48.1776 H         1 UNK         0.0600 
    156 H156       -0.2220  -15.3360  -48.8835 H         1 UNK         0.0600 
    157 H157        0.4934  -16.4086  -50.0801 H         1 UNK         0.0600 
    158 H158        1.5123  -15.6387  -48.8790 H         1 UNK         0.0600 
    159 H159        0.1946  -15.7834  -46.6082 H         1 UNK         0.3000 
    160 H160       -0.2986  -17.6442  -43.5934 H         1 UNK         0.0600 
    161 H161        1.6041  -15.3549  -44.1663 H         1 UNK         0.0600 
    162 H162        2.2139  -16.9908  -43.9421 H         1 UNK         0.0600 
    163 H163        1.3219  -16.2131  -42.6511 H         1 UNK         0.0600 
    164 H164       -0.6028  -14.8719  -44.4301 H         1 UNK         0.3000 
    165 H165       -4.1299  -15.1324  -45.0112 H         1 UNK         0.0600 
    166 H166       -4.0785  -13.3080  -43.3403 H         1 UNK         0.0600 
    167 H167       -3.7748  -14.8457  -42.5479 H         1 UNK         0.0600 
    168 H168       -2.4387  -13.7433  -42.8602 H         1 UNK         0.0600 
    169 H169       -2.2764  -12.9502  -45.1883 H         1 UNK         0.3000 
    170 H170       -1.4386  -13.3290  -48.6071 H         1 UNK         0.0600 
    171 H171       -3.7456  -12.3730  -48.7207 H         1 UNK         0.0600 
    172 H172       -3.3896  -11.3386  -47.3413 H         1 UNK         0.0600 
    173 H173       -2.5175  -11.1272  -48.8611 H         1 UNK         0.0600 
    174 H174       -0.8543  -11.1458  -47.0539 H         1 UNK         0.3000 
    175 H175        2.2691  -11.9823  -46.6582 H         1 UNK         0.0600 
    176 H176        0.2266   -9.9569  -45.6032 H         1 UNK         0.0600 
    177 H177        1.9508   -9.6658  -45.7946 H         1 UNK         0.0600 
    178 H178        0.9607   -9.9867  -47.2035 H         1 UNK         0.0600 
    179 H179        2.6710  -12.6972  -44.6219 H         1 UNK         0.3000 
    180 H180        2.0752  -11.5438  -41.6118 H         1 UNK         0.0600 
    181 H181        0.5614  -14.1686  -42.0185 H         1 UNK         0.0600 
    182 H182        0.0836  -12.7972  -41.0395 H         1 UNK         0.0600 
    183 H183        1.4568  -13.7741  -40.5486 H         1 UNK         0.0600 
    184 H184        3.1011  -14.1174  -42.6006 H         1 UNK         0.3000 
    185 H185        6.4062  -12.9149  -42.7467 H         1 UNK         0.0600 
    186 H186        5.3730  -14.7924  -41.4570 H         1 UNK         0.0600 
    187 H187        4.6232  -15.4124  -42.9221 H         1 UNK         0.0600 
    188 H188        6.3737  -15.3689  -42.7776 H         1 UNK         0.0600 
    189 H189        6.4481  -12.9232  -44.9711 H         1 UNK         0.3000 
    190 H190       -1.4183  -21.7855  -48.9185 H         1 UNK         0.3000 
    191 H191       -1.4889  -24.1680  -50.5294 H         1 UNK         0.0600 
    192 H192       -2.1054  -21.9287  -51.3929 H         1 UNK         0.0600 
    193 H193       -3.4536  -23.0364  -51.5602 H         1 UNK         0.0600 
    194 H194       -3.4537  -21.8363  -50.2663 H         1 UNK         0.0600 
    195 H195       -3.3206  -23.0335  -47.7024 H         1 UNK         0.3000 
    196 H196       -5.2771  -25.1166  -47.6572 H         1 UNK         0.0600 
    197 H197       -5.7177  -24.3778  -45.3804 H         1 UNK         0.0600 
    198 H198       -5.4439  -22.9517  -46.3706 H         1 UNK         0.0600 
    199 H199       -4.1821  -23.5353  -45.2853 H         1 UNK         0.0600 
    200 H200       -2.0407  -24.8110  -46.0715 H         1 UNK         0.3000 
    201 H201       -2.0767  -27.3749  -44.8281 H         1 UNK         0.0600 
    202 H202       -0.5645  -25.5561  -44.1095 H         1 UNK         0.0600 
    203 H203        0.2738  -25.5923  -45.6585 H         1 UNK         0.0600 
    204 H204        0.3771  -26.9682  -44.5654 H         1 UNK         0.0600 
    205 H205       -0.8194  -26.2859  -48.0034 H         1 UNK         0.3000 
    206 H206        0.3981  -28.7546  -48.7019 H         1 UNK         0.0600 
    207 H207        1.0858  -26.6058  -49.6908 H         1 UNK         0.0600 
    208 H208        0.5848  -27.7077  -50.9630 H         1 UNK         0.0600 
    209 H209       -0.4899  -26.4101  -50.4572 H         1 UNK         0.0600 
    210 H210       -2.8073  -27.3796  -49.6687 H         1 UNK         0.3000 
    211 H211       -3.5777  -30.0348  -50.8157 H         1 UNK         0.0600 
    212 H212       -3.6316  -27.3218  -52.2448 H         1 UNK         0.0600 
    213 H213       -4.2150  -28.8438  -52.9099 H         1 UNK         0.0600 
    214 H214       -2.5044  -28.6328  -52.5885 H         1 UNK         0.0600 
    215 H215       -4.5295  -27.8705  -48.5621 H         1 UNK         0.3000 
    216 H216       -6.4333  -27.1977  -47.6171 H         1 UNK         0.0600 
    217 H217       -8.4034  -28.6132  -47.6747 H         1 UNK         0.0600 
    218 H218       -6.9822  -29.6418  -47.6399 H         1 UNK         0.0600 
    219 H219       -7.8729  -29.4131  -49.1448 H         1 UNK         0.0600 
    220 H220       -5.5934  -26.0600  -50.2492 H         1 UNK         0.3000 
    221 H221       -8.0218  -25.4232  -51.6968 H         1 UNK         0.0600 
    222 H222       -5.1204  -24.5111  -52.0144 H         1 UNK         0.0600 
    223 H223       -5.9298  -25.7963  -52.9008 H         1 UNK         0.0600 
    224 H224       -6.4165  -24.1251  -53.1415 H         1 UNK         0.0600 
    225 H225       -5.9059  -23.6751  -49.4490 H         1 UNK         0.3000 
    226 H226       -5.8768  -21.6389  -48.5349 H         1 UNK         0.0600 
    227 H227       -7.9080  -22.5146  -47.3985 H         1 UNK         0.0600 
    228 H228       -8.0004  -20.7735  -47.6116 H         1 UNK         0.0600 
    229 H229       -8.9293  -21.8344  -48.6637 H         1 UNK         0.0600 
    230 H230       -5.1590  -21.4571  -51.0063 H         1 UNK         0.3000 
    231 H231       -6.6831  -20.1387  -52.8973 H         1 UNK         0.0600 
    232 H232       -3.6269  -20.3050  -52.6556 H         1 UNK         0.0600 
    233 H233       -4.5177  -19.9864  -54.1369 H         1 UNK         0.0600 
    234 H234       -4.6689  -21.5470  -53.3537 H         1 UNK         0.0600 
    235 H235       -6.3116  -18.1861  -54.0326 H         1 UNK         0.3000 
    236 H236       -6.5605  -15.8316  -52.5260 H         1 UNK         0.0600 
    237 H237       -7.6336  -16.2284  -54.7308 H         1 UNK         0.0600 
    238 H238       -6.6693  -14.7641  -54.7842 H         1 UNK         0.0600 
    239 H239       -6.0569  -16.2385  -55.5230 H         1 UNK         0.0600 
    240 H240       -3.6757  -17.3822  -53.1243 H         1 UNK         0.3000 
    241 H241       -1.8234  -15.2221  -53.3742 H         1 UNK         0.0600 
    242 H242       -2.9917  -15.3688  -49.3939 H         1 UNK         0.3800 
    243 H243       -3.6423  -16.5181  -50.5384 H         1 UNK         0.3800 
    244 H244       -1.2664  -17.8027  -51.8277 H         1 UNK         0.0800 
    245 H245       -1.4047  -17.8181  -53.5646 H         1 UNK         0.0800 
    246 H246        1.9849  -18.5526  -53.4252 H         1 UNK         0.0800 
    247 H247        0.7541  -18.9927  -52.2712 H         1 UNK         0.0800 
@<TRIPOS>BOND
     1    1    2 1    
     2    1  127 1    
     3    1  128 1    
     4    1  129 1    
     5    2    3 2    
     6    2    4 am   BACKBONE|DICT|INTERRES
     7    4    5 1    
     8    4  130 1    
     9    5    6 1    
    10    5   65 1    
    11    5  131 1    
    12    6    7 1    
    13    6  132 1    
    14    6  133 1    
    15    7    8 1    
    16    8    9 1    
    17    8  134 1    
    18    8  135 1    
    19    9   10 ar   
    20    9   14 ar   
    21   10   11 ar   
    22   10  136 1    
    23   11   12 ar   
    24   11  126 1    
    25   12   13 ar   
    26   12  137 1    
    27   13   14 ar   
    28   13   15 1    
    29   14  138 1    
    30   15   16 1    
    31   15  139 1    
    32   15  140 1    
    33   16   17 1    
    34   17   18 1    
    35   17  141 1    
    36   17  142 1    
    37   18   19 1    
    38   18   67 1    
    39   18  143 1    
    40   19   20 am   BACKBONE|DICT|INTERRES
    41   19  144 1    
    42   20   21 2    
    43   20   22 1    
    44   22   23 1    
    45   22   24 1    
    46   22  145 1    
    47   23  146 1    
    48   23  147 1    
    49   23  148 1    
    50   24   25 am   BACKBONE|DICT|INTERRES
    51   24  149 1    
    52   25   26 2    
    53   25   27 1    
    54   27   28 1    
    55   27   29 1    
    56   27  150 1    
    57   28  151 1    
    58   28  152 1    
    59   28  153 1    
    60   29   30 am   BACKBONE|DICT|INTERRES
    61   29  154 1    
    62   30   31 2    
    63   30   32 1    
    64   32   33 1    
    65   32   34 1    
    66   32  155 1    
    67   33  156 1    
    68   33  157 1    
    69   33  158 1    
    70   34   35 am   BACKBONE|DICT|INTERRES
    71   34  159 1    
    72   35   36 2    
    73   35   37 1    
    74   37   38 1    
    75   37   39 1    
    76   37  160 1    
    77   38  161 1    
    78   38  162 1    
    79   38  163 1    
    80   39   40 am   BACKBONE|DICT|INTERRES
    81   39  164 1    
    82   40   41 2    
    83   40   42 1    
    84   42   43 1    
    85   42   44 1    
    86   42  165 1    
    87   43  166 1    
    88   43  167 1    
    89   43  168 1    
    90   44   45 am   BACKBONE|DICT|INTERRES
    91   44  169 1    
    92   45   46 2    
    93   45   47 1    
    94   47   48 1    
    95   47   49 1    
    96   47  170 1    
    97   48  171 1    
    98   48  172 1    
    99   48  173 1    
   100   49   50 am   BACKBONE|DICT|INTERRES
   101   49  174 1    
   102   50   51 2    
   103   50   52 1    
   104   52   53 1    
   105   52   54 1    
   106   52  175 1    
   107   53  176 1    
   108   53  177 1    
   109   53  178 1    
   110   54   55 am   BACKBONE|DICT|INTERRES
   111   54  179 1    
   112   55   56 2    
   113   55   57 1    
   114   57   58 1    
   115   57   59 1    
   116   57  180 1    
   117   58  181 1    
   118   58  182 1    
   119   58  183 1    
   120   59   60 am   BACKBONE|DICT|INTERRES
   121   59  184 1    
   122   60   61 2    
   123   60   62 1    
   124   62   63 1    
   125   62   64 1    
   126   62  185 1    
   127   63  186 1    
   128   63  187 1    
   129   63  188 1    
   130   64   65 am   BACKBONE|DICT|INTERRES
   131   64  189 1    
   132   65   66 2    
   133   67   68 2    
   134   67   69 am   BACKBONE|DICT|INTERRES
   135   69   70 1    
   136   69  190 1    
   137   70   71 1    
   138   70   72 1    
   139   70  191 1    
   140   71  192 1    
   141   71  193 1    
   142   71  194 1    
   143   72   73 2    
   144   72   74 am   BACKBONE|DICT|INTERRES
   145   74   75 1    
   146   74  195 1    
   147   75   76 1    
   148   75   77 1    
   149   75  196 1    
   150   76  197 1    
   151   76  198 1    
   152   76  199 1    
   153   77   78 2    
   154   77   79 am   BACKBONE|DICT|INTERRES
   155   79   80 1    
   156   79  200 1    
   157   80   81 1    
   158   80   82 1    
   159   80  201 1    
   160   81  202 1    
   161   81  203 1    
   162   81  204 1    
   163   82   83 2    
   164   82   84 am   BACKBONE|DICT|INTERRES
   165   84   85 1    
   166   84  205 1    
   167   85   86 1    
   168   85   87 1    
   169   85  206 1    
   170   86  207 1    
   171   86  208 1    
   172   86  209 1    
   173   87   88 2    
   174   87   89 am   BACKBONE|DICT|INTERRES
   175   89   90 1    
   176   89  210 1    
   177   90   91 1    
   178   90   92 1    
   179   90  211 1    
   180   91  212 1    
   181   91  213 1    
   182   91  214 1    
   183   92   93 2    
   184   92   94 am   BACKBONE|DICT|INTERRES
   185   94   95 1    
   186   94  215 1    
   187   95   96 1    
   188   95   97 1    
   189   95  216 1    
   190   96  217 1    
   191   96  218 1    
   192   96  219 1    
   193   97   98 2    
   194   97   99 am   BACKBONE|DICT|INTERRES
   195   99  100 1    
   196   99  220 1    
   197  100  101 1    
   198  100  102 1    
   199  100  221 1    
   200  101  222 1    
   201  101  223 1    
   202  101  224 1    
   203  102  103 2    
   204  102  104 am   BACKBONE|DICT|INTERRES
   205  104  105 1    
   206  104  225 1    
   207  105  106 1    
   208  105  107 1    
   209  105  226 1    
   210  106  227 1    
   211  106  228 1    
   212  106  229 1    
   213  107  108 2    
   214  107  109 am   BACKBONE|DICT|INTERRES
   215  109  110 1    
   216  109  230 1    
   217  110  111 1    
   218  110  112 1    
   219  110  231 1    
   220  111  232 1    
   221  111  233 1    
   222  111  234 1    
   223  112  113 2    
   224  112  114 am   BACKBONE|DICT|INTERRES
   225  114  115 1    
   226  114  235 1    
   227  115  116 1    
   228  115  117 1    
   229  115  236 1    
   230  116  237 1    
   231  116  238 1    
   232  116  239 1    
   233  117  118 2    
   234  117  119 am   BACKBONE|DICT|INTERRES
   235  119  120 1    
   236  119  240 1    
   237  120  121 1    
   238  120  124 1    
   239  120  241 1    
   240  121  122 am   BACKBONE|DICT|INTERRES
   241  121  123 2    
   242  122  242 1    
   243  122  243 1    
   244  124  125 1    
   245  124  244 1    
   246  124  245 1    
   247  125  126 1    
   248  126  246 1    
   249  126  247 1    
@<TRIPOS>SUBSTRUCTURE
     1 UNK         1 GROUP             0       ****    0 ROOT    
