@<TRIPOS>MOLECULE
3R540
247   249    1
SMALL
USER_CHARGES


@<TRIPOS>ATOM
      1 CA          3.4096  -11.7017  -50.0240 C.3       0 UNK        -0.1800 
      2 C           2.5026  -12.2896  -48.9541 C.2       0 UNK         0.5000 
      3 O           2.8373  -12.2389  -47.7696 O.2       0 UNK        -0.5000 
      4 N           1.3456  -12.8338  -49.3576 N.am      1 UNK        -0.5000 
      5 CA          0.3715  -13.4853  -48.4718 C.3       1 UNK         0.1400 
      6 C6         -0.7863  -14.1555  -49.2520 C.3       23 UNK        -0.0398 
      7 S7         -0.3443  -15.5090  -50.4036 S.3       23 UNK        -0.2404 
      8 C8          1.2098  -16.2227  -49.7687 C.3       23 UNK        -0.0205 
      9 C9          1.5792  -17.4769  -50.5442 C.ar      23 UNK        -0.0193 
     10 C10         2.1167  -17.3628  -51.8275 C.ar      23 UNK        -0.1150 
     11 C11         2.4197  -18.5023  -52.5754 C.ar      23 UNK        -0.0193 
     12 C12         2.2117  -19.7668  -52.0194 C.ar      23 UNK        -0.1150 
     13 C13         1.6811  -19.8976  -50.7323 C.ar      23 UNK        -0.0193 
     14 C14         1.3631  -18.7475  -49.9998 C.ar      23 UNK        -0.1150 
     15 C15         1.3772  -21.2828  -50.1791 C.3       23 UNK        -0.0205 
     16 S16         2.5793  -21.8345  -48.9236 S.3       23 UNK        -0.2404 
     17 C17         1.7171  -21.4126  -47.3678 C.3       23 UNK        -0.0398 
     18 CA          0.9108  -22.5824  -46.7428 C.3       11 UNK         0.1400 
     19 N           0.4331  -22.2493  -45.3969 N.am      11 UNK        -0.5000 
     20 C          -0.2234  -23.0840  -44.5764 C.2       10 UNK         0.5000 
     21 O          -0.4602  -24.2619  -44.8415 O.2       10 UNK        -0.5000 
     22 CA         -0.7559  -22.4910  -43.2592 C.3       10 UNK         0.1400 
     23 CB          0.3738  -22.3374  -42.2306 C.3       10 UNK        -0.1800 
     24 N          -1.4315  -21.2070  -43.4520 N.am      10 UNK        -0.5000 
     25 C          -2.5324  -21.0329  -44.1993 C.2       9 UNK         0.5000 
     26 O          -3.1262  -21.9468  -44.7708 O.2       9 UNK        -0.5000 
     27 CA         -3.0139  -19.5844  -44.3955 C.3       9 UNK         0.1400 
     28 CB         -3.7802  -19.0810  -43.1634 C.3       9 UNK        -0.1800 
     29 N          -1.9127  -18.6714  -44.6965 N.am      9 UNK        -0.5000 
     30 C          -1.1109  -18.7728  -45.7661 C.2       8 UNK         0.5000 
     31 O          -1.2375  -19.6174  -46.6502 O.2       8 UNK        -0.5000 
     32 CA          0.0670  -17.7946  -45.8271 C.3       8 UNK         0.1400 
     33 CB         -0.4176  -16.4208  -46.3037 C.3       8 UNK        -0.1800 
     34 N           0.7370  -17.6875  -44.5301 N.am      8 UNK        -0.5000 
     35 C           1.4597  -18.6763  -43.9804 C.2       7 UNK         0.5000 
     36 O           1.6864  -19.7450  -44.5460 O.2       7 UNK        -0.5000 
     37 CA          1.9729  -18.4670  -42.5442 C.3       7 UNK         0.1400 
     38 CB          3.3941  -17.8859  -42.5401 C.3       7 UNK        -0.1800 
     39 N           1.0829  -17.6158  -41.7557 N.am      7 UNK        -0.5000 
     40 C          -0.1145  -18.0144  -41.3014 C.2       6 UNK         0.5000 
     41 O          -0.5596  -19.1505  -41.4663 O.2       6 UNK        -0.5000 
     42 CA         -0.9837  -16.9545  -40.5971 C.3       6 UNK         0.1400 
     43 CB         -0.6702  -16.9103  -39.0947 C.3       6 UNK        -0.1800 
     44 N          -0.8275  -15.6131  -41.1645 N.am      6 UNK        -0.5000 
     45 C          -1.1186  -15.2825  -42.4298 C.2       5 UNK         0.5000 
     46 O          -1.5969  -16.0791  -43.2372 O.2       5 UNK        -0.5000 
     47 CA         -0.7922  -13.8448  -42.8849 C.3       5 UNK         0.1400 
     48 CB         -0.7554  -12.8246  -41.7269 C.3       5 UNK        -0.1800 
     49 N           0.4469  -13.7569  -43.6663 N.am      5 UNK        -0.5000 
     50 C           1.6728  -14.1719  -43.3103 C.2       4 UNK         0.5000 
     51 O           1.9098  -14.8105  -42.2842 O.2       4 UNK        -0.5000 
     52 CA          2.8450  -13.7816  -44.2334 C.3       4 UNK         0.1400 
     53 CB          3.0626  -14.8058  -45.3570 C.3       4 UNK        -0.1800 
     54 N           2.7086  -12.4476  -44.8196 N.am      4 UNK        -0.5000 
     55 C           2.7834  -11.3001  -44.1298 C.2       3 UNK         0.5000 
     56 O           2.9819  -11.2394  -42.9159 O.2       3 UNK        -0.5000 
     57 CA          2.6045  -10.0013  -44.9329 C.3       3 UNK         0.1400 
     58 CB          3.9106   -9.6127  -45.6437 C.3       3 UNK        -0.1800 
     59 N           1.5330  -10.1299  -45.9187 N.am      3 UNK        -0.5000 
     60 C           0.2352   -9.9276  -45.6515 C.2       2 UNK         0.5000 
     61 O          -0.1877   -9.5495  -44.5585 O.2       2 UNK        -0.5000 
     62 CA         -0.7648  -10.1986  -46.7935 C.3       2 UNK         0.1400 
     63 CB         -1.0361   -8.9119  -47.5876 C.3       2 UNK        -0.1800 
     64 N          -0.3226  -11.2456  -47.7168 N.am      2 UNK        -0.5000 
     65 C          -0.1921  -12.5390  -47.3902 C.2       1 UNK         0.5000 
     66 O          -0.4560  -12.9886  -46.2755 O.2       1 UNK        -0.5000 
     67 C          -0.2487  -23.0328  -47.6555 C.2       11 UNK         0.5000 
     68 O          -0.1668  -24.1002  -48.2623 O.2       11 UNK        -0.5000 
     69 N          -1.3137  -22.2218  -47.7209 N.am      12 UNK        -0.5000 
     70 CA         -2.4896  -22.4604  -48.5559 C.3       12 UNK         0.1400 
     71 CB         -3.4066  -21.2317  -48.5057 C.3       12 UNK        -0.1800 
     72 C          -3.2613  -23.7306  -48.1618 C.2       12 UNK         0.5000 
     73 O          -3.7649  -24.4236  -49.0478 O.2       12 UNK        -0.5000 
     74 N          -3.3234  -24.0181  -46.8544 N.am      13 UNK        -0.5000 
     75 CA         -3.8977  -25.2397  -46.2965 C.3       13 UNK         0.1400 
     76 CB         -4.1024  -25.0736  -44.7833 C.3       13 UNK        -0.1800 
     77 C          -3.0365  -26.4775  -46.5992 C.2       13 UNK         0.5000 
     78 O          -3.5817  -27.4969  -47.0207 O.2       13 UNK        -0.5000 
     79 N          -1.7119  -26.3641  -46.4170 N.am      14 UNK        -0.5000 
     80 CA         -0.7368  -27.4232  -46.6987 C.3       14 UNK         0.1400 
     81 CB          0.6459  -27.0075  -46.1745 C.3       14 UNK        -0.1800 
     82 C          -0.6626  -27.7907  -48.1921 C.2       14 UNK         0.5000 
     83 O          -0.5439  -28.9702  -48.5256 O.2       14 UNK        -0.5000 
     84 N          -0.7764  -26.7781  -49.0612 N.am      15 UNK        -0.5000 
     85 CA         -0.8782  -26.9226  -50.5139 C.3       15 UNK         0.1400 
     86 CB         -0.6163  -25.5523  -51.1613 C.3       15 UNK        -0.1800 
     87 C          -2.2408  -27.4746  -50.9815 C.2       15 UNK         0.5000 
     88 O          -2.3515  -27.8889  -52.1359 O.2       15 UNK        -0.5000 
     89 N          -3.2511  -27.4383  -50.0971 N.am      16 UNK        -0.5000 
     90 CA         -4.6641  -27.7607  -50.3306 C.3       16 UNK         0.1400 
     91 CB         -4.8448  -29.2616  -50.6370 C.3       16 UNK        -0.1800 
     92 C          -5.3153  -26.8409  -51.3866 C.2       16 UNK         0.5000 
     93 O          -6.2160  -27.2650  -52.1131 O.2       16 UNK        -0.5000 
     94 N          -4.8292  -25.5964  -51.4548 N.am      17 UNK        -0.5000 
     95 CA         -5.2515  -24.5758  -52.4066 C.3       17 UNK         0.1400 
     96 CB         -4.0225  -23.7508  -52.8244 C.3       17 UNK        -0.1800 
     97 C          -6.3272  -23.6632  -51.8019 C.2       17 UNK         0.5000 
     98 O          -7.2988  -23.3422  -52.4880 O.2       17 UNK        -0.5000 
     99 N          -6.1228  -23.2665  -50.5342 N.am      18 UNK        -0.5000 
    100 CA        -6.8922  -22.2653  -49.7827 C.3       18 UNK         0.1400 
    101 CB        -8.3210  -22.7833  -49.5095 C.3       18 UNK        -0.1800 
    102 C         -6.8807  -20.8668  -50.4515 C.2       18 UNK         0.5000 
    103 O         -6.1088  -20.6318  -51.3849 O.2       18 UNK        -0.5000 
    104 N         -7.7279  -19.9574  -49.9467 N.am      19 UNK        -0.5000 
    105 CA        -8.0336  -18.6267  -50.4872 C.3       19 UNK         0.1400 
    106 CB        -8.9976  -18.7740  -51.6864 C.3       19 UNK        -0.1800 
    107 C         -6.7799  -17.7746  -50.7965 C.2       19 UNK         0.5000 
    108 O         -6.0787  -17.3718  -49.8678 O.2       19 UNK        -0.5000 
    109 N         -6.5257  -17.5197  -52.0870 N.am      20 UNK        -0.5000 
    110 CA        -5.4168  -16.7178  -52.6082 C.3       20 UNK         0.1400 
    111 CB        -5.8400  -16.1412  -53.9704 C.3       20 UNK        -0.1800 
    112 C         -4.0818  -17.4848  -52.7277 C.2       20 UNK         0.5000 
    113 O         -3.1159  -16.9163  -53.2416 O.2       20 UNK        -0.5000 
    114 N         -4.0410  -18.7503  -52.2836 N.am      21 UNK        -0.5000 
    115 CA        -2.8892  -19.6534  -52.3079 C.3       21 UNK         0.1400 
    116 CB        -1.7817  -19.1441  -51.3631 C.3       21 UNK        -0.1800 
    117 C         -2.4201  -19.9141  -53.7538 C.2       21 UNK         0.5000 
    118 O         -3.1811  -20.5044  -54.5224 O.2       21 UNK        -0.5000 
    119 N         -1.2075  -19.4682  -54.1126 N.am      22 UNK        -0.5000 
    120 CA        -0.6932  -19.5161  -55.4908 C.3       22 UNK         0.1400 
    121 C         -1.3444  -18.4904  -56.4704 C.2       22 UNK         0.5000 
    122 N         -2.1333  -17.5253  -56.0089 N.am      22 UNK        -0.7600 
    123 O         -1.1403  -18.5831  -57.6780 O.2       22 UNK        -0.5000 
    124 C124        0.8589  -19.4969  -55.5431 C.3       23 UNK        -0.0398 
    125 S125        1.6333  -17.8857  -55.1518 S.3       23 UNK        -0.2404 
    126 C126        2.9541  -18.3538  -53.9893 C.3       23 UNK        -0.0205 
    127 H127        2.9812  -11.8065  -51.0210 H         1 UNK         0.0600 
    128 H128        3.5752  -10.6415  -49.8328 H         1 UNK         0.0600 
    129 H129        4.3754  -12.2064  -50.0129 H         1 UNK         0.0600 
    130 H130        1.1204  -12.8479  -50.3424 H         1 UNK         0.3000 
    131 H131        0.9151  -14.2579  -47.9328 H         1 UNK         0.0600 
    132 H132       -1.3303  -13.4039  -49.8266 H         1 UNK         0.0800 
    133 H133       -1.5167  -14.5707  -48.5552 H         1 UNK         0.0800 
    134 H134        1.1131  -16.4586  -48.7101 H         1 UNK         0.0800 
    135 H135        2.0176  -15.4954  -49.8569 H         1 UNK         0.0800 
    136 H136        2.2696  -16.3830  -52.2585 H         1 UNK         0.1150 
    137 H137        2.4410  -20.6502  -52.5985 H         1 UNK         0.1150 
    138 H138        0.9220  -18.8393  -49.0186 H         1 UNK         0.1150 
    139 H139        0.3658  -21.2878  -49.7758 H         1 UNK         0.0800 
    140 H140        1.3723  -22.0163  -50.9869 H         1 UNK         0.0800 
    141 H141        1.0848  -20.5391  -47.5179 H         1 UNK         0.0800 
    142 H142        2.4899  -21.0968  -46.6663 H         1 UNK         0.0800 
    143 H143        1.5861  -23.4336  -46.6334 H         1 UNK         0.0600 
    144 H144        0.6216  -21.3034  -45.0795 H         1 UNK         0.3000 
    145 H145       -1.4894  -23.1907  -42.8534 H         1 UNK         0.0600 
    146 H146       -0.0068  -21.9673  -41.2783 H         1 UNK         0.0600 
    147 H147        0.8575  -23.2957  -42.0377 H         1 UNK         0.0600 
    148 H148        1.1425  -21.6464  -42.5755 H         1 UNK         0.0600 
    149 H149       -1.0346  -20.4057  -42.9718 H         1 UNK         0.3000 
    150 H150       -3.6951  -19.5734  -45.2489 H         1 UNK         0.0600 
    151 H151       -4.6330  -19.7250  -42.9456 H         1 UNK         0.0600 
    152 H152       -4.1646  -18.0734  -43.3234 H         1 UNK         0.0600 
    153 H153       -3.1498  -19.0599  -42.2745 H         1 UNK         0.0600 
    154 H154       -1.7537  -17.9097  -44.0445 H         1 UNK         0.3000 
    155 H155        0.7911  -18.1702  -46.5530 H         1 UNK         0.0600 
    156 H156        0.3834  -15.6902  -46.2718 H         1 UNK         0.0600 
    157 H157       -0.7797  -16.4830  -47.3292 H         1 UNK         0.0600 
    158 H158       -1.2397  -16.0312  -45.7062 H         1 UNK         0.0600 
    159 H159        0.5236  -16.8732  -43.9728 H         1 UNK         0.3000 
    160 H160        2.0185  -19.4475  -42.0663 H         1 UNK         0.0600 
    161 H161        3.7864  -17.8175  -41.5254 H         1 UNK         0.0600 
    162 H162        3.4305  -16.8898  -42.9776 H         1 UNK         0.0600 
    163 H163        4.0756  -18.5191  -43.1097 H         1 UNK         0.0600 
    164 H164        1.3628  -16.6469  -41.6350 H         1 UNK         0.3000 
    165 H165       -2.0277  -17.2496  -40.7209 H         1 UNK         0.0600 
    166 H166       -1.3364  -16.2232  -38.5726 H         1 UNK         0.0600 
    167 H167       -0.7980  -17.8938  -38.6403 H         1 UNK         0.0600 
    168 H168        0.3561  -16.5922  -38.9067 H         1 UNK         0.0600 
    169 H169       -0.4012  -14.9151  -40.5725 H         1 UNK         0.3000 
    170 H170       -1.5991  -13.5494  -43.5573 H         1 UNK         0.0600 
    171 H171       -1.6723  -12.8633  -41.1373 H         1 UNK         0.0600 
    172 H172        0.0845  -12.9928  -41.0520 H         1 UNK         0.0600 
    173 H173       -0.6641  -11.8087  -42.1124 H         1 UNK         0.0600 
    174 H174        0.3362  -13.3143  -44.5749 H         1 UNK         0.3000 
    175 H175        3.7431  -13.7830  -43.6119 H         1 UNK         0.0600 
    176 H176        2.3423  -14.6771  -46.1609 H         1 UNK         0.0600 
    177 H177        4.0549  -14.6933  -45.7940 H         1 UNK         0.0600 
    178 H178        2.9815  -15.8311  -44.9974 H         1 UNK         0.0600 
    179 H179        2.6004  -12.4000  -45.8282 H         1 UNK         0.3000 
    180 H180        2.3571   -9.2019  -44.2308 H         1 UNK         0.0600 
    181 H181        4.2250  -10.3707  -46.3617 H         1 UNK         0.0600 
    182 H182        4.7214   -9.4863  -44.9252 H         1 UNK         0.0600 
    183 H183        3.8012   -8.6696  -46.1793 H         1 UNK         0.0600 
    184 H184        1.7952  -10.4928  -46.8255 H         1 UNK         0.3000 
    185 H185       -1.7029  -10.5237  -46.3386 H         1 UNK         0.0600 
    186 H186       -1.3922   -8.1162  -46.9319 H         1 UNK         0.0600 
    187 H187       -0.1363   -8.5487  -48.0857 H         1 UNK         0.0600 
    188 H188       -1.8010   -9.0710  -48.3479 H         1 UNK         0.0600 
    189 H189       -0.0692  -10.9547  -48.6499 H         1 UNK         0.3000 
    190 H190       -1.3021  -21.3460  -47.2003 H         1 UNK         0.3000 
    191 H191       -2.1414  -22.5847  -49.5833 H         1 UNK         0.0600 
    192 H192       -3.8919  -21.1268  -47.5344 H         1 UNK         0.0600 
    193 H193       -4.1819  -21.2971  -49.2666 H         1 UNK         0.0600 
    194 H194       -2.8518  -20.3148  -48.6955 H         1 UNK         0.0600 
    195 H195       -2.9409  -23.3530  -46.1891 H         1 UNK         0.3000 
    196 H196       -4.8771  -25.3938  -46.7547 H         1 UNK         0.0600 
    197 H197       -4.5335  -25.9745  -44.3451 H         1 UNK         0.0600 
    198 H198       -4.7823  -24.2493  -44.5675 H         1 UNK         0.0600 
    199 H199       -3.1623  -24.8733  -44.2681 H         1 UNK         0.0600 
    200 H200       -1.3375  -25.4994  -46.0351 H         1 UNK         0.3000 
    201 H201       -1.0505  -28.3166  -46.1549 H         1 UNK         0.0600 
    202 H202        0.6241  -26.8400  -45.0976 H         1 UNK         0.0600 
    203 H203        0.9967  -26.0901  -46.6485 H         1 UNK         0.0600 
    204 H204        1.3879  -27.7831  -46.3677 H         1 UNK         0.0600 
    205 H205       -0.7805  -25.8268  -48.6996 H         1 UNK         0.3000 
    206 H206       -0.1055  -27.6174  -50.8490 H         1 UNK         0.0600 
    207 H207        0.3670  -25.1683  -50.8890 H         1 UNK         0.0600 
    208 H208       -0.6497  -25.6178  -52.2495 H         1 UNK         0.0600 
    209 H209       -1.3595  -24.8154  -50.8537 H         1 UNK         0.0600 
    210 H210       -3.0433  -27.0972  -49.1675 H         1 UNK         0.3000 
    211 H211       -5.1798  -27.5520  -49.3924 H         1 UNK         0.0600 
    212 H212       -4.4150  -29.5346  -51.6010 H         1 UNK         0.0600 
    213 H213       -5.9013  -29.5306  -50.6628 H         1 UNK         0.0600 
    214 H214       -4.3729  -29.8780  -49.8718 H         1 UNK         0.0600 
    215 H215       -4.1511  -25.3160  -50.7539 H         1 UNK         0.3000 
    216 H216       -5.6646  -25.0467  -53.3012 H         1 UNK         0.0600 
    217 H217       -4.3000  -22.9701  -53.5341 H         1 UNK         0.0600 
    218 H218       -3.2730  -24.3786  -53.3067 H         1 UNK         0.0600 
    219 H219       -3.5502  -23.2640  -51.9701 H         1 UNK         0.0600 
    220 H220       -5.3004  -23.6249  -50.0625 H         1 UNK         0.3000 
    221 H221       -6.3897  -22.1568  -48.8210 H         1 UNK         0.0600 
    222 H222       -8.9315  -22.7863  -50.4131 H         1 UNK         0.0600 
    223 H223       -8.3013  -23.8006  -49.1181 H         1 UNK         0.0600 
    224 H224       -8.8343  -22.1694  -48.7692 H         1 UNK         0.0600 
    225 H225       -8.2770  -20.2237  -49.1420 H         1 UNK         0.3000 
    226 H226       -8.5703  -18.0914  -49.7026 H         1 UNK         0.0600 
    227 H227       -9.9177  -19.2740  -51.3835 H         1 UNK         0.0600 
    228 H228       -9.2837  -17.8012  -52.0888 H         1 UNK         0.0600 
    229 H229       -8.5605  -19.3599  -52.4960 H         1 UNK         0.0600 
    230 H230       -7.1389  -17.9281  -52.7775 H         1 UNK         0.3000 
    231 H231       -5.2415  -15.8819  -51.9280 H         1 UNK         0.0600 
    232 H232       -6.7594  -15.5616  -53.8858 H         1 UNK         0.0600 
    233 H233       -5.0761  -15.4736  -54.3712 H         1 UNK         0.0600 
    234 H234       -6.0050  -16.9296  -54.7058 H         1 UNK         0.0600 
    235 H235       -4.9011  -19.1698  -51.9424 H         1 UNK         0.3000 
    236 H236       -3.2432  -20.6087  -51.9174 H         1 UNK         0.0600 
    237 H237       -1.0094  -19.9019  -51.2515 H         1 UNK         0.0600 
    238 H238       -1.3076  -18.2295  -51.7207 H         1 UNK         0.0600 
    239 H239       -2.1742  -18.9310  -50.3701 H         1 UNK         0.0600 
    240 H240       -0.6498  -18.9558  -53.4443 H         1 UNK         0.3000 
    241 H241       -0.9825  -20.4913  -55.8879 H         1 UNK         0.0600 
    242 H242       -2.3164  -17.4238  -55.0158 H         1 UNK         0.3800 
    243 H243       -2.5461  -16.8752  -56.6580 H         1 UNK         0.3800 
    244 H244        1.2513  -20.2639  -54.8747 H         1 UNK         0.0800 
    245 H245        1.1942  -19.7860  -56.5405 H         1 UNK         0.0800 
    246 H246        3.4432  -19.2694  -54.3257 H         1 UNK         0.0800 
    247 H247        3.7216  -17.5786  -54.0006 H         1 UNK         0.0800 
@<TRIPOS>BOND
     1    1    2 1    
     2    1  127 1    
     3    1  128 1    
     4    1  129 1    
     5    2    3 2    
     6    2    4 am   BACKBONE|DICT|INTERRES
     7    4    5 1    
     8    4  130 1    
     9    5    6 1    
    10    5   65 1    
    11    5  131 1    
    12    6    7 1    
    13    6  132 1    
    14    6  133 1    
    15    7    8 1    
    16    8    9 1    
    17    8  134 1    
    18    8  135 1    
    19    9   10 ar   
    20    9   14 ar   
    21   10   11 ar   
    22   10  136 1    
    23   11   12 ar   
    24   11  126 1    
    25   12   13 ar   
    26   12  137 1    
    27   13   14 ar   
    28   13   15 1    
    29   14  138 1    
    30   15   16 1    
    31   15  139 1    
    32   15  140 1    
    33   16   17 1    
    34   17   18 1    
    35   17  141 1    
    36   17  142 1    
    37   18   19 1    
    38   18   67 1    
    39   18  143 1    
    40   19   20 am   BACKBONE|DICT|INTERRES
    41   19  144 1    
    42   20   21 2    
    43   20   22 1    
    44   22   23 1    
    45   22   24 1    
    46   22  145 1    
    47   23  146 1    
    48   23  147 1    
    49   23  148 1    
    50   24   25 am   BACKBONE|DICT|INTERRES
    51   24  149 1    
    52   25   26 2    
    53   25   27 1    
    54   27   28 1    
    55   27   29 1    
    56   27  150 1    
    57   28  151 1    
    58   28  152 1    
    59   28  153 1    
    60   29   30 am   BACKBONE|DICT|INTERRES
    61   29  154 1    
    62   30   31 2    
    63   30   32 1    
    64   32   33 1    
    65   32   34 1    
    66   32  155 1    
    67   33  156 1    
    68   33  157 1    
    69   33  158 1    
    70   34   35 am   BACKBONE|DICT|INTERRES
    71   34  159 1    
    72   35   36 2    
    73   35   37 1    
    74   37   38 1    
    75   37   39 1    
    76   37  160 1    
    77   38  161 1    
    78   38  162 1    
    79   38  163 1    
    80   39   40 am   BACKBONE|DICT|INTERRES
    81   39  164 1    
    82   40   41 2    
    83   40   42 1    
    84   42   43 1    
    85   42   44 1    
    86   42  165 1    
    87   43  166 1    
    88   43  167 1    
    89   43  168 1    
    90   44   45 am   BACKBONE|DICT|INTERRES
    91   44  169 1    
    92   45   46 2    
    93   45   47 1    
    94   47   48 1    
    95   47   49 1    
    96   47  170 1    
    97   48  171 1    
    98   48  172 1    
    99   48  173 1    
   100   49   50 am   BACKBONE|DICT|INTERRES
   101   49  174 1    
   102   50   51 2    
   103   50   52 1    
   104   52   53 1    
   105   52   54 1    
   106   52  175 1    
   107   53  176 1    
   108   53  177 1    
   109   53  178 1    
   110   54   55 am   BACKBONE|DICT|INTERRES
   111   54  179 1    
   112   55   56 2    
   113   55   57 1    
   114   57   58 1    
   115   57   59 1    
   116   57  180 1    
   117   58  181 1    
   118   58  182 1    
   119   58  183 1    
   120   59   60 am   BACKBONE|DICT|INTERRES
   121   59  184 1    
   122   60   61 2    
   123   60   62 1    
   124   62   63 1    
   125   62   64 1    
   126   62  185 1    
   127   63  186 1    
   128   63  187 1    
   129   63  188 1    
   130   64   65 am   BACKBONE|DICT|INTERRES
   131   64  189 1    
   132   65   66 2    
   133   67   68 2    
   134   67   69 am   BACKBONE|DICT|INTERRES
   135   69   70 1    
   136   69  190 1    
   137   70   71 1    
   138   70   72 1    
   139   70  191 1    
   140   71  192 1    
   141   71  193 1    
   142   71  194 1    
   143   72   73 2    
   144   72   74 am   BACKBONE|DICT|INTERRES
   145   74   75 1    
   146   74  195 1    
   147   75   76 1    
   148   75   77 1    
   149   75  196 1    
   150   76  197 1    
   151   76  198 1    
   152   76  199 1    
   153   77   78 2    
   154   77   79 am   BACKBONE|DICT|INTERRES
   155   79   80 1    
   156   79  200 1    
   157   80   81 1    
   158   80   82 1    
   159   80  201 1    
   160   81  202 1    
   161   81  203 1    
   162   81  204 1    
   163   82   83 2    
   164   82   84 am   BACKBONE|DICT|INTERRES
   165   84   85 1    
   166   84  205 1    
   167   85   86 1    
   168   85   87 1    
   169   85  206 1    
   170   86  207 1    
   171   86  208 1    
   172   86  209 1    
   173   87   88 2    
   174   87   89 am   BACKBONE|DICT|INTERRES
   175   89   90 1    
   176   89  210 1    
   177   90   91 1    
   178   90   92 1    
   179   90  211 1    
   180   91  212 1    
   181   91  213 1    
   182   91  214 1    
   183   92   93 2    
   184   92   94 am   BACKBONE|DICT|INTERRES
   185   94   95 1    
   186   94  215 1    
   187   95   96 1    
   188   95   97 1    
   189   95  216 1    
   190   96  217 1    
   191   96  218 1    
   192   96  219 1    
   193   97   98 2    
   194   97   99 am   BACKBONE|DICT|INTERRES
   195   99  100 1    
   196   99  220 1    
   197  100  101 1    
   198  100  102 1    
   199  100  221 1    
   200  101  222 1    
   201  101  223 1    
   202  101  224 1    
   203  102  103 2    
   204  102  104 am   BACKBONE|DICT|INTERRES
   205  104  105 1    
   206  104  225 1    
   207  105  106 1    
   208  105  107 1    
   209  105  226 1    
   210  106  227 1    
   211  106  228 1    
   212  106  229 1    
   213  107  108 2    
   214  107  109 am   BACKBONE|DICT|INTERRES
   215  109  110 1    
   216  109  230 1    
   217  110  111 1    
   218  110  112 1    
   219  110  231 1    
   220  111  232 1    
   221  111  233 1    
   222  111  234 1    
   223  112  113 2    
   224  112  114 am   BACKBONE|DICT|INTERRES
   225  114  115 1    
   226  114  235 1    
   227  115  116 1    
   228  115  117 1    
   229  115  236 1    
   230  116  237 1    
   231  116  238 1    
   232  116  239 1    
   233  117  118 2    
   234  117  119 am   BACKBONE|DICT|INTERRES
   235  119  120 1    
   236  119  240 1    
   237  120  121 1    
   238  120  124 1    
   239  120  241 1    
   240  121  122 am   BACKBONE|DICT|INTERRES
   241  121  123 2    
   242  122  242 1    
   243  122  243 1    
   244  124  125 1    
   245  124  244 1    
   246  124  245 1    
   247  125  126 1    
   248  126  246 1    
   249  126  247 1    
@<TRIPOS>SUBSTRUCTURE
     1 UNK         1 GROUP             0       ****    0 ROOT    
