@<TRIPOS>MOLECULE
3R540
247   249    1
SMALL
USER_CHARGES


@<TRIPOS>ATOM
      1 CA          6.9270  -13.2786  -46.7514 C.3       0 UNK        -0.1800 
      2 C           5.5244  -13.3820  -47.3344 C.2       0 UNK         0.5000 
      3 O           4.9360  -12.3614  -47.6927 O.2       0 UNK        -0.5000 
      4 N           4.9960  -14.6092  -47.4349 N.am      1 UNK        -0.5000 
      5 CA          3.6471  -14.9341  -47.9142 C.3       1 UNK         0.1400 
      6 C6          3.4213  -14.5166  -49.3970 C.3       23 UNK        -0.0398 
      7 S7          2.1844  -15.5476  -50.2566 S.3       23 UNK        -0.2404 
      8 C8          3.2430  -16.7255  -51.1444 C.3       23 UNK        -0.0205 
      9 C9          2.4112  -17.6611  -52.0065 C.ar      23 UNK        -0.0193 
     10 C10         2.1922  -17.3675  -53.3558 C.ar      23 UNK        -0.1150 
     11 C11         1.4347  -18.2274  -54.1558 C.ar      23 UNK        -0.0193 
     12 C12         0.9110  -19.3972  -53.5964 C.ar      23 UNK        -0.1150 
     13 C13         1.1012  -19.6929  -52.2434 C.ar      23 UNK        -0.0193 
     14 C14         1.8546  -18.8181  -51.4538 C.ar      23 UNK        -0.1150 
     15 C15         0.4452  -20.9276  -51.6379 C.3       23 UNK        -0.0205 
     16 S16         1.6625  -22.1623  -51.0752 S.3       23 UNK        -0.2404 
     17 C17         1.7904  -21.7470  -49.3022 C.3       23 UNK        -0.0398 
     18 CA          2.3703  -22.8658  -48.4023 C.3       11 UNK         0.1400 
     19 N           2.4749  -22.3742  -47.0326 N.am      11 UNK        -0.5000 
     20 C           3.5239  -22.5076  -46.2167 C.2       10 UNK         0.5000 
     21 O           4.5324  -23.1598  -46.4916 O.2       10 UNK        -0.5000 
     22 CA          3.4127  -21.7429  -44.8791 C.3       10 UNK         0.1400 
     23 CB          4.7588  -21.6103  -44.1383 C.3       10 UNK        -0.1800 
     24 N           2.7714  -20.4301  -45.0426 N.am      10 UNK        -0.5000 
     25 C           3.1858  -19.4043  -45.8063 C.2       9 UNK         0.5000 
     26 O           4.2412  -19.4002  -46.4399 O.2       9 UNK        -0.5000 
     27 CA          2.2515  -18.1805  -45.9163 C.3       9 UNK         0.1400 
     28 CB          1.5950  -18.1413  -47.3054 C.3       9 UNK        -0.1800 
     29 N           1.2001  -18.1507  -44.8994 N.am      9 UNK        -0.5000 
     30 C           1.4009  -17.8793  -43.6021 C.2       8 UNK         0.5000 
     31 O           2.4869  -17.5448  -43.1288 O.2       8 UNK        -0.5000 
     32 CA          0.1918  -18.0753  -42.6711 C.3       8 UNK         0.1400 
     33 CB         -0.6629  -16.8022  -42.5979 C.3       8 UNK        -0.1800 
     34 N          -0.6420  -19.2027  -43.0947 N.am      8 UNK        -0.5000 
     35 C          -0.2920  -20.4895  -42.9579 C.2       7 UNK         0.5000 
     36 O           0.7606  -20.8602  -42.4399 O.2       7 UNK        -0.5000 
     37 CA         -1.2564  -21.5394  -43.5315 C.3       7 UNK         0.1400 
     38 CB         -2.3801  -21.8490  -42.5305 C.3       7 UNK        -0.1800 
     39 N          -1.8344  -21.1280  -44.8099 N.am      7 UNK        -0.5000 
     40 C          -1.1749  -21.1444  -45.9762 C.2       6 UNK         0.5000 
     41 O          -0.0520  -21.6290  -46.1190 O.2       6 UNK        -0.5000 
     42 CA         -1.8657  -20.5005  -47.1929 C.3       6 UNK         0.1400 
     43 CB         -2.4153  -21.5792  -48.1338 C.3       6 UNK        -0.1800 
     44 N          -2.9351  -19.5588  -46.8518 N.am      6 UNK        -0.5000 
     45 C          -2.7649  -18.4156  -46.1785 C.2       5 UNK         0.5000 
     46 O          -1.6712  -18.0348  -45.7584 O.2       5 UNK        -0.5000 
     47 CA         -4.0155  -17.5614  -45.9467 C.3       5 UNK         0.1400 
     48 CB         -4.0222  -16.9063  -44.5539 C.3       5 UNK        -0.1800 
     49 N          -4.0714  -16.5326  -46.9791 N.am      5 UNK        -0.5000 
     50 C          -5.2026  -16.0240  -47.4805 C.2       4 UNK         0.5000 
     51 O          -6.3231  -16.3392  -47.0774 O.2       4 UNK        -0.5000 
     52 CA         -5.0452  -14.9596  -48.5807 C.3       4 UNK         0.1400 
     53 CB         -6.4100  -14.4387  -49.0879 C.3       4 UNK        -0.1800 
     54 N          -4.2097  -13.8772  -48.0584 N.am      4 UNK        -0.5000 
     55 C          -3.7716  -12.8086  -48.7372 C.2       3 UNK         0.5000 
     56 O          -4.0187  -12.5884  -49.9220 O.2       3 UNK        -0.5000 
     57 CA         -2.8913  -11.8167  -47.9535 C.3       3 UNK         0.1400 
     58 CB         -3.7507  -10.9247  -47.0435 C.3       3 UNK        -0.1800 
     59 N          -1.8575  -12.4792  -47.1538 N.am      3 UNK        -0.5000 
     60 C          -0.8180  -13.1419  -47.6770 C.2       2 UNK         0.5000 
     61 O          -0.6220  -13.2604  -48.8883 O.2       2 UNK        -0.5000 
     62 CA          0.1616  -13.7811  -46.6826 C.3       2 UNK         0.1400 
     63 CB         -0.4868  -14.9671  -45.9503 C.3       2 UNK        -0.1800 
     64 N           1.3315  -14.2412  -47.4208 N.am      2 UNK        -0.5000 
     65 C           2.5551  -14.4447  -46.9260 C.2       1 UNK         0.5000 
     66 O           2.8306  -14.2958  -45.7326 O.2       1 UNK        -0.5000 
     67 C           1.5289  -24.1572  -48.4372 C.2       11 UNK         0.5000 
     68 O           1.9016  -25.1028  -49.1335 O.2       11 UNK        -0.5000 
     69 N           0.4292  -24.1917  -47.6719 N.am      12 UNK        -0.5000 
     70 CA         -0.5015  -25.3167  -47.6144 C.3       12 UNK         0.1400 
     71 CB         -1.4361  -25.3190  -48.8426 C.3       12 UNK        -0.1800 
     72 C          -1.2621  -25.2702  -46.2845 C.2       12 UNK         0.5000 
     73 O          -2.4863  -25.1334  -46.2702 O.2       12 UNK        -0.5000 
     74 N          -0.5197  -25.3741  -45.1750 N.am      13 UNK        -0.5000 
     75 CA         -1.0489  -25.3252  -43.8070 C.3       13 UNK         0.1400 
     76 CB          0.1214  -25.2408  -42.8156 C.3       13 UNK        -0.1800 
     77 C          -2.0032  -26.4776  -43.4403 C.2       13 UNK         0.5000 
     78 O          -2.8280  -26.3113  -42.5419 O.2       13 UNK        -0.5000 
     79 N          -1.9025  -27.6055  -44.1565 N.am      14 UNK        -0.5000 
     80 CA         -2.8279  -28.7347  -44.0525 C.3       14 UNK         0.1400 
     81 CB         -2.2149  -29.9506  -44.7641 C.3       14 UNK        -0.1800 
     82 C          -4.2250  -28.4209  -44.6271 C.2       14 UNK         0.5000 
     83 O          -5.2086  -29.0023  -44.1671 O.2       14 UNK        -0.5000 
     84 N          -4.2869  -27.5169  -45.6149 N.am      15 UNK        -0.5000 
     85 CA         -5.5229  -27.0624  -46.2493 C.3       15 UNK         0.1400 
     86 CB         -5.2749  -26.8624  -47.7538 C.3       15 UNK        -0.1800 
     87 C          -6.0317  -25.7578  -45.6161 C.2       15 UNK         0.5000 
     88 O          -7.2366  -25.6231  -45.4009 O.2       15 UNK        -0.5000 
     89 N          -5.1057  -24.8204  -45.3536 N.am      16 UNK        -0.5000 
     90 CA         -5.3358  -23.4487  -44.8826 C.3       16 UNK         0.1400 
     91 CB         -5.8792  -23.4427  -43.4395 C.3       16 UNK        -0.1800 
     92 C          -6.1940  -22.6248  -45.8685 C.2       16 UNK         0.5000 
     93 O          -7.0427  -21.8326  -45.4554 O.2       16 UNK        -0.5000 
     94 N          -5.9604  -22.8618  -47.1655 N.am      17 UNK        -0.5000 
     95 CA         -6.6692  -22.2638  -48.2936 C.3       17 UNK         0.1400 
     96 CB         -6.2988  -23.0650  -49.5543 C.3       17 UNK        -0.1800 
     97 C          -6.3436  -20.7715  -48.4937 C.2       17 UNK         0.5000 
     98 O          -5.3831  -20.2538  -47.9216 O.2       17 UNK        -0.5000 
     99 N          -7.1094  -20.1222  -49.3785 N.am      18 UNK        -0.5000 
    100 CA        -6.8938  -18.7416  -49.8266 C.3       18 UNK         0.1400 
    101 CB        -8.2154  -18.1975  -50.3927 C.3       18 UNK        -0.1800 
    102 C         -5.7521  -18.5920  -50.8585 C.2       18 UNK         0.5000 
    103 O         -5.5081  -17.4818  -51.3318 O.2       18 UNK        -0.5000 
    104 N         -5.0823  -19.7052  -51.1954 N.am      19 UNK        -0.5000 
    105 CA        -4.0870  -19.8684  -52.2602 C.3       19 UNK         0.1400 
    106 CB        -3.5832  -21.3208  -52.2461 C.3       19 UNK        -0.1800 
    107 C         -2.8952  -18.8924  -52.2366 C.2       19 UNK         0.5000 
    108 O         -2.2906  -18.6783  -53.2832 O.2       19 UNK        -0.5000 
    109 N         -2.5961  -18.2933  -51.0754 N.am      20 UNK        -0.5000 
    110 CA        -1.5665  -17.2625  -50.9046 C.3       20 UNK         0.1400 
    111 CB        -1.3573  -17.0099  -49.4056 C.3       20 UNK        -0.1800 
    112 C         -1.8491  -15.9349  -51.6413 C.2       20 UNK         0.5000 
    113 O         -0.9489  -15.1026  -51.7293 O.2       20 UNK        -0.5000 
    114 N         -3.0688  -15.7506  -52.1695 N.am      21 UNK        -0.5000 
    115 CA        -3.5165  -14.5597  -52.9000 C.3       21 UNK         0.1400 
    116 CB        -4.9777  -14.7626  -53.3282 C.3       21 UNK        -0.1800 
    117 C         -2.6454  -14.1471  -54.1090 C.2       21 UNK         0.5000 
    118 O         -2.6385  -12.9665  -54.4612 O.2       21 UNK        -0.5000 
    119 N         -1.9176  -15.0988  -54.7095 N.am      22 UNK        -0.5000 
    120 CA        -0.8828  -14.8434  -55.7280 C.3       22 UNK         0.1400 
    121 C          0.4805  -14.3312  -55.1712 C.2       22 UNK         0.5000 
    122 N          0.6970  -14.2471  -53.8649 N.am      22 UNK        -0.7600 
    123 O          1.3630  -13.9789  -55.9494 O.2       22 UNK        -0.5000 
    124 C124       -0.7061  -16.0301  -56.7162 C.3       23 UNK        -0.0398 
    125 S125       -0.6060  -17.6802  -55.9427 S.3       23 UNK        -0.2404 
    126 C126        1.1750  -17.8965  -55.6203 C.3       23 UNK        -0.0205 
    127 H127        7.3306  -14.2566  -46.4879 H         1 UNK         0.0600 
    128 H128        6.9146  -12.6628  -45.8521 H         1 UNK         0.0600 
    129 H129        7.6004  -12.8165  -47.4733 H         1 UNK         0.0600 
    130 H130        5.5299  -15.3960  -47.0934 H         1 UNK         0.3000 
    131 H131        3.6077  -16.0226  -47.8729 H         1 UNK         0.0600 
    132 H132        3.1228  -13.4693  -49.4694 H         1 UNK         0.0800 
    133 H133        4.3586  -14.5859  -49.9506 H         1 UNK         0.0800 
    134 H134        3.8298  -17.3010  -50.4268 H         1 UNK         0.0800 
    135 H135        3.9561  -16.1807  -51.7651 H         1 UNK         0.0800 
    136 H136        2.6048  -16.4630  -53.7798 H         1 UNK         0.1150 
    137 H137        0.3165  -20.0570  -54.2126 H         1 UNK         0.1150 
    138 H138        1.9972  -19.0240  -50.4046 H         1 UNK         0.1150 
    139 H139       -0.2119  -20.6249  -50.8218 H         1 UNK         0.0800 
    140 H140       -0.2024  -21.4066  -52.3738 H         1 UNK         0.0800 
    141 H141        0.8086  -21.4467  -48.9341 H         1 UNK         0.0800 
    142 H142        2.4275  -20.8668  -49.2152 H         1 UNK         0.0800 
    143 H143        3.3660  -23.1125  -48.7776 H         1 UNK         0.0600 
    144 H144        1.6623  -21.8780  -46.6753 H         1 UNK         0.3000 
    145 H145        2.7454  -22.3310  -44.2473 H         1 UNK         0.0600 
    146 H146        4.6379  -21.0726  -43.1979 H         1 UNK         0.0600 
    147 H147        5.1715  -22.5912  -43.9002 H         1 UNK         0.0600 
    148 H148        5.5011  -21.0798  -44.7353 H         1 UNK         0.0600 
    149 H149        1.8910  -20.3203  -44.5598 H         1 UNK         0.3000 
    150 H150        2.8673  -17.2873  -45.7975 H         1 UNK         0.0600 
    151 H151        2.3458  -18.1018  -48.0951 H         1 UNK         0.0600 
    152 H152        0.9594  -17.2640  -47.4183 H         1 UNK         0.0600 
    153 H153        0.9853  -19.0258  -47.4831 H         1 UNK         0.0600 
    154 H154        0.2520  -18.3375  -45.2101 H         1 UNK         0.3000 
    155 H155        0.5731  -18.2838  -41.6691 H         1 UNK         0.0600 
    156 H156       -1.4812  -16.9163  -41.8870 H         1 UNK         0.0600 
    157 H157       -0.0659  -15.9485  -42.2747 H         1 UNK         0.0600 
    158 H158       -1.0936  -16.5527  -43.5659 H         1 UNK         0.0600 
    159 H159       -1.4866  -18.9715  -43.5966 H         1 UNK         0.3000 
    160 H160       -0.6702  -22.4435  -43.6925 H         1 UNK         0.0600 
    161 H161       -3.0131  -20.9793  -42.3502 H         1 UNK         0.0600 
    162 H162       -1.9700  -22.1616  -41.5691 H         1 UNK         0.0600 
    163 H163       -3.0170  -22.6581  -42.8845 H         1 UNK         0.0600 
    164 H164       -2.7574  -20.7222  -44.7899 H         1 UNK         0.3000 
    165 H165       -1.1030  -19.9455  -47.7379 H         1 UNK         0.0600 
    166 H166       -2.9232  -21.1334  -48.9881 H         1 UNK         0.0600 
    167 H167       -1.6076  -22.1965  -48.5262 H         1 UNK         0.0600 
    168 H168       -3.1228  -22.2360  -47.6269 H         1 UNK         0.0600 
    169 H169       -3.8679  -19.7994  -47.1911 H         1 UNK         0.3000 
    170 H170       -4.8860  -18.2174  -46.0221 H         1 UNK         0.0600 
    171 H171       -3.8721  -17.6470  -43.7676 H         1 UNK         0.0600 
    172 H172       -3.2378  -16.1558  -44.4580 H         1 UNK         0.0600 
    173 H173       -4.9749  -16.4140  -44.3585 H         1 UNK         0.0600 
    174 H174       -3.1784  -16.2397  -47.3481 H         1 UNK         0.3000 
    175 H175       -4.5234  -15.4286  -49.4172 H         1 UNK         0.0600 
    176 H176       -7.0512  -15.2637  -49.4002 H         1 UNK         0.0600 
    177 H177       -6.9397  -13.8827  -48.3137 H         1 UNK         0.0600 
    178 H178       -6.3018  -13.7882  -49.9548 H         1 UNK         0.0600 
    179 H179       -3.9604  -13.9577  -47.0823 H         1 UNK         0.3000 
    180 H180       -2.3930  -11.1720  -48.6809 H         1 UNK         0.0600 
    181 H181       -4.2509  -11.5014  -46.2646 H         1 UNK         0.0600 
    182 H182       -4.5227  -10.4111  -47.6181 H         1 UNK         0.0600 
    183 H183       -3.1459  -10.1587  -46.5580 H         1 UNK         0.0600 
    184 H184       -1.9470  -12.4117  -46.1503 H         1 UNK         0.3000 
    185 H185        0.4647  -13.0192  -45.9616 H         1 UNK         0.0600 
    186 H186        0.2186  -15.4408  -45.2689 H         1 UNK         0.0600 
    187 H187       -1.3456  -14.6509  -45.3580 H         1 UNK         0.0600 
    188 H188       -0.8303  -15.7247  -46.6536 H         1 UNK         0.0600 
    189 H189        1.1676  -14.3446  -48.4174 H         1 UNK         0.3000 
    190 H190        0.2095  -23.3986  -47.0785 H         1 UNK         0.3000 
    191 H191        0.0658  -26.2498  -47.6173 H         1 UNK         0.0600 
    192 H192       -2.0707  -24.4345  -48.8762 H         1 UNK         0.0600 
    193 H193       -2.0932  -26.1892  -48.8263 H         1 UNK         0.0600 
    194 H194       -0.8723  -25.3609  -49.7745 H         1 UNK         0.0600 
    195 H195        0.4800  -25.4834  -45.2687 H         1 UNK         0.3000 
    196 H196       -1.6445  -24.4181  -43.7217 H         1 UNK         0.0600 
    197 H197       -0.2403  -25.1532  -41.7901 H         1 UNK         0.0600 
    198 H198        0.7474  -24.3702  -43.0124 H         1 UNK         0.0600 
    199 H199        0.7541  -26.1277  -42.8663 H         1 UNK         0.0600 
    200 H200       -1.1802  -27.6688  -44.8582 H         1 UNK         0.3000 
    201 H201       -2.9513  -28.9833  -42.9962 H         1 UNK         0.0600 
    202 H202       -1.2564  -30.2244  -44.3228 H         1 UNK         0.0600 
    203 H203       -2.0544  -29.7580  -45.8257 H         1 UNK         0.0600 
    204 H204       -2.8685  -30.8202  -44.6836 H         1 UNK         0.0600 
    205 H205       -3.4372  -27.0491  -45.8999 H         1 UNK         0.3000 
    206 H206       -6.3025  -27.8191  -46.1371 H         1 UNK         0.0600 
    207 H207       -4.9548  -27.7913  -48.2259 H         1 UNK         0.0600 
    208 H208       -6.1857  -26.5384  -48.2590 H         1 UNK         0.0600 
    209 H209       -4.5091  -26.1099  -47.9448 H         1 UNK         0.0600 
    210 H210       -4.1418  -25.0239  -45.6119 H         1 UNK         0.3000 
    211 H211       -4.3564  -22.9694  -44.8690 H         1 UNK         0.0600 
    212 H212       -6.8899  -23.8478  -43.3844 H         1 UNK         0.0600 
    213 H213       -5.9105  -22.4290  -43.0386 H         1 UNK         0.0600 
    214 H214       -5.2448  -24.0338  -42.7785 H         1 UNK         0.0600 
    215 H215       -5.2344  -23.5221  -47.3973 H         1 UNK         0.3000 
    216 H216       -7.7419  -22.3583  -48.1131 H         1 UNK         0.0600 
    217 H217       -5.2331  -22.9946  -49.7777 H         1 UNK         0.0600 
    218 H218       -6.8431  -22.7101  -50.4302 H         1 UNK         0.0600 
    219 H219       -6.5443  -24.1206  -49.4352 H         1 UNK         0.0600 
    220 H220       -7.8738  -20.6153  -49.8182 H         1 UNK         0.3000 
    221 H221       -6.6238  -18.1379  -48.9610 H         1 UNK         0.0600 
    222 H222       -9.0092  -18.2376  -49.6465 H         1 UNK         0.0600 
    223 H223       -8.5432  -18.7648  -51.2647 H         1 UNK         0.0600 
    224 H224       -8.1154  -17.1554  -50.6988 H         1 UNK         0.0600 
    225 H225       -5.3599  -20.5539  -50.7283 H         1 UNK         0.3000 
    226 H226       -4.6086  -19.7008  -53.2045 H         1 UNK         0.0600 
    227 H227       -4.4042  -22.0273  -52.3696 H         1 UNK         0.0600 
    228 H228       -2.8807  -21.4986  -53.0617 H         1 UNK         0.0600 
    229 H229       -3.0687  -21.5617  -51.3159 H         1 UNK         0.0600 
    230 H230       -3.1620  -18.5139  -50.2706 H         1 UNK         0.3000 
    231 H231       -0.6355  -17.6503  -51.3167 H         1 UNK         0.0600 
    232 H232       -2.2589  -16.6148  -48.9446 H         1 UNK         0.0600 
    233 H233       -0.5630  -16.2819  -49.2381 H         1 UNK         0.0600 
    234 H234       -1.0732  -17.9224  -48.8849 H         1 UNK         0.0600 
    235 H235       -3.7650  -16.4742  -52.0311 H         1 UNK         0.3000 
    236 H236       -3.4828  -13.7266  -52.1976 H         1 UNK         0.0600 
    237 H237       -5.6244  -14.9059  -52.4620 H         1 UNK         0.0600 
    238 H238       -5.3533  -13.8943  -53.8712 H         1 UNK         0.0600 
    239 H239       -5.0876  -15.6321  -53.9774 H         1 UNK         0.0600 
    240 H240       -1.9630  -16.0461  -54.3581 H         1 UNK         0.3000 
    241 H241       -1.2408  -14.0114  -56.3373 H         1 UNK         0.0600 
    242 H242        1.5821  -13.8989  -53.5366 H         1 UNK         0.3800 
    243 H243        0.0028  -14.5477  -53.1826 H         1 UNK         0.3800 
    244 H244        0.1465  -15.8815  -57.3811 H         1 UNK         0.0800 
    245 H245       -1.5737  -16.0557  -57.3767 H         1 UNK         0.0800 
    246 H246        1.5516  -18.7091  -56.2427 H         1 UNK         0.0800 
    247 H247        1.7258  -17.0029  -55.9166 H         1 UNK         0.0800 
@<TRIPOS>BOND
     1    1    2 1    
     2    1  127 1    
     3    1  128 1    
     4    1  129 1    
     5    2    3 2    
     6    2    4 am   BACKBONE|DICT|INTERRES
     7    4    5 1    
     8    4  130 1    
     9    5    6 1    
    10    5   65 1    
    11    5  131 1    
    12    6    7 1    
    13    6  132 1    
    14    6  133 1    
    15    7    8 1    
    16    8    9 1    
    17    8  134 1    
    18    8  135 1    
    19    9   10 ar   
    20    9   14 ar   
    21   10   11 ar   
    22   10  136 1    
    23   11   12 ar   
    24   11  126 1    
    25   12   13 ar   
    26   12  137 1    
    27   13   14 ar   
    28   13   15 1    
    29   14  138 1    
    30   15   16 1    
    31   15  139 1    
    32   15  140 1    
    33   16   17 1    
    34   17   18 1    
    35   17  141 1    
    36   17  142 1    
    37   18   19 1    
    38   18   67 1    
    39   18  143 1    
    40   19   20 am   BACKBONE|DICT|INTERRES
    41   19  144 1    
    42   20   21 2    
    43   20   22 1    
    44   22   23 1    
    45   22   24 1    
    46   22  145 1    
    47   23  146 1    
    48   23  147 1    
    49   23  148 1    
    50   24   25 am   BACKBONE|DICT|INTERRES
    51   24  149 1    
    52   25   26 2    
    53   25   27 1    
    54   27   28 1    
    55   27   29 1    
    56   27  150 1    
    57   28  151 1    
    58   28  152 1    
    59   28  153 1    
    60   29   30 am   BACKBONE|DICT|INTERRES
    61   29  154 1    
    62   30   31 2    
    63   30   32 1    
    64   32   33 1    
    65   32   34 1    
    66   32  155 1    
    67   33  156 1    
    68   33  157 1    
    69   33  158 1    
    70   34   35 am   BACKBONE|DICT|INTERRES
    71   34  159 1    
    72   35   36 2    
    73   35   37 1    
    74   37   38 1    
    75   37   39 1    
    76   37  160 1    
    77   38  161 1    
    78   38  162 1    
    79   38  163 1    
    80   39   40 am   BACKBONE|DICT|INTERRES
    81   39  164 1    
    82   40   41 2    
    83   40   42 1    
    84   42   43 1    
    85   42   44 1    
    86   42  165 1    
    87   43  166 1    
    88   43  167 1    
    89   43  168 1    
    90   44   45 am   BACKBONE|DICT|INTERRES
    91   44  169 1    
    92   45   46 2    
    93   45   47 1    
    94   47   48 1    
    95   47   49 1    
    96   47  170 1    
    97   48  171 1    
    98   48  172 1    
    99   48  173 1    
   100   49   50 am   BACKBONE|DICT|INTERRES
   101   49  174 1    
   102   50   51 2    
   103   50   52 1    
   104   52   53 1    
   105   52   54 1    
   106   52  175 1    
   107   53  176 1    
   108   53  177 1    
   109   53  178 1    
   110   54   55 am   BACKBONE|DICT|INTERRES
   111   54  179 1    
   112   55   56 2    
   113   55   57 1    
   114   57   58 1    
   115   57   59 1    
   116   57  180 1    
   117   58  181 1    
   118   58  182 1    
   119   58  183 1    
   120   59   60 am   BACKBONE|DICT|INTERRES
   121   59  184 1    
   122   60   61 2    
   123   60   62 1    
   124   62   63 1    
   125   62   64 1    
   126   62  185 1    
   127   63  186 1    
   128   63  187 1    
   129   63  188 1    
   130   64   65 am   BACKBONE|DICT|INTERRES
   131   64  189 1    
   132   65   66 2    
   133   67   68 2    
   134   67   69 am   BACKBONE|DICT|INTERRES
   135   69   70 1    
   136   69  190 1    
   137   70   71 1    
   138   70   72 1    
   139   70  191 1    
   140   71  192 1    
   141   71  193 1    
   142   71  194 1    
   143   72   73 2    
   144   72   74 am   BACKBONE|DICT|INTERRES
   145   74   75 1    
   146   74  195 1    
   147   75   76 1    
   148   75   77 1    
   149   75  196 1    
   150   76  197 1    
   151   76  198 1    
   152   76  199 1    
   153   77   78 2    
   154   77   79 am   BACKBONE|DICT|INTERRES
   155   79   80 1    
   156   79  200 1    
   157   80   81 1    
   158   80   82 1    
   159   80  201 1    
   160   81  202 1    
   161   81  203 1    
   162   81  204 1    
   163   82   83 2    
   164   82   84 am   BACKBONE|DICT|INTERRES
   165   84   85 1    
   166   84  205 1    
   167   85   86 1    
   168   85   87 1    
   169   85  206 1    
   170   86  207 1    
   171   86  208 1    
   172   86  209 1    
   173   87   88 2    
   174   87   89 am   BACKBONE|DICT|INTERRES
   175   89   90 1    
   176   89  210 1    
   177   90   91 1    
   178   90   92 1    
   179   90  211 1    
   180   91  212 1    
   181   91  213 1    
   182   91  214 1    
   183   92   93 2    
   184   92   94 am   BACKBONE|DICT|INTERRES
   185   94   95 1    
   186   94  215 1    
   187   95   96 1    
   188   95   97 1    
   189   95  216 1    
   190   96  217 1    
   191   96  218 1    
   192   96  219 1    
   193   97   98 2    
   194   97   99 am   BACKBONE|DICT|INTERRES
   195   99  100 1    
   196   99  220 1    
   197  100  101 1    
   198  100  102 1    
   199  100  221 1    
   200  101  222 1    
   201  101  223 1    
   202  101  224 1    
   203  102  103 2    
   204  102  104 am   BACKBONE|DICT|INTERRES
   205  104  105 1    
   206  104  225 1    
   207  105  106 1    
   208  105  107 1    
   209  105  226 1    
   210  106  227 1    
   211  106  228 1    
   212  106  229 1    
   213  107  108 2    
   214  107  109 am   BACKBONE|DICT|INTERRES
   215  109  110 1    
   216  109  230 1    
   217  110  111 1    
   218  110  112 1    
   219  110  231 1    
   220  111  232 1    
   221  111  233 1    
   222  111  234 1    
   223  112  113 2    
   224  112  114 am   BACKBONE|DICT|INTERRES
   225  114  115 1    
   226  114  235 1    
   227  115  116 1    
   228  115  117 1    
   229  115  236 1    
   230  116  237 1    
   231  116  238 1    
   232  116  239 1    
   233  117  118 2    
   234  117  119 am   BACKBONE|DICT|INTERRES
   235  119  120 1    
   236  119  240 1    
   237  120  121 1    
   238  120  124 1    
   239  120  241 1    
   240  121  122 am   BACKBONE|DICT|INTERRES
   241  121  123 2    
   242  122  242 1    
   243  122  243 1    
   244  124  125 1    
   245  124  244 1    
   246  124  245 1    
   247  125  126 1    
   248  126  246 1    
   249  126  247 1    
@<TRIPOS>SUBSTRUCTURE
     1 UNK         1 GROUP             0       ****    0 ROOT    
