@<TRIPOS>MOLECULE
3R540
247   249    1
SMALL
USER_CHARGES


@<TRIPOS>ATOM
      1 CA          6.0215  -14.1613  -44.5606 C.3       0 UNK        -0.1800 
      2 C           5.1408  -13.2161  -45.3638 C.2       0 UNK         0.5000 
      3 O           5.6213  -12.5759  -46.2987 O.2       0 UNK        -0.5000 
      4 N           3.8650  -13.0977  -44.9751 N.am      1 UNK        -0.5000 
      5 CA          2.8003  -12.2611  -45.5483 C.3       1 UNK         0.1400 
      6 C6          2.5172  -12.5041  -47.0513 C.3       23 UNK        -0.0398 
      7 S7          1.9605  -14.2125  -47.3485 S.3       23 UNK        -0.2404 
      8 C8          1.8233  -14.2093  -49.1571 C.3       23 UNK        -0.0205 
      9 C9          1.0870  -15.4431  -49.6521 C.ar      23 UNK        -0.0193 
     10 C10        -0.2923  -15.3902  -49.8805 C.ar      23 UNK        -0.1150 
     11 C11        -0.9718  -16.5105  -50.3656 C.ar      23 UNK        -0.0193 
     12 C12        -0.2568  -17.6772  -50.6425 C.ar      23 UNK        -0.1150 
     13 C13         1.1092  -17.7629  -50.3670 C.ar      23 UNK        -0.0193 
     14 C14         1.7805  -16.6368  -49.8809 C.ar      23 UNK        -0.1150 
     15 C15         1.8443  -19.0786  -50.5842 C.3       23 UNK        -0.0205 
     16 S16         1.7465  -20.1672  -49.1221 S.3       23 UNK        -0.2404 
     17 C17        -0.0452  -20.4983  -49.0378 C.3       23 UNK        -0.0398 
     18 CA         -0.4090  -21.7333  -48.1834 C.3       11 UNK         0.1400 
     19 N          -0.1513  -21.5330  -46.7507 N.am      11 UNK        -0.5000 
     20 C          -0.2906  -22.4835  -45.8139 C.2       10 UNK         0.5000 
     21 O          -0.6119  -23.6439  -46.0642 O.2       10 UNK        -0.5000 
     22 CA         -0.0927  -22.0702  -44.3448 C.3       10 UNK         0.1400 
     23 CB          1.3987  -21.9554  -43.9962 C.3       10 UNK        -0.1800 
     24 N          -0.7868  -20.8275  -44.0099 N.am      10 UNK        -0.5000 
     25 C          -2.1182  -20.6691  -44.0412 C.2       9 UNK         0.5000 
     26 O          -2.9081  -21.5746  -44.3058 O.2       9 UNK        -0.5000 
     27 CA         -2.6597  -19.2479  -43.7950 C.3       9 UNK         0.1400 
     28 CB         -2.7196  -18.9312  -42.2941 C.3       9 UNK        -0.1800 
     29 N          -1.8832  -18.2203  -44.4898 N.am      9 UNK        -0.5000 
     30 C          -1.7169  -18.1725  -45.8199 C.2       8 UNK         0.5000 
     31 O          -2.2348  -18.9696  -46.5994 O.2       8 UNK        -0.5000 
     32 CA         -0.7596  -17.0968  -46.3574 C.3       8 UNK         0.1400 
     33 CB         -1.4658  -15.7345  -46.4428 C.3       8 UNK        -0.1800 
     34 N           0.4470  -16.9922  -45.5344 N.am      8 UNK        -0.5000 
     35 C           1.3634  -17.9649  -45.4229 C.2       7 UNK         0.5000 
     36 O           1.2984  -19.0351  -46.0255 O.2       7 UNK        -0.5000 
     37 CA          2.5089  -17.7333  -44.4204 C.3       7 UNK         0.1400 
     38 CB          3.5804  -16.8066  -45.0081 C.3       7 UNK        -0.1800 
     39 N           2.0360  -17.1909  -43.1460 N.am      7 UNK        -0.5000 
     40 C           1.2570  -17.8642  -42.2867 C.2       6 UNK         0.5000 
     41 O           0.9068  -19.0310  -42.4559 O.2       6 UNK        -0.5000 
     42 CA          0.7473  -17.0977  -41.0503 C.3       6 UNK         0.1400 
     43 CB          1.7240  -17.2629  -39.8767 C.3       6 UNK        -0.1800 
     44 N           0.5271  -15.6705  -41.2891 N.am      6 UNK        -0.5000 
     45 C          -0.2778  -15.1440  -42.2228 C.2       5 UNK         0.5000 
     46 O          -0.9685  -15.8263  -42.9805 O.2       5 UNK        -0.5000 
     47 CA         -0.3072  -13.6058  -42.3526 C.3       5 UNK         0.1400 
     48 CB         -1.7135  -13.0659  -42.0490 C.3       5 UNK        -0.1800 
     49 N           0.6622  -12.8985  -41.5058 N.am      5 UNK        -0.5000 
     50 C           1.9906  -12.9091  -41.6690 C.2       4 UNK         0.5000 
     51 O           2.5718  -13.5753  -42.5300 O.2       4 UNK        -0.5000 
     52 CA          2.8085  -12.0869  -40.6670 C.3       4 UNK         0.1400 
     53 CB          3.1889  -12.9597  -39.4554 C.3       4 UNK        -0.1800 
     54 N           4.0048  -11.5888  -41.3377 N.am      4 UNK        -0.5000 
     55 C           4.8241  -10.6373  -40.8737 C.2       3 UNK         0.5000 
     56 O           4.6585  -10.0474  -39.8054 O.2       3 UNK        -0.5000 
     57 CA          6.0269  -10.2769  -41.7630 C.3       3 UNK         0.1400 
     58 CB          7.0932  -11.3831  -41.7148 C.3       3 UNK        -0.1800 
     59 N           5.6293  -10.0462  -43.1513 N.am      3 UNK        -0.5000 
     60 C           5.0339   -8.9307  -43.5991 C.2       2 UNK         0.5000 
     61 O           4.7876   -7.9521  -42.8936 O.2       2 UNK        -0.5000 
     62 CA          4.6376   -8.9158  -45.0879 C.3       2 UNK         0.1400 
     63 CB          5.8183   -8.4652  -45.9613 C.3       2 UNK        -0.1800 
     64 N           4.1829  -10.2323  -45.5332 N.am      2 UNK        -0.5000 
     65 C           2.9991  -10.7705  -45.2180 C.2       1 UNK         0.5000 
     66 O           2.1044  -10.1552  -44.6373 O.2       1 UNK        -0.5000 
     67 C          -1.8702  -22.1452  -48.4609 C.2       11 UNK         0.5000 
     68 O          -2.0993  -23.0547  -49.2590 O.2       11 UNK        -0.5000 
     69 N          -2.8272  -21.4914  -47.7887 N.am      12 UNK        -0.5000 
     70 CA         -4.2522  -21.8028  -47.8725 C.3       12 UNK         0.1400 
     71 CB         -5.0667  -20.7061  -47.1719 C.3       12 UNK        -0.1800 
     72 C          -4.5880  -23.1929  -47.3046 C.2       12 UNK         0.5000 
     73 O          -5.3234  -23.9412  -47.9481 O.2       12 UNK        -0.5000 
     74 N          -4.0194  -23.5269  -46.1366 N.am      13 UNK        -0.5000 
     75 CA         -4.1798  -24.8205  -45.4671 C.3       13 UNK         0.1400 
     76 CB         -3.5880  -24.7459  -44.0516 C.3       13 UNK        -0.1800 
     77 C          -3.5564  -25.9884  -46.2528 C.2       13 UNK         0.5000 
     78 O          -4.1565  -27.0615  -46.3236 O.2       13 UNK        -0.5000 
     79 N          -2.3811  -25.7524  -46.8516 N.am      14 UNK        -0.5000 
     80 CA         -1.6896  -26.6934  -47.7358 C.3       14 UNK         0.1400 
     81 CB         -0.2324  -26.2369  -47.9085 C.3       14 UNK        -0.1800 
     82 C          -2.3621  -26.8411  -49.1149 C.2       14 UNK         0.5000 
     83 O          -2.0712  -27.8080  -49.8200 O.2       14 UNK        -0.5000 
     84 N          -3.2262  -25.8791  -49.4716 N.am      15 UNK        -0.5000 
     85 CA         -3.9072  -25.7126  -50.7550 C.3       15 UNK         0.1400 
     86 CB         -4.9121  -26.8554  -51.0037 C.3       15 UNK        -0.1800 
     87 C          -2.8964  -25.5189  -51.9001 C.2       15 UNK         0.5000 
     88 O          -2.8992  -26.2746  -52.8736 O.2       15 UNK        -0.5000 
     89 N          -2.0326  -24.5065  -51.7423 N.am      16 UNK        -0.5000 
     90 CA         -0.9536  -24.1344  -52.6617 C.3       16 UNK         0.1400 
     91 CB         -0.2353  -22.8943  -52.1072 C.3       16 UNK        -0.1800 
     92 C          -1.4043  -23.8859  -54.1156 C.2       16 UNK         0.5000 
     93 O          -0.6530  -24.1988  -55.0401 O.2       16 UNK        -0.5000 
     94 N          -2.6225  -23.3596  -54.2894 N.am      17 UNK        -0.5000 
     95 CA         -3.2666  -23.1239  -55.5811 C.3       17 UNK         0.1400 
     96 CB         -3.7277  -21.6614  -55.6367 C.3       17 UNK        -0.1800 
     97 C          -4.4340  -24.1024  -55.8265 C.2       17 UNK         0.5000 
     98 O          -5.3322  -23.7904  -56.6114 O.2       17 UNK        -0.5000 
     99 N          -4.4127  -25.2661  -55.1576 N.am      18 UNK        -0.5000 
    100 CA        -5.3875  -26.3568  -55.2414 C.3       18 UNK         0.1400 
    101 CB        -5.2749  -27.0738  -56.6057 C.3       18 UNK        -0.1800 
    102 C         -6.8096  -25.8726  -54.8947 C.2       18 UNK         0.5000 
    103 O         -7.0417  -25.4619  -53.7571 O.2       18 UNK        -0.5000 
    104 N         -7.7235  -25.8884  -55.8744 N.am      19 UNK        -0.5000 
    105 CA        -9.1134  -25.4406  -55.7509 C.3       19 UNK         0.1400 
    106 CB        -9.8561  -25.7613  -57.0569 C.3       19 UNK        -0.1800 
    107 C         -9.2710  -23.9478  -55.3939 C.2       19 UNK         0.5000 
    108 O        -10.2954  -23.5739  -54.8218 O.2       19 UNK        -0.5000 
    109 N         -8.2576  -23.1284  -55.7094 N.am      20 UNK        -0.5000 
    110 CA        -8.1926  -21.7117  -55.3441 C.3       20 UNK         0.1400 
    111 CB        -7.4326  -20.9480  -56.4400 C.3       20 UNK        -0.1800 
    112 C         -7.5726  -21.4743  -53.9496 C.2       20 UNK         0.5000 
    113 O         -7.4412  -20.3155  -53.5499 O.2       20 UNK        -0.5000 
    114 N         -7.2053  -22.5530  -53.2365 N.am      21 UNK        -0.5000 
    115 CA        -6.6254  -22.5943  -51.8915 C.3       21 UNK         0.1400 
    116 CB        -7.6678  -22.1816  -50.8300 C.3       21 UNK        -0.1800 
    117 C         -5.3110  -21.7987  -51.8090 C.2       21 UNK         0.5000 
    118 O         -4.2657  -22.3322  -52.1805 O.2       21 UNK        -0.5000 
    119 N         -5.3938  -20.5455  -51.3450 N.am      22 UNK        -0.5000 
    120 CA        -4.2940  -19.5706  -51.3468 C.3       22 UNK         0.1400 
    121 C         -3.8336  -19.1685  -52.7776 C.2       22 UNK         0.5000 
    122 N         -4.7397  -19.0777  -53.7447 N.am      22 UNK        -0.7600 
    123 O         -2.6510  -18.9438  -53.0130 O.2       22 UNK        -0.5000 
    124 C124       -4.6638  -18.3080  -50.5148 C.3       23 UNK        -0.0398 
    125 S125       -3.2886  -17.7043  -49.4866 S.3       23 UNK        -0.2404 
    126 C126       -2.4779  -16.4873  -50.5744 C.3       23 UNK        -0.0205 
    127 H127        6.2805  -15.0319  -45.1629 H         1 UNK         0.0600 
    128 H128        5.5227  -14.5065  -43.6544 H         1 UNK         0.0600 
    129 H129        6.9450  -13.6609  -44.2698 H         1 UNK         0.0600 
    130 H130        3.5572  -13.6033  -44.1488 H         1 UNK         0.3000 
    131 H131        1.8974  -12.5564  -45.0109 H         1 UNK         0.0600 
    132 H132        1.7324  -11.8323  -47.4036 H         1 UNK         0.0800 
    133 H133        3.3969  -12.2980  -47.6621 H         1 UNK         0.0800 
    134 H134        1.3006  -13.3088  -49.4832 H         1 UNK         0.0800 
    135 H135        2.8210  -14.1650  -49.5964 H         1 UNK         0.0800 
    136 H136       -0.8355  -14.4788  -49.6741 H         1 UNK         0.1150 
    137 H137       -0.7832  -18.5373  -51.0307 H         1 UNK         0.1150 
    138 H138        2.8402  -16.6895  -49.6744 H         1 UNK         0.1150 
    139 H139        1.4393  -19.5980  -51.4542 H         1 UNK         0.0800 
    140 H140        2.8942  -18.8843  -50.8081 H         1 UNK         0.0800 
    141 H141       -0.3990  -20.6319  -50.0612 H         1 UNK         0.0800 
    142 H142       -0.5476  -19.6110  -48.6496 H         1 UNK         0.0800 
    143 H143        0.2183  -22.5658  -48.5091 H         1 UNK         0.0600 
    144 H144        0.1621  -20.6074  -46.4716 H         1 UNK         0.3000 
    145 H145       -0.5185  -22.8599  -43.7224 H         1 UNK         0.0600 
    146 H146        1.5397  -21.7511  -42.9348 H         1 UNK         0.0600 
    147 H147        1.8872  -21.1590  -44.5568 H         1 UNK         0.0600 
    148 H148        1.9238  -22.8844  -44.2212 H         1 UNK         0.0600 
    149 H149       -0.2045  -20.0432  -43.7331 H         1 UNK         0.3000 
    150 H150       -3.6770  -19.2079  -44.1897 H         1 UNK         0.0600 
    151 H151       -3.3785  -19.6298  -41.7772 H         1 UNK         0.0600 
    152 H152       -3.1032  -17.9264  -42.1153 H         1 UNK         0.0600 
    153 H153       -1.7382  -19.0044  -41.8276 H         1 UNK         0.0600 
    154 H154       -1.4436  -17.5037  -43.9199 H         1 UNK         0.3000 
    155 H155       -0.4573  -17.3866  -47.3664 H         1 UNK         0.0600 
    156 H156       -2.3508  -15.7994  -47.0769 H         1 UNK         0.0600 
    157 H157       -0.8166  -14.9765  -46.8776 H         1 UNK         0.0600 
    158 H158       -1.7894  -15.3787  -45.4649 H         1 UNK         0.0600 
    159 H159        0.5384  -16.1644  -44.9656 H         1 UNK         0.3000 
    160 H160        2.9743  -18.7016  -44.2236 H         1 UNK         0.0600 
    161 H161        3.1974  -15.7980  -45.1540 H         1 UNK         0.0600 
    162 H162        3.9266  -17.1701  -45.9766 H         1 UNK         0.0600 
    163 H163        4.4485  -16.7473  -44.3522 H         1 UNK         0.0600 
    164 H164        2.2728  -16.2318  -42.9340 H         1 UNK         0.3000 
    165 H165       -0.2106  -17.5332  -40.7619 H         1 UNK         0.0600 
    166 H166        1.3321  -16.8038  -38.9689 H         1 UNK         0.0600 
    167 H167        1.8965  -18.3175  -39.6575 H         1 UNK         0.0600 
    168 H168        2.6923  -16.8090  -40.0921 H         1 UNK         0.0600 
    169 H169        1.0571  -15.0318  -40.7164 H         1 UNK         0.3000 
    170 H170       -0.0737  -13.3748  -43.3940 H         1 UNK         0.0600 
    171 H171       -2.0036  -13.2594  -41.0156 H         1 UNK         0.0600 
    172 H172       -1.7687  -11.9905  -42.2191 H         1 UNK         0.0600 
    173 H173       -2.4612  -13.5318  -42.6925 H         1 UNK         0.0600 
    174 H174        0.2701  -12.3481  -40.7548 H         1 UNK         0.3000 
    175 H175        2.2098  -11.2358  -40.3358 H         1 UNK         0.0600 
    176 H176        3.8172  -13.8015  -39.7500 H         1 UNK         0.0600 
    177 H177        3.7305  -12.3874  -38.7026 H         1 UNK         0.0600 
    178 H178        2.3012  -13.3661  -38.9692 H         1 UNK         0.0600 
    179 H179        4.1886  -12.0186  -42.2331 H         1 UNK         0.3000 
    180 H180        6.4747   -9.3611  -41.3705 H         1 UNK         0.0600 
    181 H181        7.9713  -11.1097  -42.3000 H         1 UNK         0.0600 
    182 H182        6.7154  -12.3308  -42.0995 H         1 UNK         0.0600 
    183 H183        7.4272  -11.5561  -40.6909 H         1 UNK         0.0600 
    184 H184        5.8054  -10.7906  -43.8078 H         1 UNK         0.3000 
    185 H185        3.8239   -8.1985  -45.2153 H         1 UNK         0.0600 
    186 H186        5.5284   -8.3983  -47.0101 H         1 UNK         0.0600 
    187 H187        6.1733   -7.4792  -45.6588 H         1 UNK         0.0600 
    188 H188        6.6604   -9.1548  -45.8898 H         1 UNK         0.0600 
    189 H189        4.8628  -10.8327  -45.9922 H         1 UNK         0.3000 
    190 H190       -2.5655  -20.7063  -47.1954 H         1 UNK         0.3000 
    191 H191       -4.5273  -21.8030  -48.9278 H         1 UNK         0.0600 
    192 H192       -4.8747  -19.7296  -47.6161 H         1 UNK         0.0600 
    193 H193       -4.8257  -20.6406  -46.1107 H         1 UNK         0.0600 
    194 H194       -6.1367  -20.8992  -47.2572 H         1 UNK         0.0600 
    195 H195       -3.4581  -22.8339  -45.6477 H         1 UNK         0.3000 
    196 H196       -5.2499  -25.0175  -45.3765 H         1 UNK         0.0600 
    197 H197       -4.0906  -23.9848  -43.4546 H         1 UNK         0.0600 
    198 H198       -2.5245  -24.5057  -44.0729 H         1 UNK         0.0600 
    199 H199       -3.7012  -25.6963  -43.5285 H         1 UNK         0.0600 
    200 H200       -1.9119  -24.8652  -46.6834 H         1 UNK         0.3000 
    201 H201       -1.6878  -27.6767  -47.2611 H         1 UNK         0.0600 
    202 H202        0.2805  -26.1813  -46.9481 H         1 UNK         0.0600 
    203 H203       -0.1746  -25.2535  -48.3774 H         1 UNK         0.0600 
    204 H204        0.3264  -26.9332  -48.5350 H         1 UNK         0.0600 
    205 H205       -3.3586  -25.1189  -48.8178 H         1 UNK         0.3000 
    206 H206       -4.4745  -24.7846  -50.6795 H         1 UNK         0.0600 
    207 H207       -4.4164  -27.8186  -51.1255 H         1 UNK         0.0600 
    208 H208       -5.6186  -26.9427  -50.1783 H         1 UNK         0.0600 
    209 H209       -5.4914  -26.6710  -51.9080 H         1 UNK         0.0600 
    210 H210       -2.1097  -23.9451  -50.8965 H         1 UNK         0.3000 
    211 H211       -0.2443  -24.9639  -52.6774 H         1 UNK         0.0600 
    212 H212       -0.9160  -22.0456  -52.0248 H         1 UNK         0.0600 
    213 H213        0.5890  -22.5937  -52.7552 H         1 UNK         0.0600 
    214 H214        0.1829  -23.0885  -51.1195 H         1 UNK         0.0600 
    215 H215       -3.1678  -23.1077  -53.4661 H         1 UNK         0.3000 
    216 H216       -2.5548  -23.2778  -56.3940 H         1 UNK         0.0600 
    217 H217       -4.0612  -21.3928  -56.6392 H         1 UNK         0.0600 
    218 H218       -2.9194  -20.9795  -55.3719 H         1 UNK         0.0600 
    219 H219       -4.5549  -21.4871  -54.9495 H         1 UNK         0.0600 
    220 H220       -3.6630  -25.4225  -54.4908 H         1 UNK         0.3000 
    221 H221       -5.1150  -27.0765  -54.4684 H         1 UNK         0.0600 
    222 H222       -5.4944  -26.4114  -57.4438 H         1 UNK         0.0600 
    223 H223       -4.2679  -27.4640  -56.7537 H         1 UNK         0.0600 
    224 H224       -5.9564  -27.9236  -56.6621 H         1 UNK         0.0600 
    225 H225       -7.4356  -26.2096  -56.7874 H         1 UNK         0.3000 
    226 H226       -9.5741  -26.0157  -54.9451 H         1 UNK         0.0600 
    227 H227       -9.8310  -26.8293  -57.2740 H         1 UNK         0.0600 
    228 H228      -10.9052  -25.4693  -56.9925 H         1 UNK         0.0600 
    229 H229       -9.4201  -25.2342  -57.9065 H         1 UNK         0.0600 
    230 H230       -7.4348  -23.5141  -56.1606 H         1 UNK         0.3000 
    231 H231       -9.2040  -21.3021  -55.3065 H         1 UNK         0.0600 
    232 H232       -7.3656  -19.8839  -56.2099 H         1 UNK         0.0600 
    233 H233       -7.9378  -21.0386  -57.4016 H         1 UNK         0.0600 
    234 H234       -6.4187  -21.3225  -56.5629 H         1 UNK         0.0600 
    235 H235       -7.3230  -23.4657  -53.6636 H         1 UNK         0.3000 
    236 H236       -6.3663  -23.6368  -51.7027 H         1 UNK         0.0600 
    237 H237       -8.0584  -21.1771  -50.9943 H         1 UNK         0.0600 
    238 H238       -8.5158  -22.8666  -50.8367 H         1 UNK         0.0600 
    239 H239       -7.2384  -22.2130  -49.8275 H         1 UNK         0.0600 
    240 H240       -6.3111  -20.1855  -51.1268 H         1 UNK         0.3000 
    241 H241       -3.4481  -20.0712  -50.8702 H         1 UNK         0.0600 
    242 H242       -4.4449  -18.8110  -54.6694 H         1 UNK         0.3800 
    243 H243       -5.7089  -19.3271  -53.5763 H         1 UNK         0.3800 
    244 H244       -5.0546  -17.4980  -51.1340 H         1 UNK         0.0800 
    245 H245       -5.4676  -18.5412  -49.8153 H         1 UNK         0.0800 
    246 H246       -2.8889  -15.4981  -50.3684 H         1 UNK         0.0800 
    247 H247       -2.6904  -16.6986  -51.6217 H         1 UNK         0.0800 
@<TRIPOS>BOND
     1    1    2 1    
     2    1  127 1    
     3    1  128 1    
     4    1  129 1    
     5    2    3 2    
     6    2    4 am   BACKBONE|DICT|INTERRES
     7    4    5 1    
     8    4  130 1    
     9    5    6 1    
    10    5   65 1    
    11    5  131 1    
    12    6    7 1    
    13    6  132 1    
    14    6  133 1    
    15    7    8 1    
    16    8    9 1    
    17    8  134 1    
    18    8  135 1    
    19    9   10 ar   
    20    9   14 ar   
    21   10   11 ar   
    22   10  136 1    
    23   11   12 ar   
    24   11  126 1    
    25   12   13 ar   
    26   12  137 1    
    27   13   14 ar   
    28   13   15 1    
    29   14  138 1    
    30   15   16 1    
    31   15  139 1    
    32   15  140 1    
    33   16   17 1    
    34   17   18 1    
    35   17  141 1    
    36   17  142 1    
    37   18   19 1    
    38   18   67 1    
    39   18  143 1    
    40   19   20 am   BACKBONE|DICT|INTERRES
    41   19  144 1    
    42   20   21 2    
    43   20   22 1    
    44   22   23 1    
    45   22   24 1    
    46   22  145 1    
    47   23  146 1    
    48   23  147 1    
    49   23  148 1    
    50   24   25 am   BACKBONE|DICT|INTERRES
    51   24  149 1    
    52   25   26 2    
    53   25   27 1    
    54   27   28 1    
    55   27   29 1    
    56   27  150 1    
    57   28  151 1    
    58   28  152 1    
    59   28  153 1    
    60   29   30 am   BACKBONE|DICT|INTERRES
    61   29  154 1    
    62   30   31 2    
    63   30   32 1    
    64   32   33 1    
    65   32   34 1    
    66   32  155 1    
    67   33  156 1    
    68   33  157 1    
    69   33  158 1    
    70   34   35 am   BACKBONE|DICT|INTERRES
    71   34  159 1    
    72   35   36 2    
    73   35   37 1    
    74   37   38 1    
    75   37   39 1    
    76   37  160 1    
    77   38  161 1    
    78   38  162 1    
    79   38  163 1    
    80   39   40 am   BACKBONE|DICT|INTERRES
    81   39  164 1    
    82   40   41 2    
    83   40   42 1    
    84   42   43 1    
    85   42   44 1    
    86   42  165 1    
    87   43  166 1    
    88   43  167 1    
    89   43  168 1    
    90   44   45 am   BACKBONE|DICT|INTERRES
    91   44  169 1    
    92   45   46 2    
    93   45   47 1    
    94   47   48 1    
    95   47   49 1    
    96   47  170 1    
    97   48  171 1    
    98   48  172 1    
    99   48  173 1    
   100   49   50 am   BACKBONE|DICT|INTERRES
   101   49  174 1    
   102   50   51 2    
   103   50   52 1    
   104   52   53 1    
   105   52   54 1    
   106   52  175 1    
   107   53  176 1    
   108   53  177 1    
   109   53  178 1    
   110   54   55 am   BACKBONE|DICT|INTERRES
   111   54  179 1    
   112   55   56 2    
   113   55   57 1    
   114   57   58 1    
   115   57   59 1    
   116   57  180 1    
   117   58  181 1    
   118   58  182 1    
   119   58  183 1    
   120   59   60 am   BACKBONE|DICT|INTERRES
   121   59  184 1    
   122   60   61 2    
   123   60   62 1    
   124   62   63 1    
   125   62   64 1    
   126   62  185 1    
   127   63  186 1    
   128   63  187 1    
   129   63  188 1    
   130   64   65 am   BACKBONE|DICT|INTERRES
   131   64  189 1    
   132   65   66 2    
   133   67   68 2    
   134   67   69 am   BACKBONE|DICT|INTERRES
   135   69   70 1    
   136   69  190 1    
   137   70   71 1    
   138   70   72 1    
   139   70  191 1    
   140   71  192 1    
   141   71  193 1    
   142   71  194 1    
   143   72   73 2    
   144   72   74 am   BACKBONE|DICT|INTERRES
   145   74   75 1    
   146   74  195 1    
   147   75   76 1    
   148   75   77 1    
   149   75  196 1    
   150   76  197 1    
   151   76  198 1    
   152   76  199 1    
   153   77   78 2    
   154   77   79 am   BACKBONE|DICT|INTERRES
   155   79   80 1    
   156   79  200 1    
   157   80   81 1    
   158   80   82 1    
   159   80  201 1    
   160   81  202 1    
   161   81  203 1    
   162   81  204 1    
   163   82   83 2    
   164   82   84 am   BACKBONE|DICT|INTERRES
   165   84   85 1    
   166   84  205 1    
   167   85   86 1    
   168   85   87 1    
   169   85  206 1    
   170   86  207 1    
   171   86  208 1    
   172   86  209 1    
   173   87   88 2    
   174   87   89 am   BACKBONE|DICT|INTERRES
   175   89   90 1    
   176   89  210 1    
   177   90   91 1    
   178   90   92 1    
   179   90  211 1    
   180   91  212 1    
   181   91  213 1    
   182   91  214 1    
   183   92   93 2    
   184   92   94 am   BACKBONE|DICT|INTERRES
   185   94   95 1    
   186   94  215 1    
   187   95   96 1    
   188   95   97 1    
   189   95  216 1    
   190   96  217 1    
   191   96  218 1    
   192   96  219 1    
   193   97   98 2    
   194   97   99 am   BACKBONE|DICT|INTERRES
   195   99  100 1    
   196   99  220 1    
   197  100  101 1    
   198  100  102 1    
   199  100  221 1    
   200  101  222 1    
   201  101  223 1    
   202  101  224 1    
   203  102  103 2    
   204  102  104 am   BACKBONE|DICT|INTERRES
   205  104  105 1    
   206  104  225 1    
   207  105  106 1    
   208  105  107 1    
   209  105  226 1    
   210  106  227 1    
   211  106  228 1    
   212  106  229 1    
   213  107  108 2    
   214  107  109 am   BACKBONE|DICT|INTERRES
   215  109  110 1    
   216  109  230 1    
   217  110  111 1    
   218  110  112 1    
   219  110  231 1    
   220  111  232 1    
   221  111  233 1    
   222  111  234 1    
   223  112  113 2    
   224  112  114 am   BACKBONE|DICT|INTERRES
   225  114  115 1    
   226  114  235 1    
   227  115  116 1    
   228  115  117 1    
   229  115  236 1    
   230  116  237 1    
   231  116  238 1    
   232  116  239 1    
   233  117  118 2    
   234  117  119 am   BACKBONE|DICT|INTERRES
   235  119  120 1    
   236  119  240 1    
   237  120  121 1    
   238  120  124 1    
   239  120  241 1    
   240  121  122 am   BACKBONE|DICT|INTERRES
   241  121  123 2    
   242  122  242 1    
   243  122  243 1    
   244  124  125 1    
   245  124  244 1    
   246  124  245 1    
   247  125  126 1    
   248  126  246 1    
   249  126  247 1    
@<TRIPOS>SUBSTRUCTURE
     1 UNK         1 GROUP             0       ****    0 ROOT    
