@<TRIPOS>MOLECULE
3R540
247   249    1
SMALL
USER_CHARGES


@<TRIPOS>ATOM
      1 CA          0.3838  -10.5657  -50.1216 C.3       0 UNK        -0.1800 
      2 C           0.2560  -11.6656  -49.0772 C.2       0 UNK         0.5000 
      3 O           0.9008  -11.5937  -48.0326 O.2       0 UNK        -0.5000 
      4 N          -0.5707  -12.6811  -49.3593 N.am      1 UNK        -0.5000 
      5 CA         -0.8529  -13.8147  -48.4674 C.3       1 UNK         0.1400 
      6 C6         -1.4306  -15.0074  -49.2712 C.3       23 UNK        -0.0398 
      7 S7         -1.1746  -16.6256  -48.4681 S.3       23 UNK        -0.2404 
      8 C8         -1.5533  -17.7555  -49.8468 C.3       23 UNK        -0.0205 
      9 C9         -0.3034  -18.4162  -50.4081 C.ar      23 UNK        -0.0193 
     10 C10         0.6082  -17.6777  -51.1671 C.ar      23 UNK        -0.1150 
     11 C11         1.7361  -18.2919  -51.7184 C.ar      23 UNK        -0.0193 
     12 C12         1.9636  -19.6518  -51.4873 C.ar      23 UNK        -0.1150 
     13 C13         1.0471  -20.4063  -50.7506 C.ar      23 UNK        -0.0193 
     14 C14        -0.0811  -19.7818  -50.2100 C.ar      23 UNK        -0.1150 
     15 C15         1.2420  -21.9072  -50.5971 C.3       23 UNK        -0.0205 
     16 S16         2.4856  -22.3469  -49.3411 S.3       23 UNK        -0.2404 
     17 C17         1.7851  -21.6611  -47.8029 C.3       23 UNK        -0.0398 
     18 CA          0.8178  -22.6310  -47.0758 C.3       11 UNK         0.1400 
     19 N           0.9114  -22.5195  -45.6167 N.am      11 UNK        -0.5000 
     20 C           0.2764  -23.3166  -44.7453 C.2       10 UNK         0.5000 
     21 O          -0.4038  -24.2860  -45.0821 O.2       10 UNK        -0.5000 
     22 CA          0.3614  -22.9286  -43.2574 C.3       10 UNK         0.1400 
     23 CB          1.6561  -23.4584  -42.6244 C.3       10 UNK        -0.1800 
     24 N           0.2672  -21.4811  -43.0564 N.am      10 UNK        -0.5000 
     25 C          -0.8258  -20.7491  -43.3187 C.2       9 UNK         0.5000 
     26 O          -1.9010  -21.2352  -43.6661 O.2       9 UNK        -0.5000 
     27 CA         -0.6803  -19.2167  -43.2352 C.3       9 UNK         0.1400 
     28 CB         -0.8361  -18.7257  -41.7892 C.3       9 UNK        -0.1800 
     29 N           0.5910  -18.7433  -43.7865 N.am      9 UNK        -0.5000 
     30 C           0.9536  -18.8770  -45.0702 C.2       8 UNK         0.5000 
     31 O           0.2277  -19.3633  -45.9344 O.2       8 UNK        -0.5000 
     32 CA          2.3867  -18.4626  -45.4414 C.3       8 UNK         0.1400 
     33 CB          2.4649  -16.9657  -45.7624 C.3       8 UNK        -0.1800 
     34 N           3.3386  -18.7891  -44.3804 N.am      8 UNK        -0.5000 
     35 C           3.7464  -20.0320  -44.0914 C.2       7 UNK         0.5000 
     36 O           3.3898  -21.0286  -44.7191 O.2       7 UNK        -0.5000 
     37 CA          4.6709  -20.1896  -42.8697 C.3       7 UNK         0.1400 
     38 CB          6.1243  -19.8610  -43.2420 C.3       7 UNK        -0.1800 
     39 N           4.2575  -19.3549  -41.7398 N.am      7 UNK        -0.5000 
     40 C           3.1171  -19.5236  -41.0561 C.2       6 UNK         0.5000 
     41 O           2.3169  -20.4303  -41.2824 O.2       6 UNK        -0.5000 
     42 CA          2.7912  -18.4844  -39.9649 C.3       6 UNK         0.1400 
     43 CB          3.3791  -18.9248  -38.6162 C.3       6 UNK        -0.1800 
     44 N           3.2390  -17.1194  -40.2636 N.am      6 UNK        -0.5000 
     45 C           2.9135  -16.4106  -41.3535 C.2       5 UNK         0.5000 
     46 O           2.2528  -16.8655  -42.2900 O.2       5 UNK        -0.5000 
     47 CA          3.4734  -14.9747  -41.4155 C.3       5 UNK         0.1400 
     48 CB          4.9841  -15.0069  -41.7015 C.3       5 UNK        -0.1800 
     49 N           2.8338  -14.1392  -42.4343 N.am      5 UNK        -0.5000 
     50 C           1.5460  -13.7708  -42.4567 C.2       4 UNK         0.5000 
     51 O           0.7314  -14.0681  -41.5780 O.2       4 UNK        -0.5000 
     52 CA          1.1199  -12.9220  -43.6736 C.3       4 UNK         0.1400 
     53 CB          1.2976  -13.6958  -44.9885 C.3       4 UNK        -0.1800 
     54 N          -0.2702  -12.4777  -43.5902 N.am      4 UNK        -0.5000 
     55 C          -0.7097  -11.4596  -42.8391 C.2       3 UNK         0.5000 
     56 O           0.0329  -10.7525  -42.1544 O.2       3 UNK        -0.5000 
     57 CA         -2.2333  -11.1924  -42.8558 C.3       3 UNK         0.1400 
     58 CB         -2.5901   -9.7317  -42.5070 C.3       3 UNK        -0.1800 
     59 N          -2.8975  -11.6089  -44.0997 N.am      3 UNK        -0.5000 
     60 C          -2.6673  -11.1417  -45.3354 C.2       2 UNK         0.5000 
     61 O          -1.8603  -10.2495  -45.6049 O.2       2 UNK        -0.5000 
     62 CA         -3.4764  -11.7966  -46.4702 C.3       2 UNK         0.1400 
     63 CB         -4.4202  -10.7808  -47.1328 C.3       2 UNK        -0.1800 
     64 N          -2.5930  -12.3668  -47.4857 N.am      2 UNK        -0.5000 
     65 C          -1.7759  -13.4128  -47.2906 C.2       1 UNK         0.5000 
     66 O          -1.7298  -14.0403  -46.2314 O.2       1 UNK        -0.5000 
     67 C          -0.6372  -22.4559  -47.5617 C.2       11 UNK         0.5000 
     68 O          -1.1168  -23.2721  -48.3444 O.2       11 UNK        -0.5000 
     69 N          -1.3310  -21.4326  -47.0452 N.am      12 UNK        -0.5000 
     70 CA         -2.7381  -21.1368  -47.3242 C.3       12 UNK         0.1400 
     71 CB         -3.0789  -19.7486  -46.7641 C.3       12 UNK        -0.1800 
     72 C          -3.7241  -22.1858  -46.7747 C.2       12 UNK         0.5000 
     73 O          -4.8560  -22.2469  -47.2533 O.2       12 UNK        -0.5000 
     74 N          -3.3022  -22.9837  -45.7858 N.am      13 UNK        -0.5000 
     75 CA         -4.0569  -24.1306  -45.2857 C.3       13 UNK         0.1400 
     76 CB         -3.6447  -24.4364  -43.8375 C.3       13 UNK        -0.1800 
     77 C          -3.8629  -25.3583  -46.1931 C.2       13 UNK         0.5000 
     78 O          -4.8344  -26.0619  -46.4706 O.2       13 UNK        -0.5000 
     79 N          -2.6213  -25.5834  -46.6497 N.am      14 UNK        -0.5000 
     80 CA         -2.2489  -26.6542  -47.5762 C.3       14 UNK         0.1400 
     81 CB         -0.7173  -26.7693  -47.6397 C.3       14 UNK        -0.1800 
     82 C          -2.8547  -26.4437  -48.9760 C.2       14 UNK         0.5000 
     83 O          -3.5561  -27.3213  -49.4809 O.2       14 UNK        -0.5000 
     84 N          -2.6212  -25.2588  -49.5514 N.am      15 UNK        -0.5000 
     85 CA         -3.2728  -24.7589  -50.7575 C.3       15 UNK         0.1400 
     86 CB         -2.2792  -23.8829  -51.5434 C.3       15 UNK        -0.1800 
     87 C          -4.5238  -23.9824  -50.3188 C.2       15 UNK         0.5000 
     88 O          -4.5251  -22.7521  -50.3648 O.2       15 UNK        -0.5000 
     89 N          -5.5275  -24.7372  -49.8500 N.am      16 UNK        -0.5000 
     90 CA         -6.7398  -24.3201  -49.1387 C.3       16 UNK         0.1400 
     91 CB         -7.7544  -25.4741  -49.1872 C.3       16 UNK        -0.1800 
     92 C          -7.3809  -23.0016  -49.6182 C.2       16 UNK         0.5000 
     93 O          -8.0233  -22.9759  -50.6693 O.2       16 UNK        -0.5000 
     94 N          -7.1848  -21.9445  -48.8190 N.am      17 UNK        -0.5000 
     95 CA         -7.6688  -20.5735  -49.0047 C.3       17 UNK         0.1400 
     96 CB         -9.2115  -20.5201  -48.9863 C.3       17 UNK        -0.1800 
     97 C          -7.0451  -19.8777  -50.2321 C.2       17 UNK         0.5000 
     98 O          -7.7321  -19.1329  -50.9334 O.2       17 UNK        -0.5000 
     99 N          -5.7468  -20.1343  -50.4522 N.am      18 UNK        -0.5000 
    100 CA        -4.9243  -19.6781  -51.5770 C.3       18 UNK         0.1400 
    101 CB        -4.8102  -18.1390  -51.6059 C.3       18 UNK        -0.1800 
    102 C         -5.4148  -20.2879  -52.9043 C.2       18 UNK         0.5000 
    103 O         -5.6999  -19.5660  -53.8637 O.2       18 UNK        -0.5000 
    104 N         -5.5321  -21.6231  -52.9128 N.am      19 UNK        -0.5000 
    105 CA        -5.9310  -22.4364  -54.0611 C.3       19 UNK         0.1400 
    106 CB        -6.0479  -23.9083  -53.6322 C.3       19 UNK        -0.1800 
    107 C         -4.9350  -22.2742  -55.2237 C.2       19 UNK         0.5000 
    108 O         -3.7874  -22.7061  -55.1025 O.2       19 UNK        -0.5000 
    109 N         -5.3916  -21.6201  -56.3021 N.am      20 UNK        -0.5000 
    110 CA        -4.6056  -21.1834  -57.4629 C.3       20 UNK         0.1400 
    111 CB        -4.0897  -22.3921  -58.2725 C.3       20 UNK        -0.1800 
    112 C         -3.4891  -20.1884  -57.0744 C.2       20 UNK         0.5000 
    113 O         -2.3723  -20.2761  -57.5904 O.2       20 UNK        -0.5000 
    114 N         -3.8139  -19.2718  -56.1484 N.am      21 UNK        -0.5000 
    115 CA        -2.9234  -18.2971  -55.5156 C.3       21 UNK         0.1400 
    116 CB        -2.4361  -17.2406  -56.5337 C.3       21 UNK        -0.1800 
    117 C         -1.7983  -19.0201  -54.7512 C.2       21 UNK         0.5000 
    118 O         -2.0852  -19.6588  -53.7379 O.2       21 UNK        -0.5000 
    119 N         -0.5624  -18.9307  -55.2554 N.am      22 UNK        -0.5000 
    120 CA         0.5956  -19.6747  -54.7393 C.3       22 UNK         0.1400 
    121 C          0.6962  -21.1387  -55.2613 C.2       22 UNK         0.5000 
    122 N         -0.1290  -21.5790  -56.2042 N.am      22 UNK        -0.7600 
    123 O          1.5422  -21.8971  -54.7957 O.2       22 UNK        -0.5000 
    124 C124        1.9325  -18.9144  -54.9571 C.3       23 UNK        -0.0398 
    125 S125        1.9438  -17.2238  -54.2608 S.3       23 UNK        -0.2404 
    126 C126        2.6736  -17.4958  -52.6117 C.3       23 UNK        -0.0205 
    127 H127       -0.2347  -10.7628  -50.9977 H         1 UNK         0.0600 
    128 H128        1.4196  -10.4784  -50.4497 H         1 UNK         0.0600 
    129 H129        0.0777   -9.6093  -49.6974 H         1 UNK         0.0600 
    130 H130       -1.0615  -12.6819  -50.2424 H         1 UNK         0.3000 
    131 H131        0.0998  -14.1295  -48.0353 H         1 UNK         0.0600 
    132 H132       -2.4940  -14.8712  -49.4774 H         1 UNK         0.0800 
    133 H133       -0.9426  -15.0567  -50.2452 H         1 UNK         0.0800 
    134 H134       -2.0672  -17.2228  -50.6476 H         1 UNK         0.0800 
    135 H135       -2.2556  -18.5118  -49.4944 H         1 UNK         0.0800 
    136 H136        0.4283  -16.6291  -51.3539 H         1 UNK         0.1150 
    137 H137        2.8263  -20.1369  -51.9222 H         1 UNK         0.1150 
    138 H138       -0.7992  -20.3641  -49.6523 H         1 UNK         0.1150 
    139 H139        0.2971  -22.3961  -50.3652 H         1 UNK         0.0800 
    140 H140        1.5572  -22.3225  -51.5557 H         1 UNK         0.0800 
    141 H141        1.3383  -20.6830  -47.9836 H         1 UNK         0.0800 
    142 H142        2.6478  -21.4614  -47.1683 H         1 UNK         0.0800 
    143 H143        1.1153  -23.6547  -47.3134 H         1 UNK         0.0600 
    144 H144        1.4929  -21.7731  -45.2538 H         1 UNK         0.3000 
    145 H145       -0.4821  -23.3951  -42.7442 H         1 UNK         0.0600 
    146 H146        1.6854  -23.2480  -41.5551 H         1 UNK         0.0600 
    147 H147        1.7362  -24.5393  -42.7461 H         1 UNK         0.0600 
    148 H148        2.5410  -23.0100  -43.0762 H         1 UNK         0.0600 
    149 H149        1.0941  -21.0156  -42.6943 H         1 UNK         0.3000 
    150 H150       -1.4807  -18.7727  -43.8307 H         1 UNK         0.0600 
    151 H151       -1.8301  -18.9600  -41.4067 H         1 UNK         0.0600 
    152 H152       -0.7045  -17.6455  -41.7197 H         1 UNK         0.0600 
    153 H153       -0.1137  -19.1971  -41.1247 H         1 UNK         0.0600 
    154 H154        1.2287  -18.2734  -43.1503 H         1 UNK         0.3000 
    155 H155        2.6680  -19.0119  -46.3421 H         1 UNK         0.0600 
    156 H156        2.2693  -16.3645  -44.8763 H         1 UNK         0.0600 
    157 H157        1.7333  -16.6869  -46.5224 H         1 UNK         0.0600 
    158 H158        3.4502  -16.6940  -46.1408 H         1 UNK         0.0600 
    159 H159        3.6023  -18.0335  -43.7638 H         1 UNK         0.3000 
    160 H160        4.6276  -21.2341  -42.5536 H         1 UNK         0.0600 
    161 H161        6.2398  -18.8180  -43.5396 H         1 UNK         0.0600 
    162 H162        6.4628  -20.4796  -44.0742 H         1 UNK         0.0600 
    163 H163        6.7972  -20.0480  -42.4050 H         1 UNK         0.0600 
    164 H164        4.8600  -18.5846  -41.4908 H         1 UNK         0.3000 
    165 H165        1.7058  -18.4494  -39.8622 H         1 UNK         0.0600 
    166 H166        3.0648  -18.2596  -37.8117 H         1 UNK         0.0600 
    167 H167        3.0447  -19.9294  -38.3533 H         1 UNK         0.0600 
    168 H168        4.4695  -18.9367  -38.6369 H         1 UNK         0.0600 
    169 H169        3.8038  -16.6768  -39.5531 H         1 UNK         0.3000 
    170 H170        3.3064  -14.5045  -40.4444 H         1 UNK         0.0600 
    171 H171        5.5224  -15.5711  -40.9390 H         1 UNK         0.0600 
    172 H172        5.2006  -15.4697  -42.6655 H         1 UNK         0.0600 
    173 H173        5.4054  -14.0014  -41.7106 H         1 UNK         0.0600 
    174 H174        3.4229  -13.8646  -43.2059 H         1 UNK         0.3000 
    175 H175        1.7645  -12.0412  -43.7068 H         1 UNK         0.0600 
    176 H176        0.6942  -14.6041  -45.0022 H         1 UNK         0.0600 
    177 H177        0.9996  -13.0864  -45.8401 H         1 UNK         0.0600 
    178 H178        2.3376  -13.9781  -45.1522 H         1 UNK         0.0600 
    179 H179       -0.9434  -13.0148  -44.1198 H         1 UNK         0.3000 
    180 H180       -2.6493  -11.8234  -42.0692 H         1 UNK         0.0600 
    181 H181       -2.1450   -9.0265  -43.2093 H         1 UNK         0.0600 
    182 H182       -2.2330   -9.4683  -41.5107 H         1 UNK         0.0600 
    183 H183       -3.6689   -9.5765  -42.5136 H         1 UNK         0.0600 
    184 H184       -3.5686  -12.3574  -43.9947 H         1 UNK         0.3000 
    185 H185       -4.0845  -12.6049  -46.0580 H         1 UNK         0.0600 
    186 H186       -5.1009  -10.3462  -46.3997 H         1 UNK         0.0600 
    187 H187       -3.8698   -9.9607  -47.5961 H         1 UNK         0.0600 
    188 H188       -5.0307  -11.2528  -47.9029 H         1 UNK         0.0600 
    189 H189       -2.5364  -11.8727  -48.3635 H         1 UNK         0.3000 
    190 H190       -0.8413  -20.7684  -46.4484 H         1 UNK         0.3000 
    191 H191       -2.8637  -21.1105  -48.4086 H         1 UNK         0.0600 
    192 H192       -3.0461  -19.7370  -45.6745 H         1 UNK         0.0600 
    193 H193       -4.0799  -19.4393  -47.0673 H         1 UNK         0.0600 
    194 H194       -2.3804  -18.9937  -47.1213 H         1 UNK         0.0600 
    195 H195       -2.3822  -22.8290  -45.3960 H         1 UNK         0.3000 
    196 H196       -5.1202  -23.8810  -45.2796 H         1 UNK         0.0600 
    197 H197       -4.2538  -25.2409  -43.4238 H         1 UNK         0.0600 
    198 H198       -3.7785  -23.5638  -43.1978 H         1 UNK         0.0600 
    199 H199       -2.6032  -24.7471  -43.7639 H         1 UNK         0.0600 
    200 H200       -1.8727  -24.9744  -46.3373 H         1 UNK         0.3000 
    201 H201       -2.6411  -27.5934  -47.1805 H         1 UNK         0.0600 
    202 H202       -0.2994  -26.9897  -46.6572 H         1 UNK         0.0600 
    203 H203       -0.2539  -25.8496  -47.9978 H         1 UNK         0.0600 
    204 H204       -0.4139  -27.5734  -48.3112 H         1 UNK         0.0600 
    205 H205       -2.0601  -24.5734  -49.0445 H         1 UNK         0.3000 
    206 H206       -3.5806  -25.5861  -51.4004 H         1 UNK         0.0600 
    207 H207       -1.3904  -24.4482  -51.8234 H         1 UNK         0.0600 
    208 H208       -2.7316  -23.5083  -52.4626 H         1 UNK         0.0600 
    209 H209       -1.9552  -23.0174  -50.9646 H         1 UNK         0.0600 
    210 H210       -5.3729  -25.7362  -49.8594 H         1 UNK         0.3000 
    211 H211       -6.4536  -24.1948  -48.0932 H         1 UNK         0.0600 
    212 H212       -8.0210  -25.7313  -50.2132 H         1 UNK         0.0600 
    213 H213       -8.6744  -25.2095  -48.6644 H         1 UNK         0.0600 
    214 H214       -7.3565  -26.3693  -48.7085 H         1 UNK         0.0600 
    215 H215       -6.5277  -22.0676  -48.0503 H         1 UNK         0.3000 
    216 H216       -7.3160  -20.0145  -48.1368 H         1 UNK         0.0600 
    217 H217       -9.5657  -19.4888  -48.9703 H         1 UNK         0.0600 
    218 H218       -9.6127  -21.0131  -48.1009 H         1 UNK         0.0600 
    219 H219       -9.6459  -20.9994  -49.8639 H         1 UNK         0.0600 
    220 H220       -5.3185  -20.8586  -49.8857 H         1 UNK         0.3000 
    221 H221       -3.9224  -20.0756  -51.4052 H         1 UNK         0.0600 
    222 H222       -5.7483  -17.6628  -51.8917 H         1 UNK         0.0600 
    223 H223       -4.5206  -17.7458  -50.6319 H         1 UNK         0.0600 
    224 H224       -4.0536  -17.8237  -52.3246 H         1 UNK         0.0600 
    225 H225       -5.2703  -22.1202  -52.0679 H         1 UNK         0.3000 
    226 H226       -6.9185  -22.0981  -54.3814 H         1 UNK         0.0600 
    227 H227       -6.7678  -24.0310  -52.8233 H         1 UNK         0.0600 
    228 H228       -6.3859  -24.5281  -54.4634 H         1 UNK         0.0600 
    229 H229       -5.0919  -24.3090  -53.2951 H         1 UNK         0.0600 
    230 H230       -6.3476  -21.2922  -56.2846 H         1 UNK         0.3000 
    231 H231       -5.2911  -20.6295  -58.1057 H         1 UNK         0.0600 
    232 H232       -4.9033  -23.0693  -58.5321 H         1 UNK         0.0600 
    233 H233       -3.3408  -22.9621  -57.7220 H         1 UNK         0.0600 
    234 H234       -3.6286  -22.0670  -59.2058 H         1 UNK         0.0600 
    235 H235       -4.7218  -19.3547  -55.7034 H         1 UNK         0.3000 
    236 H236       -3.5190  -17.7766  -54.7646 H         1 UNK         0.0600 
    237 H237       -1.8067  -16.4930  -56.0489 H         1 UNK         0.0600 
    238 H238       -1.8626  -17.6768  -57.3517 H         1 UNK         0.0600 
    239 H239       -3.2807  -16.7104  -56.9735 H         1 UNK         0.0600 
    240 H240       -0.4159  -18.4012  -56.1018 H         1 UNK         0.3000 
    241 H241        0.4527  -19.7788  -53.6655 H         1 UNK         0.0600 
    242 H242       -0.0493  -22.5324  -56.5184 H         1 UNK         0.3800 
    243 H243       -0.8491  -20.9833  -56.6020 H         1 UNK         0.3800 
    244 H244        2.7665  -19.4719  -54.5273 H         1 UNK         0.0800 
    245 H245        2.1455  -18.8359  -56.0243 H         1 UNK         0.0800 
    246 H246        2.8773  -16.5285  -52.1502 H         1 UNK         0.0800 
    247 H247        3.6380  -17.9962  -52.7122 H         1 UNK         0.0800 
@<TRIPOS>BOND
     1    1    2 1    
     2    1  127 1    
     3    1  128 1    
     4    1  129 1    
     5    2    3 2    
     6    2    4 am   BACKBONE|DICT|INTERRES
     7    4    5 1    
     8    4  130 1    
     9    5    6 1    
    10    5   65 1    
    11    5  131 1    
    12    6    7 1    
    13    6  132 1    
    14    6  133 1    
    15    7    8 1    
    16    8    9 1    
    17    8  134 1    
    18    8  135 1    
    19    9   10 ar   
    20    9   14 ar   
    21   10   11 ar   
    22   10  136 1    
    23   11   12 ar   
    24   11  126 1    
    25   12   13 ar   
    26   12  137 1    
    27   13   14 ar   
    28   13   15 1    
    29   14  138 1    
    30   15   16 1    
    31   15  139 1    
    32   15  140 1    
    33   16   17 1    
    34   17   18 1    
    35   17  141 1    
    36   17  142 1    
    37   18   19 1    
    38   18   67 1    
    39   18  143 1    
    40   19   20 am   BACKBONE|DICT|INTERRES
    41   19  144 1    
    42   20   21 2    
    43   20   22 1    
    44   22   23 1    
    45   22   24 1    
    46   22  145 1    
    47   23  146 1    
    48   23  147 1    
    49   23  148 1    
    50   24   25 am   BACKBONE|DICT|INTERRES
    51   24  149 1    
    52   25   26 2    
    53   25   27 1    
    54   27   28 1    
    55   27   29 1    
    56   27  150 1    
    57   28  151 1    
    58   28  152 1    
    59   28  153 1    
    60   29   30 am   BACKBONE|DICT|INTERRES
    61   29  154 1    
    62   30   31 2    
    63   30   32 1    
    64   32   33 1    
    65   32   34 1    
    66   32  155 1    
    67   33  156 1    
    68   33  157 1    
    69   33  158 1    
    70   34   35 am   BACKBONE|DICT|INTERRES
    71   34  159 1    
    72   35   36 2    
    73   35   37 1    
    74   37   38 1    
    75   37   39 1    
    76   37  160 1    
    77   38  161 1    
    78   38  162 1    
    79   38  163 1    
    80   39   40 am   BACKBONE|DICT|INTERRES
    81   39  164 1    
    82   40   41 2    
    83   40   42 1    
    84   42   43 1    
    85   42   44 1    
    86   42  165 1    
    87   43  166 1    
    88   43  167 1    
    89   43  168 1    
    90   44   45 am   BACKBONE|DICT|INTERRES
    91   44  169 1    
    92   45   46 2    
    93   45   47 1    
    94   47   48 1    
    95   47   49 1    
    96   47  170 1    
    97   48  171 1    
    98   48  172 1    
    99   48  173 1    
   100   49   50 am   BACKBONE|DICT|INTERRES
   101   49  174 1    
   102   50   51 2    
   103   50   52 1    
   104   52   53 1    
   105   52   54 1    
   106   52  175 1    
   107   53  176 1    
   108   53  177 1    
   109   53  178 1    
   110   54   55 am   BACKBONE|DICT|INTERRES
   111   54  179 1    
   112   55   56 2    
   113   55   57 1    
   114   57   58 1    
   115   57   59 1    
   116   57  180 1    
   117   58  181 1    
   118   58  182 1    
   119   58  183 1    
   120   59   60 am   BACKBONE|DICT|INTERRES
   121   59  184 1    
   122   60   61 2    
   123   60   62 1    
   124   62   63 1    
   125   62   64 1    
   126   62  185 1    
   127   63  186 1    
   128   63  187 1    
   129   63  188 1    
   130   64   65 am   BACKBONE|DICT|INTERRES
   131   64  189 1    
   132   65   66 2    
   133   67   68 2    
   134   67   69 am   BACKBONE|DICT|INTERRES
   135   69   70 1    
   136   69  190 1    
   137   70   71 1    
   138   70   72 1    
   139   70  191 1    
   140   71  192 1    
   141   71  193 1    
   142   71  194 1    
   143   72   73 2    
   144   72   74 am   BACKBONE|DICT|INTERRES
   145   74   75 1    
   146   74  195 1    
   147   75   76 1    
   148   75   77 1    
   149   75  196 1    
   150   76  197 1    
   151   76  198 1    
   152   76  199 1    
   153   77   78 2    
   154   77   79 am   BACKBONE|DICT|INTERRES
   155   79   80 1    
   156   79  200 1    
   157   80   81 1    
   158   80   82 1    
   159   80  201 1    
   160   81  202 1    
   161   81  203 1    
   162   81  204 1    
   163   82   83 2    
   164   82   84 am   BACKBONE|DICT|INTERRES
   165   84   85 1    
   166   84  205 1    
   167   85   86 1    
   168   85   87 1    
   169   85  206 1    
   170   86  207 1    
   171   86  208 1    
   172   86  209 1    
   173   87   88 2    
   174   87   89 am   BACKBONE|DICT|INTERRES
   175   89   90 1    
   176   89  210 1    
   177   90   91 1    
   178   90   92 1    
   179   90  211 1    
   180   91  212 1    
   181   91  213 1    
   182   91  214 1    
   183   92   93 2    
   184   92   94 am   BACKBONE|DICT|INTERRES
   185   94   95 1    
   186   94  215 1    
   187   95   96 1    
   188   95   97 1    
   189   95  216 1    
   190   96  217 1    
   191   96  218 1    
   192   96  219 1    
   193   97   98 2    
   194   97   99 am   BACKBONE|DICT|INTERRES
   195   99  100 1    
   196   99  220 1    
   197  100  101 1    
   198  100  102 1    
   199  100  221 1    
   200  101  222 1    
   201  101  223 1    
   202  101  224 1    
   203  102  103 2    
   204  102  104 am   BACKBONE|DICT|INTERRES
   205  104  105 1    
   206  104  225 1    
   207  105  106 1    
   208  105  107 1    
   209  105  226 1    
   210  106  227 1    
   211  106  228 1    
   212  106  229 1    
   213  107  108 2    
   214  107  109 am   BACKBONE|DICT|INTERRES
   215  109  110 1    
   216  109  230 1    
   217  110  111 1    
   218  110  112 1    
   219  110  231 1    
   220  111  232 1    
   221  111  233 1    
   222  111  234 1    
   223  112  113 2    
   224  112  114 am   BACKBONE|DICT|INTERRES
   225  114  115 1    
   226  114  235 1    
   227  115  116 1    
   228  115  117 1    
   229  115  236 1    
   230  116  237 1    
   231  116  238 1    
   232  116  239 1    
   233  117  118 2    
   234  117  119 am   BACKBONE|DICT|INTERRES
   235  119  120 1    
   236  119  240 1    
   237  120  121 1    
   238  120  124 1    
   239  120  241 1    
   240  121  122 am   BACKBONE|DICT|INTERRES
   241  121  123 2    
   242  122  242 1    
   243  122  243 1    
   244  124  125 1    
   245  124  244 1    
   246  124  245 1    
   247  125  126 1    
   248  126  246 1    
   249  126  247 1    
@<TRIPOS>SUBSTRUCTURE
     1 UNK         1 GROUP             0       ****    0 ROOT    
