@<TRIPOS>MOLECULE
3R540
247   249    1
SMALL
USER_CHARGES


@<TRIPOS>ATOM
      1 CA          0.4890  -14.0691  -50.9243 C.3       0 UNK        -0.1800 
      2 C           0.2200  -13.8728  -49.4400 C.2       0 UNK         0.5000 
      3 O           1.1497  -13.9231  -48.6345 O.2       0 UNK        -0.5000 
      4 N          -1.0475  -13.6382  -49.0718 N.am      1 UNK        -0.5000 
      5 CA         -1.5145  -13.5339  -47.6809 C.3       1 UNK         0.1400 
      6 C6         -3.0620  -13.6294  -47.5737 C.3       23 UNK        -0.0398 
      7 S7         -3.5682  -14.8261  -46.2907 S.3       23 UNK        -0.2404 
      8 C8         -4.1307  -16.2489  -47.2905 C.3       23 UNK        -0.0205 
      9 C9         -3.1219  -16.7166  -48.3371 C.ar      23 UNK        -0.0193 
     10 C10        -3.5451  -16.9906  -49.6417 C.ar      23 UNK        -0.1150 
     11 C11        -2.6357  -17.4288  -50.6092 C.ar      23 UNK        -0.0193 
     12 C12        -1.2849  -17.5475  -50.2759 C.ar      23 UNK        -0.1150 
     13 C13        -0.8552  -17.3233  -48.9676 C.ar      23 UNK        -0.0193 
     14 C14        -1.7790  -16.9124  -48.0032 C.ar      23 UNK        -0.1150 
     15 C15         0.5884  -17.6155  -48.5823 C.3       23 UNK        -0.0205 
     16 S16         0.9794  -19.3956  -48.7245 S.3       23 UNK        -0.2404 
     17 C17        -0.5289  -20.1437  -48.0216 C.3       23 UNK        -0.0398 
     18 CA         -0.3537  -21.6072  -47.5735 C.3       11 UNK         0.1400 
     19 N           0.5520  -21.7450  -46.4262 N.am      11 UNK        -0.5000 
     20 C           0.9347  -22.9163  -45.8977 C.2       10 UNK         0.5000 
     21 O           0.5925  -24.0090  -46.3476 O.2       10 UNK        -0.5000 
     22 CA          1.7847  -22.8690  -44.6170 C.3       10 UNK         0.1400 
     23 CB          3.2530  -22.5523  -44.9365 C.3       10 UNK        -0.1800 
     24 N           1.2602  -21.9148  -43.6400 N.am      10 UNK        -0.5000 
     25 C           0.0777  -22.0419  -43.0195 C.2       9 UNK         0.5000 
     26 O          -0.6640  -23.0143  -43.1597 O.2       9 UNK        -0.5000 
     27 CA         -0.3746  -20.8714  -42.1243 C.3       9 UNK         0.1400 
     28 CB          0.2544  -20.9775  -40.7280 C.3       9 UNK        -0.1800 
     29 N          -0.0745  -19.5613  -42.7057 N.am      9 UNK        -0.5000 
     30 C          -0.5958  -19.1114  -43.8563 C.2       8 UNK         0.5000 
     31 O          -1.4260  -19.7320  -44.5195 O.2       8 UNK        -0.5000 
     32 CA         -0.0564  -17.7757  -44.3950 C.3       8 UNK         0.1400 
     33 CB         -0.8034  -16.5802  -43.7904 C.3       8 UNK        -0.1800 
     34 N           1.3857  -17.6270  -44.2010 N.am      8 UNK        -0.5000 
     35 C           2.2965  -18.4101  -44.7956 C.2       7 UNK         0.5000 
     36 O           2.0117  -19.3073  -45.5870 O.2       7 UNK        -0.5000 
     37 CA          3.7610  -18.2045  -44.3799 C.3       7 UNK         0.1400 
     38 CB          4.3638  -16.9598  -45.0488 C.3       7 UNK        -0.1800 
     39 N           3.8938  -18.1150  -42.9255 N.am      7 UNK        -0.5000 
     40 C           3.6920  -19.1503  -42.0969 C.2       6 UNK         0.5000 
     41 O           3.4206  -20.2863  -42.4829 O.2       6 UNK        -0.5000 
     42 CA          3.7807  -18.8798  -40.5844 C.3       6 UNK         0.1400 
     43 CB          5.2061  -19.1421  -40.0762 C.3       6 UNK        -0.1800 
     44 N           3.3769  -17.5283  -40.2002 N.am      6 UNK        -0.5000 
     45 C           2.1510  -17.0075  -40.3469 C.2       5 UNK         0.5000 
     46 O           1.2059  -17.6193  -40.8500 O.2       5 UNK        -0.5000 
     47 CA          1.9455  -15.5574  -39.8493 C.3       5 UNK         0.1400 
     48 CB          3.2310  -14.8941  -39.3048 C.3       5 UNK        -0.1800 
     49 N           1.3340  -14.6612  -40.8369 N.am      5 UNK        -0.5000 
     50 C           1.6770  -14.4965  -42.1231 C.2       4 UNK         0.5000 
     51 O           2.4512  -15.2428  -42.7274 O.2       4 UNK        -0.5000 
     52 CA          1.0090  -13.3070  -42.8535 C.3       4 UNK         0.1400 
     53 CB          0.9281  -12.0382  -41.9763 C.3       4 UNK        -0.1800 
     54 N           1.6291  -12.9777  -44.1414 N.am      4 UNK        -0.5000 
     55 C           2.9028  -12.6199  -44.3780 C.2       3 UNK         0.5000 
     56 O           3.7697  -12.5120  -43.5093 O.2       3 UNK        -0.5000 
     57 CA          3.2662  -12.2949  -45.8418 C.3       3 UNK         0.1400 
     58 CB          3.7801  -13.5531  -46.5581 C.3       3 UNK        -0.1800 
     59 N           2.1437  -11.7345  -46.5978 N.am      3 UNK        -0.5000 
     60 C           1.5958  -10.5310  -46.3614 C.2       2 UNK         0.5000 
     61 O           2.0586   -9.7210  -45.5573 O.2       2 UNK        -0.5000 
     62 CA          0.3047  -10.1685  -47.1275 C.3       2 UNK         0.1400 
     63 CB          0.6195   -9.2165  -48.2915 C.3       2 UNK        -0.1800 
     64 N          -0.4236  -11.3265  -47.6500 N.am      2 UNK        -0.5000 
     65 C          -0.9505  -12.3172  -46.9159 C.2       1 UNK         0.5000 
     66 O          -0.9489  -12.3246  -45.6847 O.2       1 UNK        -0.5000 
     67 C          -1.7427  -22.2196  -47.3010 C.2       11 UNK         0.5000 
     68 O          -2.2853  -22.9014  -48.1715 O.2       11 UNK        -0.5000 
     69 N          -2.2822  -21.9912  -46.0959 N.am      12 UNK        -0.5000 
     70 CA         -3.5571  -22.5426  -45.6354 C.3       12 UNK         0.1400 
     71 CB         -3.9539  -21.8725  -44.3123 C.3       12 UNK        -0.1800 
     72 C          -3.5527  -24.0772  -45.4921 C.2       12 UNK         0.5000 
     73 O          -4.6176  -24.6876  -45.5764 O.2       12 UNK        -0.5000 
     74 N          -2.3718  -24.6754  -45.2950 N.am      13 UNK        -0.5000 
     75 CA         -2.1790  -26.1214  -45.2625 C.3       13 UNK         0.1400 
     76 CB         -1.0109  -26.4590  -44.3217 C.3       13 UNK        -0.1800 
     77 C          -1.9347  -26.6870  -46.6726 C.2       13 UNK         0.5000 
     78 O          -2.5960  -27.6492  -47.0637 O.2       13 UNK        -0.5000 
     79 N          -0.9766  -26.0980  -47.4005 N.am      14 UNK        -0.5000 
     80 CA         -0.4605  -26.6234  -48.6648 C.3       14 UNK         0.1400 
     81 CB          0.9382  -26.0382  -48.9158 C.3       14 UNK        -0.1800 
     82 C          -1.3708  -26.3559  -49.8749 C.2       14 UNK         0.5000 
     83 O          -1.5098  -27.2339  -50.7275 O.2       14 UNK        -0.5000 
     84 N          -1.9468  -25.1504  -49.9449 N.am      15 UNK        -0.5000 
     85 CA         -2.7205  -24.6580  -51.0886 C.3       15 UNK         0.1400 
     86 CB         -2.0312  -23.3907  -51.6231 C.3       15 UNK        -0.1800 
     87 C          -4.1822  -24.3540  -50.7211 C.2       15 UNK         0.5000 
     88 O          -4.9216  -23.8466  -51.5654 O.2       15 UNK        -0.5000 
     89 N          -4.5613  -24.5967  -49.4562 N.am      16 UNK        -0.5000 
     90 CA         -5.8481  -24.2537  -48.8334 C.3       16 UNK         0.1400 
     91 CB         -6.9931  -25.0662  -49.4736 C.3       16 UNK        -0.1800 
     92 C          -6.1464  -22.7357  -48.8212 C.2       16 UNK         0.5000 
     93 O          -7.2970  -22.3468  -48.6172 O.2       16 UNK        -0.5000 
     94 N          -5.1140  -21.9124  -49.0766 N.am      17 UNK        -0.5000 
     95 CA         -5.1592  -20.4718  -49.3556 C.3       17 UNK         0.1400 
     96 CB         -5.5230  -19.6929  -48.0752 C.3       17 UNK        -0.1800 
     97 C          -6.0587  -20.0995  -50.5624 C.2       17 UNK         0.5000 
     98 O          -6.5257  -18.9622  -50.6531 O.2       17 UNK        -0.5000 
     99 N          -6.3051  -21.0579  -51.4686 N.am      18 UNK        -0.5000 
    100 CA        -7.3180  -20.9844  -52.5214 C.3       18 UNK         0.1400 
    101 CB        -7.8395  -22.4045  -52.8066 C.3       18 UNK        -0.1800 
    102 C         -6.8326  -20.2483  -53.7864 C.2       18 UNK         0.5000 
    103 O         -6.8808  -20.8085  -54.8836 O.2       18 UNK        -0.5000 
    104 N         -6.4050  -18.9910  -53.6050 N.am      19 UNK        -0.5000 
    105 CA        -6.0633  -17.9945  -54.6271 C.3       19 UNK         0.1400 
    106 CB        -7.3569  -17.4300  -55.2533 C.3       19 UNK        -0.1800 
    107 C         -5.0540  -18.5085  -55.6756 C.2       19 UNK         0.5000 
    108 O         -3.8550  -18.5340  -55.4010 O.2       19 UNK        -0.5000 
    109 N         -5.5514  -18.9233  -56.8492 N.am      20 UNK        -0.5000 
    110 CA        -4.7720  -19.4772  -57.9587 C.3       20 UNK         0.1400 
    111 CB        -5.7014  -19.6889  -59.1632 C.3       20 UNK        -0.1800 
    112 C         -4.0288  -20.7838  -57.6147 C.2       20 UNK         0.5000 
    113 O         -3.0032  -21.0721  -58.2337 O.2       20 UNK        -0.5000 
    114 N         -4.5251  -21.5320  -56.6173 N.am      21 UNK        -0.5000 
    115 CA        -3.8879  -22.7404  -56.0865 C.3       21 UNK         0.1400 
    116 CB        -4.8480  -23.4257  -55.1047 C.3       21 UNK        -0.1800 
    117 C         -2.5397  -22.4691  -55.3900 C.2       21 UNK         0.5000 
    118 O         -1.7287  -23.3882  -55.2721 O.2       21 UNK        -0.5000 
    119 N         -2.3252  -21.2257  -54.9407 N.am      22 UNK        -0.5000 
    120 CA        -1.1031  -20.7724  -54.2613 C.3       22 UNK         0.1400 
    121 C          0.1254  -20.5898  -55.2022 C.2       22 UNK         0.5000 
    122 N         -0.0238  -20.6525  -56.5209 N.am      22 UNK        -0.7600 
    123 O          1.2393  -20.3920  -54.7250 O.2       22 UNK        -0.5000 
    124 C124       -1.3473  -19.4880  -53.4280 C.3       23 UNK        -0.0398 
    125 S125       -2.8129  -19.5851  -52.3376 S.3       23 UNK        -0.2404 
    126 C126       -3.1180  -17.8175  -51.9977 C.3       23 UNK        -0.0205 
    127 H127        0.9262  -15.0527  -51.0962 H         1 UNK         0.0600 
    128 H128        1.1892  -13.3147  -51.2826 H         1 UNK         0.0600 
    129 H129       -0.4247  -13.9969  -51.5148 H         1 UNK         0.0600 
    130 H130       -1.7646  -13.5993  -49.7818 H         1 UNK         0.3000 
    131 H131       -1.0755  -14.3937  -47.1723 H         1 UNK         0.0600 
    132 H132       -3.5184  -12.6635  -47.3489 H         1 UNK         0.0800 
    133 H133       -3.5052  -13.9345  -48.5225 H         1 UNK         0.0800 
    134 H134       -4.3469  -17.0806  -46.6190 H         1 UNK         0.0800 
    135 H135       -5.0762  -15.9813  -47.7649 H         1 UNK         0.0800 
    136 H136       -4.5898  -16.8853  -49.8992 H         1 UNK         0.1150 
    137 H137       -0.5742  -17.8857  -51.0145 H         1 UNK         0.1150 
    138 H138       -1.4584  -16.7404  -46.9879 H         1 UNK         0.1150 
    139 H139        1.2598  -17.0471  -49.2270 H         1 UNK         0.0800 
    140 H140        0.7931  -17.2860  -47.5631 H         1 UNK         0.0800 
    141 H141       -1.3033  -20.0735  -48.7889 H         1 UNK         0.0800 
    142 H142       -0.8700  -19.5361  -47.1825 H         1 UNK         0.0800 
    143 H143        0.0834  -22.1676  -48.4028 H         1 UNK         0.0600 
    144 H144        0.9197  -20.8837  -46.0308 H         1 UNK         0.3000 
    145 H145        1.7496  -23.8615  -44.1626 H         1 UNK         0.0600 
    146 H146        3.8695  -22.6005  -44.0389 H         1 UNK         0.0600 
    147 H147        3.6599  -23.2704  -45.6494 H         1 UNK         0.0600 
    148 H148        3.3709  -21.5591  -45.3688 H         1 UNK         0.0600 
    149 H149        1.8441  -21.1117  -43.4314 H         1 UNK         0.3000 
    150 H150       -1.4586  -20.9393  -42.0116 H         1 UNK         0.0600 
    151 H151       -0.0379  -21.9085  -40.2409 H         1 UNK         0.0600 
    152 H152       -0.0659  -20.1577  -40.0847 H         1 UNK         0.0600 
    153 H153        1.3424  -20.9631  -40.7761 H         1 UNK         0.0600 
    154 H154        0.5639  -18.9619  -42.1917 H         1 UNK         0.3000 
    155 H155       -0.2389  -17.7760  -45.4686 H         1 UNK         0.0600 
    156 H156       -0.6151  -16.4860  -42.7205 H         1 UNK         0.0600 
    157 H157       -1.8807  -16.6836  -43.9280 H         1 UNK         0.0600 
    158 H158       -0.5060  -15.6507  -44.2752 H         1 UNK         0.0600 
    159 H159        1.7036  -16.9151  -43.5503 H         1 UNK         0.3000 
    160 H160        4.3282  -19.0736  -44.7205 H         1 UNK         0.0600 
    161 H161        3.8518  -16.0465  -44.7482 H         1 UNK         0.0600 
    162 H162        4.2925  -17.0299  -46.1350 H         1 UNK         0.0600 
    163 H163        5.4188  -16.8495  -44.7983 H         1 UNK         0.0600 
    164 H164        4.0451  -17.1952  -42.5346 H         1 UNK         0.3000 
    165 H165        3.1097  -19.5790  -40.0831 H         1 UNK         0.0600 
    166 H166        5.2644  -19.0407  -38.9923 H         1 UNK         0.0600 
    167 H167        5.5286  -20.1544  -40.3239 H         1 UNK         0.0600 
    168 H168        5.9250  -18.4512  -40.5185 H         1 UNK         0.0600 
    169 H169        4.0927  -16.9483  -39.7873 H         1 UNK         0.3000 
    170 H170        1.2374  -15.6287  -39.0227 H         1 UNK         0.0600 
    171 H171        3.6606  -15.4648  -38.4804 H         1 UNK         0.0600 
    172 H172        3.9923  -14.7873  -40.0790 H         1 UNK         0.0600 
    173 H173        3.0186  -13.8974  -38.9177 H         1 UNK         0.0600 
    174 H174        0.6345  -14.0375  -40.4611 H         1 UNK         0.3000 
    175 H175       -0.0110  -13.6162  -43.0833 H         1 UNK         0.0600 
    176 H176        1.9091  -11.7424  -41.6023 H         1 UNK         0.0600 
    177 H177        0.5211  -11.1984  -42.5403 H         1 UNK         0.0600 
    178 H178        0.2761  -12.1844  -41.1150 H         1 UNK         0.0600 
    179 H179        0.9936  -12.9896  -44.9288 H         1 UNK         0.3000 
    180 H180        4.0701  -11.5559  -45.8308 H         1 UNK         0.0600 
    181 H181        4.0724  -13.3328  -47.5849 H         1 UNK         0.0600 
    182 H182        3.0223  -14.3373  -46.5867 H         1 UNK         0.0600 
    183 H183        4.6554  -13.9601  -46.0503 H         1 UNK         0.0600 
    184 H184        1.7188  -12.3420  -47.2898 H         1 UNK         0.3000 
    185 H185       -0.3536   -9.6508  -46.4270 H         1 UNK         0.0600 
    186 H186        1.2583   -9.6915  -49.0372 H         1 UNK         0.0600 
    187 H187       -0.2921   -8.8861  -48.7898 H         1 UNK         0.0600 
    188 H188        1.1362   -8.3232  -47.9378 H         1 UNK         0.0600 
    189 H189       -0.4573  -11.4197  -48.6547 H         1 UNK         0.3000 
    190 H190       -1.8044  -21.3645  -45.4532 H         1 UNK         0.3000 
    191 H191       -4.3152  -22.2895  -46.3775 H         1 UNK         0.0600 
    192 H192       -4.0441  -20.7924  -44.4298 H         1 UNK         0.0600 
    193 H193       -4.9172  -22.2423  -43.9592 H         1 UNK         0.0600 
    194 H194       -3.2205  -22.0647  -43.5292 H         1 UNK         0.0600 
    195 H195       -1.5440  -24.1002  -45.2092 H         1 UNK         0.3000 
    196 H196       -3.0738  -26.6001  -44.8587 H         1 UNK         0.0600 
    197 H197       -0.8532  -27.5368  -44.2669 H         1 UNK         0.0600 
    198 H198       -1.2098  -26.1067  -43.3093 H         1 UNK         0.0600 
    199 H199       -0.0754  -26.0065  -44.6510 H         1 UNK         0.0600 
    200 H200       -0.4676  -25.3111  -47.0009 H         1 UNK         0.3000 
    201 H201       -0.3539  -27.7060  -48.5661 H         1 UNK         0.0600 
    202 H202        1.6200  -26.2842  -48.1015 H         1 UNK         0.0600 
    203 H203        0.9090  -24.9517  -49.0093 H         1 UNK         0.0600 
    204 H204        1.3710  -26.4362  -49.8345 H         1 UNK         0.0600 
    205 H205       -1.8099  -24.4852  -49.1891 H         1 UNK         0.3000 
    206 H206       -2.7473  -25.3958  -51.8927 H         1 UNK         0.0600 
    207 H207       -1.0191  -23.6076  -51.9642 H         1 UNK         0.0600 
    208 H208       -2.5763  -22.9763  -52.4710 H         1 UNK         0.0600 
    209 H209       -1.9702  -22.6089  -50.8654 H         1 UNK         0.0600 
    210 H210       -3.8675  -24.9906  -48.8368 H         1 UNK         0.3000 
    211 H211       -5.7816  -24.5600  -47.7922 H         1 UNK         0.0600 
    212 H212       -7.1848  -24.7595  -50.5021 H         1 UNK         0.0600 
    213 H213       -7.9227  -24.9381  -48.9180 H         1 UNK         0.0600 
    214 H214       -6.7650  -26.1320  -49.4782 H         1 UNK         0.0600 
    215 H215       -4.2030  -22.3434  -49.1774 H         1 UNK         0.3000 
    216 H216       -4.1460  -20.1827  -49.6376 H         1 UNK         0.0600 
    217 H217       -5.5194  -18.6186  -48.2524 H         1 UNK         0.0600 
    218 H218       -4.8062  -19.8908  -47.2781 H         1 UNK         0.0600 
    219 H219       -6.5159  -19.9530  -47.7085 H         1 UNK         0.0600 
    220 H220       -5.8363  -21.9521  -51.3703 H         1 UNK         0.3000 
    221 H221       -8.1668  -20.4109  -52.1430 H         1 UNK         0.0600 
    222 H222       -7.0492  -23.0674  -53.1559 H         1 UNK         0.0600 
    223 H223       -8.2709  -22.8491  -51.9096 H         1 UNK         0.0600 
    224 H224       -8.6204  -22.3925  -53.5680 H         1 UNK         0.0600 
    225 H225       -6.3732  -18.6660  -52.6439 H         1 UNK         0.3000 
    226 H226       -5.5679  -17.1734  -54.1075 H         1 UNK         0.0600 
    227 H227       -7.9677  -16.9350  -54.4981 H         1 UNK         0.0600 
    228 H228       -7.1329  -16.6874  -56.0203 H         1 UNK         0.0600 
    229 H229       -7.9699  -18.2080  -55.7098 H         1 UNK         0.0600 
    230 H230       -6.5536  -18.9080  -56.9692 H         1 UNK         0.3000 
    231 H231       -4.0172  -18.7377  -58.2335 H         1 UNK         0.0600 
    232 H232       -6.4962  -20.4008  -58.9365 H         1 UNK         0.0600 
    233 H233       -5.1488  -20.0755  -60.0206 H         1 UNK         0.0600 
    234 H234       -6.1660  -18.7527  -59.4734 H         1 UNK         0.0600 
    235 H235       -5.3681  -21.2191  -56.1439 H         1 UNK         0.3000 
    236 H236       -3.7032  -23.4192  -56.9214 H         1 UNK         0.0600 
    237 H237       -5.8204  -23.6151  -55.5596 H         1 UNK         0.0600 
    238 H238       -4.4493  -24.3843  -54.7702 H         1 UNK         0.0600 
    239 H239       -5.0022  -22.8127  -54.2164 H         1 UNK         0.0600 
    240 H240       -3.0338  -20.5157  -55.0826 H         1 UNK         0.3000 
    241 H241       -0.8176  -21.5567  -53.5589 H         1 UNK         0.0600 
    242 H242        0.7801  -20.5368  -57.1176 H         1 UNK         0.3800 
    243 H243       -0.9322  -20.8201  -56.9292 H         1 UNK         0.3800 
    244 H244       -0.4742  -19.2742  -52.8108 H         1 UNK         0.0800 
    245 H245       -1.4674  -18.6352  -54.0979 H         1 UNK         0.0800 
    246 H246       -4.1891  -17.6361  -52.0883 H         1 UNK         0.0800 
    247 H247       -2.6388  -17.1841  -52.7447 H         1 UNK         0.0800 
@<TRIPOS>BOND
     1    1    2 1    
     2    1  127 1    
     3    1  128 1    
     4    1  129 1    
     5    2    3 2    
     6    2    4 am   BACKBONE|DICT|INTERRES
     7    4    5 1    
     8    4  130 1    
     9    5    6 1    
    10    5   65 1    
    11    5  131 1    
    12    6    7 1    
    13    6  132 1    
    14    6  133 1    
    15    7    8 1    
    16    8    9 1    
    17    8  134 1    
    18    8  135 1    
    19    9   10 ar   
    20    9   14 ar   
    21   10   11 ar   
    22   10  136 1    
    23   11   12 ar   
    24   11  126 1    
    25   12   13 ar   
    26   12  137 1    
    27   13   14 ar   
    28   13   15 1    
    29   14  138 1    
    30   15   16 1    
    31   15  139 1    
    32   15  140 1    
    33   16   17 1    
    34   17   18 1    
    35   17  141 1    
    36   17  142 1    
    37   18   19 1    
    38   18   67 1    
    39   18  143 1    
    40   19   20 am   BACKBONE|DICT|INTERRES
    41   19  144 1    
    42   20   21 2    
    43   20   22 1    
    44   22   23 1    
    45   22   24 1    
    46   22  145 1    
    47   23  146 1    
    48   23  147 1    
    49   23  148 1    
    50   24   25 am   BACKBONE|DICT|INTERRES
    51   24  149 1    
    52   25   26 2    
    53   25   27 1    
    54   27   28 1    
    55   27   29 1    
    56   27  150 1    
    57   28  151 1    
    58   28  152 1    
    59   28  153 1    
    60   29   30 am   BACKBONE|DICT|INTERRES
    61   29  154 1    
    62   30   31 2    
    63   30   32 1    
    64   32   33 1    
    65   32   34 1    
    66   32  155 1    
    67   33  156 1    
    68   33  157 1    
    69   33  158 1    
    70   34   35 am   BACKBONE|DICT|INTERRES
    71   34  159 1    
    72   35   36 2    
    73   35   37 1    
    74   37   38 1    
    75   37   39 1    
    76   37  160 1    
    77   38  161 1    
    78   38  162 1    
    79   38  163 1    
    80   39   40 am   BACKBONE|DICT|INTERRES
    81   39  164 1    
    82   40   41 2    
    83   40   42 1    
    84   42   43 1    
    85   42   44 1    
    86   42  165 1    
    87   43  166 1    
    88   43  167 1    
    89   43  168 1    
    90   44   45 am   BACKBONE|DICT|INTERRES
    91   44  169 1    
    92   45   46 2    
    93   45   47 1    
    94   47   48 1    
    95   47   49 1    
    96   47  170 1    
    97   48  171 1    
    98   48  172 1    
    99   48  173 1    
   100   49   50 am   BACKBONE|DICT|INTERRES
   101   49  174 1    
   102   50   51 2    
   103   50   52 1    
   104   52   53 1    
   105   52   54 1    
   106   52  175 1    
   107   53  176 1    
   108   53  177 1    
   109   53  178 1    
   110   54   55 am   BACKBONE|DICT|INTERRES
   111   54  179 1    
   112   55   56 2    
   113   55   57 1    
   114   57   58 1    
   115   57   59 1    
   116   57  180 1    
   117   58  181 1    
   118   58  182 1    
   119   58  183 1    
   120   59   60 am   BACKBONE|DICT|INTERRES
   121   59  184 1    
   122   60   61 2    
   123   60   62 1    
   124   62   63 1    
   125   62   64 1    
   126   62  185 1    
   127   63  186 1    
   128   63  187 1    
   129   63  188 1    
   130   64   65 am   BACKBONE|DICT|INTERRES
   131   64  189 1    
   132   65   66 2    
   133   67   68 2    
   134   67   69 am   BACKBONE|DICT|INTERRES
   135   69   70 1    
   136   69  190 1    
   137   70   71 1    
   138   70   72 1    
   139   70  191 1    
   140   71  192 1    
   141   71  193 1    
   142   71  194 1    
   143   72   73 2    
   144   72   74 am   BACKBONE|DICT|INTERRES
   145   74   75 1    
   146   74  195 1    
   147   75   76 1    
   148   75   77 1    
   149   75  196 1    
   150   76  197 1    
   151   76  198 1    
   152   76  199 1    
   153   77   78 2    
   154   77   79 am   BACKBONE|DICT|INTERRES
   155   79   80 1    
   156   79  200 1    
   157   80   81 1    
   158   80   82 1    
   159   80  201 1    
   160   81  202 1    
   161   81  203 1    
   162   81  204 1    
   163   82   83 2    
   164   82   84 am   BACKBONE|DICT|INTERRES
   165   84   85 1    
   166   84  205 1    
   167   85   86 1    
   168   85   87 1    
   169   85  206 1    
   170   86  207 1    
   171   86  208 1    
   172   86  209 1    
   173   87   88 2    
   174   87   89 am   BACKBONE|DICT|INTERRES
   175   89   90 1    
   176   89  210 1    
   177   90   91 1    
   178   90   92 1    
   179   90  211 1    
   180   91  212 1    
   181   91  213 1    
   182   91  214 1    
   183   92   93 2    
   184   92   94 am   BACKBONE|DICT|INTERRES
   185   94   95 1    
   186   94  215 1    
   187   95   96 1    
   188   95   97 1    
   189   95  216 1    
   190   96  217 1    
   191   96  218 1    
   192   96  219 1    
   193   97   98 2    
   194   97   99 am   BACKBONE|DICT|INTERRES
   195   99  100 1    
   196   99  220 1    
   197  100  101 1    
   198  100  102 1    
   199  100  221 1    
   200  101  222 1    
   201  101  223 1    
   202  101  224 1    
   203  102  103 2    
   204  102  104 am   BACKBONE|DICT|INTERRES
   205  104  105 1    
   206  104  225 1    
   207  105  106 1    
   208  105  107 1    
   209  105  226 1    
   210  106  227 1    
   211  106  228 1    
   212  106  229 1    
   213  107  108 2    
   214  107  109 am   BACKBONE|DICT|INTERRES
   215  109  110 1    
   216  109  230 1    
   217  110  111 1    
   218  110  112 1    
   219  110  231 1    
   220  111  232 1    
   221  111  233 1    
   222  111  234 1    
   223  112  113 2    
   224  112  114 am   BACKBONE|DICT|INTERRES
   225  114  115 1    
   226  114  235 1    
   227  115  116 1    
   228  115  117 1    
   229  115  236 1    
   230  116  237 1    
   231  116  238 1    
   232  116  239 1    
   233  117  118 2    
   234  117  119 am   BACKBONE|DICT|INTERRES
   235  119  120 1    
   236  119  240 1    
   237  120  121 1    
   238  120  124 1    
   239  120  241 1    
   240  121  122 am   BACKBONE|DICT|INTERRES
   241  121  123 2    
   242  122  242 1    
   243  122  243 1    
   244  124  125 1    
   245  124  244 1    
   246  124  245 1    
   247  125  126 1    
   248  126  246 1    
   249  126  247 1    
@<TRIPOS>SUBSTRUCTURE
     1 UNK         1 GROUP             0       ****    0 ROOT    
