@<TRIPOS>MOLECULE
3R540
247   249    1
SMALL
USER_CHARGES


@<TRIPOS>ATOM
      1 CA         -0.4569  -13.0099  -51.6582 C.3       0 UNK        -0.1800 
      2 C           0.5118  -13.0204  -50.4861 C.2       0 UNK         0.5000 
      3 O           0.9510  -11.9590  -50.0416 O.2       0 UNK        -0.5000 
      4 N           0.8520  -14.2162  -49.9905 N.am      1 UNK        -0.5000 
      5 CA          1.7210  -14.4186  -48.8265 C.3       1 UNK         0.1400 
      6 C6          2.2205  -15.8806  -48.6934 C.3       23 UNK        -0.0398 
      7 S7          3.0169  -16.5227  -50.2074 S.3       23 UNK        -0.2404 
      8 C8          1.8946  -17.8768  -50.6925 C.3       23 UNK        -0.0205 
      9 C9          0.5196  -17.3651  -51.0956 C.ar      23 UNK        -0.0193 
     10 C10         0.3170  -16.8279  -52.3690 C.ar      23 UNK        -0.1150 
     11 C11        -0.9364  -16.3333  -52.7407 C.ar      23 UNK        -0.0193 
     12 C12        -1.9918  -16.3733  -51.8243 C.ar      23 UNK        -0.1150 
     13 C13        -1.8016  -16.9115  -50.5483 C.ar      23 UNK        -0.0193 
     14 C14        -0.5479  -17.4166  -50.1952 C.ar      23 UNK        -0.1150 
     15 C15        -2.9399  -16.9302  -49.5411 C.3       23 UNK        -0.0205 
     16 S16        -4.0870  -18.3039  -49.8696 S.3       23 UNK        -0.2404 
     17 C17        -4.5711  -18.8104  -48.1816 C.3       23 UNK        -0.0398 
     18 CA         -4.0256  -20.2164  -47.8419 C.3       11 UNK         0.1400 
     19 N          -2.5633  -20.2873  -47.9288 N.am      11 UNK        -0.5000 
     20 C          -1.8527  -21.4209  -47.9350 C.2       10 UNK         0.5000 
     21 O          -2.3574  -22.5411  -47.8643 O.2       10 UNK        -0.5000 
     22 CA         -0.3211  -21.2855  -47.9936 C.3       10 UNK         0.1400 
     23 CB          0.1351  -21.2663  -49.4592 C.3       10 UNK        -0.1800 
     24 N           0.2323  -20.1122  -47.3043 N.am      10 UNK        -0.5000 
     25 C          -0.0187  -19.7451  -46.0399 C.2       9 UNK         0.5000 
     26 O          -0.8475  -20.2979  -45.3129 O.2       9 UNK        -0.5000 
     27 CA          0.7519  -18.5223  -45.5166 C.3       9 UNK         0.1400 
     28 CB         -0.0316  -17.2370  -45.8139 C.3       9 UNK        -0.1800 
     29 N           0.9707  -18.6176  -44.0761 N.am      9 UNK        -0.5000 
     30 C           1.7955  -19.4914  -43.4829 C.2       8 UNK         0.5000 
     31 O           2.5558  -20.2344  -44.1049 O.2       8 UNK        -0.5000 
     32 CA          1.7725  -19.5532  -41.9439 C.3       8 UNK         0.1400 
     33 CB          3.1527  -19.2170  -41.3559 C.3       8 UNK        -0.1800 
     34 N           0.7736  -18.6452  -41.3736 N.am      8 UNK        -0.5000 
     35 C          -0.4185  -19.0248  -40.8927 C.2       7 UNK         0.5000 
     36 O          -0.7962  -20.1957  -40.8479 O.2       7 UNK        -0.5000 
     37 CA         -1.3535  -17.9160  -40.3733 C.3       7 UNK         0.1400 
     38 CB         -1.1846  -17.7459  -38.8567 C.3       7 UNK        -0.1800 
     39 N          -1.1396  -16.6295  -41.0426 N.am      7 UNK        -0.5000 
     40 C          -1.5859  -16.3527  -42.2769 C.2       6 UNK         0.5000 
     41 O          -2.2378  -17.1557  -42.9429 O.2       6 UNK        -0.5000 
     42 CA         -1.2184  -14.9938  -42.9102 C.3       6 UNK         0.1400 
     43 CB         -2.3981  -14.3547  -43.6702 C.3       6 UNK        -0.1800 
     44 N          -0.5868  -14.0391  -41.9976 N.am      6 UNK        -0.5000 
     45 C          -1.1221  -13.3765  -40.9645 C.2       5 UNK         0.5000 
     46 O          -2.3058  -13.4455  -40.6314 O.2       5 UNK        -0.5000 
     47 CA         -0.1209  -12.5160  -40.1614 C.3       5 UNK         0.1400 
     48 CB         -0.6740  -12.0498  -38.7983 C.3       5 UNK        -0.1800 
     49 N           1.1805  -13.1845  -40.0063 N.am      5 UNK        -0.5000 
     50 C           1.4036  -14.3625  -39.4026 C.2       4 UNK         0.5000 
     51 O           0.5262  -15.0100  -38.8326 O.2       4 UNK        -0.5000 
     52 CA          2.8342  -14.9319  -39.5162 C.3       4 UNK         0.1400 
     53 CB          2.9428  -16.3807  -38.9971 C.3       4 UNK        -0.1800 
     54 N           3.3764  -14.8310  -40.8776 N.am      4 UNK        -0.5000 
     55 C           2.8486  -15.3428  -41.9989 C.2       3 UNK         0.5000 
     56 O           1.8178  -16.0188  -42.0395 O.2       3 UNK        -0.5000 
     57 CA          3.5943  -15.0234  -43.3080 C.3       3 UNK         0.1400 
     58 CB          4.2101  -16.2984  -43.9035 C.3       3 UNK        -0.1800 
     59 N           2.7349  -14.3972  -44.3159 N.am      3 UNK        -0.5000 
     60 C           1.9988  -13.2885  -44.1491 C.2       2 UNK         0.5000 
     61 O           1.9325  -12.6703  -43.0851 O.2       2 UNK        -0.5000 
     62 CA          1.1939  -12.7924  -45.3654 C.3       2 UNK         0.1400 
     63 CB          1.1624  -11.2559  -45.4474 C.3       2 UNK        -0.1800 
     64 N           1.7190  -13.3273  -46.6263 N.am      2 UNK        -0.5000 
     65 C           0.9912  -13.9833  -47.5377 C.2       1 UNK         0.5000 
     66 O          -0.1986  -14.2704  -47.3881 O.2       1 UNK        -0.5000 
     67 C          -4.5796  -20.7355  -46.4969 C.2       11 UNK         0.5000 
     68 O          -5.7171  -21.2055  -46.4633 O.2       11 UNK        -0.5000 
     69 N          -3.7670  -20.6785  -45.4333 N.am      12 UNK        -0.5000 
     70 CA         -4.0799  -21.2308  -44.1183 C.3       12 UNK         0.1400 
     71 CB         -3.6985  -20.2071  -43.0371 C.3       12 UNK        -0.1800 
     72 C          -3.3337  -22.5553  -43.8938 C.2       12 UNK         0.5000 
     73 O          -3.9520  -23.5417  -43.4938 O.2       12 UNK        -0.5000 
     74 N          -2.0193  -22.5551  -44.1527 N.am      13 UNK        -0.5000 
     75 CA         -1.1014  -23.6450  -43.8202 C.3       13 UNK         0.1400 
     76 CB          0.3394  -23.1171  -43.8845 C.3       13 UNK        -0.1800 
     77 C          -1.2534  -24.8945  -44.7044 C.2       13 UNK         0.5000 
     78 O          -1.0107  -26.0015  -44.2221 O.2       13 UNK        -0.5000 
     79 N          -1.6405  -24.7015  -45.9707 N.am      14 UNK        -0.5000 
     80 CA         -1.8070  -25.7615  -46.9675 C.3       14 UNK         0.1400 
     81 CB         -0.7457  -25.5760  -48.0683 C.3       14 UNK        -0.1800 
     82 C          -3.2285  -25.7681  -47.5571 C.2       14 UNK         0.5000 
     83 O          -3.4514  -26.4213  -48.5759 O.2       14 UNK        -0.5000 
     84 N          -4.1572  -25.0128  -46.9477 N.am      15 UNK        -0.5000 
     85 CA         -5.5499  -24.8122  -47.3737 C.3       15 UNK         0.1400 
     86 CB         -6.3718  -26.0939  -47.1261 C.3       15 UNK        -0.1800 
     87 C          -5.6816  -24.2901  -48.8245 C.2       15 UNK         0.5000 
     88 O          -6.6385  -24.6314  -49.5209 O.2       15 UNK        -0.5000 
     89 N          -4.6915  -23.4923  -49.2511 N.am      16 UNK        -0.5000 
     90 CA         -4.4972  -22.9126  -50.5826 C.3       16 UNK         0.1400 
     91 CB         -5.7022  -22.0518  -51.0189 C.3       16 UNK        -0.1800 
     92 C          -4.0843  -23.9267  -51.6673 C.2       16 UNK         0.5000 
     93 O          -4.0145  -23.5413  -52.8321 O.2       16 UNK        -0.5000 
     94 N          -3.7602  -25.1780  -51.3040 N.am      17 UNK        -0.5000 
     95 CA         -3.3019  -26.2004  -52.2537 C.3       17 UNK         0.1400 
     96 CB         -3.3112  -27.5797  -51.5791 C.3       17 UNK        -0.1800 
     97 C          -1.9072  -25.8936  -52.8335 C.2       17 UNK         0.5000 
     98 O          -1.6418  -26.2156  -53.9915 O.2       17 UNK        -0.5000 
     99 N          -1.0560  -25.2458  -52.0266 N.am      18 UNK        -0.5000 
    100 CA         0.2902  -24.8073  -52.4031 C.3       18 UNK         0.1400 
    101 CB         1.1695  -24.7802  -51.1417 C.3       18 UNK        -0.1800 
    102 C          0.3100  -23.4430  -53.1273 C.2       18 UNK         0.5000 
    103 O          1.3800  -23.0092  -53.5553 O.2       18 UNK        -0.5000 
    104 N         -0.8524  -22.7899  -53.2552 N.am      19 UNK        -0.5000 
    105 CA        -1.0347  -21.4959  -53.9127 C.3       19 UNK         0.1400 
    106 CB        -1.0343  -20.3738  -52.8570 C.3       19 UNK        -0.1800 
    107 C         -2.3142  -21.5251  -54.7657 C.2       19 UNK         0.5000 
    108 O         -3.0798  -20.5626  -54.7696 O.2       19 UNK        -0.5000 
    109 N         -2.5355  -22.6452  -55.4693 N.am      20 UNK        -0.5000 
    110 CA        -3.7723  -22.9590  -56.1950 C.3       20 UNK         0.1400 
    111 CB        -3.6909  -24.4058  -56.7056 C.3       20 UNK        -0.1800 
    112 C         -4.1176  -21.9937  -57.3478 C.2       20 UNK         0.5000 
    113 O         -5.2828  -21.9107  -57.7381 O.2       20 UNK        -0.5000 
    114 N         -3.1100  -21.2810  -57.8678 N.am      21 UNK        -0.5000 
    115 CA        -3.2639  -20.2391  -58.8831 C.3       21 UNK         0.1400 
    116 CB        -1.9003  -19.9981  -59.5498 C.3       21 UNK        -0.1800 
    117 C         -3.8281  -18.9162  -58.3230 C.2       21 UNK         0.5000 
    118 O         -4.3449  -18.1117  -59.1002 O.2       21 UNK        -0.5000 
    119 N         -3.7023  -18.6957  -57.0084 N.am      22 UNK        -0.5000 
    120 CA        -4.1655  -17.4870  -56.3128 C.3       22 UNK         0.1400 
    121 C         -5.6914  -17.5237  -56.0253 C.2       22 UNK         0.5000 
    122 N         -6.3455  -16.3704  -55.9888 N.am      22 UNK        -0.7600 
    123 O         -6.2857  -18.5760  -55.8016 O.2       22 UNK        -0.5000 
    124 C124       -3.3621  -17.2369  -55.0111 C.3       23 UNK        -0.0398 
    125 S125       -1.5806  -17.0051  -55.3455 S.3       23 UNK        -0.2404 
    126 C126       -1.1343  -15.7342  -54.1241 C.3       23 UNK        -0.0205 
    127 H127       -1.3427  -13.6017  -51.4295 H         1 UNK         0.0600 
    128 H128        0.0210  -13.4205  -52.5473 H         1 UNK         0.0600 
    129 H129       -0.7807  -11.9938  -51.8843 H         1 UNK         0.0600 
    130 H130        0.4564  -15.0551  -50.3926 H         1 UNK         0.3000 
    131 H131        2.5969  -13.7797  -48.9591 H         1 UNK         0.0600 
    132 H132        1.4065  -16.5434  -48.4069 H         1 UNK         0.0800 
    133 H133        2.9532  -15.9507  -47.8876 H         1 UNK         0.0800 
    134 H134        1.8177  -18.5959  -49.8765 H         1 UNK         0.0800 
    135 H135        2.3373  -18.4183  -51.5299 H         1 UNK         0.0800 
    136 H136        1.1390  -16.7889  -53.0701 H         1 UNK         0.1150 
    137 H137       -2.9614  -15.9840  -52.1006 H         1 UNK         0.1150 
    138 H138       -0.4012  -17.8374  -49.2121 H         1 UNK         0.1150 
    139 H139       -2.5337  -17.0004  -48.5312 H         1 UNK         0.0800 
    140 H140       -3.4879  -15.9878  -49.5822 H         1 UNK         0.0800 
    141 H141       -5.6620  -18.8081  -48.1421 H         1 UNK         0.0800 
    142 H142       -4.2411  -18.0750  -47.4464 H         1 UNK         0.0800 
    143 H143       -4.4161  -20.8918  -48.5996 H         1 UNK         0.0600 
    144 H144       -2.0728  -19.4097  -47.9948 H         1 UNK         0.3000 
    145 H145        0.0959  -22.1734  -47.5143 H         1 UNK         0.0600 
    146 H146        1.2165  -21.3753  -49.5419 H         1 UNK         0.0600 
    147 H147       -0.3196  -22.0786  -50.0271 H         1 UNK         0.0600 
    148 H148       -0.1488  -20.3356  -49.9496 H         1 UNK         0.0600 
    149 H149        0.9394  -19.6051  -47.8140 H         1 UNK         0.3000 
    150 H150        1.7224  -18.4712  -46.0146 H         1 UNK         0.0600 
    151 H151       -0.2386  -17.1325  -46.8782 H         1 UNK         0.0600 
    152 H152        0.5288  -16.3559  -45.5031 H         1 UNK         0.0600 
    153 H153       -0.9942  -17.2246  -45.3030 H         1 UNK         0.0600 
    154 H154        0.3463  -18.0887  -43.4868 H         1 UNK         0.3000 
    155 H155        1.5430  -20.5854  -41.6733 H         1 UNK         0.0600 
    156 H156        3.4652  -18.2046  -41.6064 H         1 UNK         0.0600 
    157 H157        3.9168  -19.8974  -41.7337 H         1 UNK         0.0600 
    158 H158        3.1493  -19.3084  -40.2698 H         1 UNK         0.0600 
    159 H159        1.0043  -17.6553  -41.4097 H         1 UNK         0.3000 
    160 H160       -2.3816  -18.2346  -40.5595 H         1 UNK         0.0600 
    161 H161       -0.1502  -17.5309  -38.5878 H         1 UNK         0.0600 
    162 H162       -1.4729  -18.6567  -38.3305 H         1 UNK         0.0600 
    163 H163       -1.8078  -16.9370  -38.4750 H         1 UNK         0.0600 
    164 H164       -0.5947  -15.9375  -40.5427 H         1 UNK         0.3000 
    165 H165       -0.4509  -15.2231  -43.6485 H         1 UNK         0.0600 
    166 H166       -3.2535  -14.1790  -43.0176 H         1 UNK         0.0600 
    167 H167       -2.1134  -13.4021  -44.1165 H         1 UNK         0.0600 
    168 H168       -2.7357  -15.0016  -44.4809 H         1 UNK         0.0600 
    169 H169        0.4075  -13.9097  -42.1413 H         1 UNK         0.3000 
    170 H170        0.0629  -11.6251  -40.7638 H         1 UNK         0.0600 
    171 H171       -1.5671  -11.4378  -38.9296 H         1 UNK         0.0600 
    172 H172       -0.9470  -12.8901  -38.1595 H         1 UNK         0.0600 
    173 H173        0.0572  -11.4445  -38.2627 H         1 UNK         0.0600 
    174 H174        1.9501  -12.7526  -40.5009 H         1 UNK         0.3000 
    175 H175        3.4642  -14.3062  -38.8825 H         1 UNK         0.0600 
    176 H176        2.2714  -17.0523  -39.5306 H         1 UNK         0.0600 
    177 H177        3.9571  -16.7652  -39.1030 H         1 UNK         0.0600 
    178 H178        2.6828  -16.4361  -37.9395 H         1 UNK         0.0600 
    179 H179        4.2175  -14.2769  -40.9609 H         1 UNK         0.3000 
    180 H180        4.4033  -14.3232  -43.0908 H         1 UNK         0.0600 
    181 H181        3.4436  -17.0168  -44.1951 H         1 UNK         0.0600 
    182 H182        4.8658  -16.7905  -43.1841 H         1 UNK         0.0600 
    183 H183        4.8100  -16.0732  -44.7853 H         1 UNK         0.0600 
    184 H184        2.7010  -14.8537  -45.2136 H         1 UNK         0.3000 
    185 H185        0.1714  -13.1371  -45.2015 H         1 UNK         0.0600 
    186 H186        2.1646  -10.8388  -45.5514 H         1 UNK         0.0600 
    187 H187        0.5701  -10.9208  -46.2991 H         1 UNK         0.0600 
    188 H188        0.7141  -10.8206  -44.5533 H         1 UNK         0.0600 
    189 H189        2.6905  -13.1244  -46.8201 H         1 UNK         0.3000 
    190 H190       -2.8239  -20.3241  -45.5532 H         1 UNK         0.3000 
    191 H191       -5.1500  -21.4289  -44.0273 H         1 UNK         0.0600 
    192 H192       -3.8963  -20.5970  -42.0379 H         1 UNK         0.0600 
    193 H193       -4.2715  -19.2864  -43.1476 H         1 UNK         0.0600 
    194 H194       -2.6407  -19.9447  -43.0830 H         1 UNK         0.0600 
    195 H195       -1.5890  -21.6999  -44.5002 H         1 UNK         0.3000 
    196 H196       -1.3018  -23.9482  -42.7903 H         1 UNK         0.0600 
    197 H197        0.5968  -22.7660  -44.8845 H         1 UNK         0.0600 
    198 H198        0.4815  -22.2879  -43.1920 H         1 UNK         0.0600 
    199 H199        1.0558  -23.8934  -43.6130 H         1 UNK         0.0600 
    200 H200       -1.8302  -23.7607  -46.2976 H         1 UNK         0.3000 
    201 H201       -1.6601  -26.7446  -46.5165 H         1 UNK         0.0600 
    202 H202       -0.8847  -24.6396  -48.6080 H         1 UNK         0.0600 
    203 H203       -0.7873  -26.3856  -48.7981 H         1 UNK         0.0600 
    204 H204        0.2603  -25.5732  -47.6486 H         1 UNK         0.0600 
    205 H205       -3.8778  -24.5168  -46.1134 H         1 UNK         0.3000 
    206 H206       -5.9566  -24.0289  -46.7327 H         1 UNK         0.0600 
    207 H207       -6.2748  -26.4306  -46.0940 H         1 UNK         0.0600 
    208 H208       -7.4328  -25.9220  -47.3109 H         1 UNK         0.0600 
    209 H209       -6.0536  -26.9094  -47.7765 H         1 UNK         0.0600 
    210 H210       -3.9332  -23.3047  -48.5996 H         1 UNK         0.3000 
    211 H211       -3.6444  -22.2398  -50.4827 H         1 UNK         0.0600 
    212 H212       -5.4525  -21.4521  -51.8952 H         1 UNK         0.0600 
    213 H213       -6.0113  -21.3612  -50.2351 H         1 UNK         0.0600 
    214 H214       -6.5640  -22.6648  -51.2831 H         1 UNK         0.0600 
    215 H215       -3.8259  -25.4562  -50.3298 H         1 UNK         0.3000 
    216 H216       -4.0085  -26.2279  -53.0860 H         1 UNK         0.0600 
    217 H217       -2.5766  -27.6407  -50.7755 H         1 UNK         0.0600 
    218 H218       -3.0739  -28.3651  -52.2976 H         1 UNK         0.0600 
    219 H219       -4.2903  -27.8080  -51.1575 H         1 UNK         0.0600 
    220 H220       -1.3631  -25.0228  -51.0918 H         1 UNK         0.3000 
    221 H221        0.7211  -25.5376  -53.0914 H         1 UNK         0.0600 
    222 H222        1.2148  -25.7637  -50.6736 H         1 UNK         0.0600 
    223 H223        0.7967  -24.0754  -50.4002 H         1 UNK         0.0600 
    224 H224        2.1935  -24.4913  -51.3818 H         1 UNK         0.0600 
    225 H225       -1.7020  -23.2358  -52.9334 H         1 UNK         0.3000 
    226 H226       -0.2145  -21.3085  -54.6085 H         1 UNK         0.0600 
    227 H227       -1.8214  -20.5156  -52.1153 H         1 UNK         0.0600 
    228 H228       -0.0790  -20.3310  -52.3352 H         1 UNK         0.0600 
    229 H229       -1.1883  -19.3968  -53.3163 H         1 UNK         0.0600 
    230 H230       -1.8548  -23.3884  -55.4091 H         1 UNK         0.3000 
    231 H231       -4.5932  -22.8994  -55.4775 H         1 UNK         0.0600 
    232 H232       -2.8591  -24.5413  -57.3979 H         1 UNK         0.0600 
    233 H233       -4.6048  -24.6894  -57.2290 H         1 UNK         0.0600 
    234 H234       -3.5608  -25.1068  -55.8807 H         1 UNK         0.0600 
    235 H235       -2.1843  -21.4180  -57.4901 H         1 UNK         0.3000 
    236 H236       -3.9578  -20.5959  -59.6473 H         1 UNK         0.0600 
    237 H237       -1.5167  -20.9108  -60.0062 H         1 UNK         0.0600 
    238 H238       -1.9781  -19.2495  -60.3393 H         1 UNK         0.0600 
    239 H239       -1.1594  -19.6425  -58.8325 H         1 UNK         0.0600 
    240 H240       -3.3404  -19.4293  -56.4087 H         1 UNK         0.3000 
    241 H241       -3.9837  -16.6364  -56.9734 H         1 UNK         0.0600 
    242 H242       -7.3346  -16.3760  -55.7918 H         1 UNK         0.3800 
    243 H243       -5.8840  -15.4915  -56.1675 H         1 UNK         0.3800 
    244 H244       -3.4858  -18.0589  -54.3051 H         1 UNK         0.0800 
    245 H245       -3.7435  -16.3484  -54.5060 H         1 UNK         0.0800 
    246 H246       -1.8889  -14.9467  -54.1009 H         1 UNK         0.0800 
    247 H247       -0.2102  -15.2529  -54.4476 H         1 UNK         0.0800 
@<TRIPOS>BOND
     1    1    2 1    
     2    1  127 1    
     3    1  128 1    
     4    1  129 1    
     5    2    3 2    
     6    2    4 am   BACKBONE|DICT|INTERRES
     7    4    5 1    
     8    4  130 1    
     9    5    6 1    
    10    5   65 1    
    11    5  131 1    
    12    6    7 1    
    13    6  132 1    
    14    6  133 1    
    15    7    8 1    
    16    8    9 1    
    17    8  134 1    
    18    8  135 1    
    19    9   10 ar   
    20    9   14 ar   
    21   10   11 ar   
    22   10  136 1    
    23   11   12 ar   
    24   11  126 1    
    25   12   13 ar   
    26   12  137 1    
    27   13   14 ar   
    28   13   15 1    
    29   14  138 1    
    30   15   16 1    
    31   15  139 1    
    32   15  140 1    
    33   16   17 1    
    34   17   18 1    
    35   17  141 1    
    36   17  142 1    
    37   18   19 1    
    38   18   67 1    
    39   18  143 1    
    40   19   20 am   BACKBONE|DICT|INTERRES
    41   19  144 1    
    42   20   21 2    
    43   20   22 1    
    44   22   23 1    
    45   22   24 1    
    46   22  145 1    
    47   23  146 1    
    48   23  147 1    
    49   23  148 1    
    50   24   25 am   BACKBONE|DICT|INTERRES
    51   24  149 1    
    52   25   26 2    
    53   25   27 1    
    54   27   28 1    
    55   27   29 1    
    56   27  150 1    
    57   28  151 1    
    58   28  152 1    
    59   28  153 1    
    60   29   30 am   BACKBONE|DICT|INTERRES
    61   29  154 1    
    62   30   31 2    
    63   30   32 1    
    64   32   33 1    
    65   32   34 1    
    66   32  155 1    
    67   33  156 1    
    68   33  157 1    
    69   33  158 1    
    70   34   35 am   BACKBONE|DICT|INTERRES
    71   34  159 1    
    72   35   36 2    
    73   35   37 1    
    74   37   38 1    
    75   37   39 1    
    76   37  160 1    
    77   38  161 1    
    78   38  162 1    
    79   38  163 1    
    80   39   40 am   BACKBONE|DICT|INTERRES
    81   39  164 1    
    82   40   41 2    
    83   40   42 1    
    84   42   43 1    
    85   42   44 1    
    86   42  165 1    
    87   43  166 1    
    88   43  167 1    
    89   43  168 1    
    90   44   45 am   BACKBONE|DICT|INTERRES
    91   44  169 1    
    92   45   46 2    
    93   45   47 1    
    94   47   48 1    
    95   47   49 1    
    96   47  170 1    
    97   48  171 1    
    98   48  172 1    
    99   48  173 1    
   100   49   50 am   BACKBONE|DICT|INTERRES
   101   49  174 1    
   102   50   51 2    
   103   50   52 1    
   104   52   53 1    
   105   52   54 1    
   106   52  175 1    
   107   53  176 1    
   108   53  177 1    
   109   53  178 1    
   110   54   55 am   BACKBONE|DICT|INTERRES
   111   54  179 1    
   112   55   56 2    
   113   55   57 1    
   114   57   58 1    
   115   57   59 1    
   116   57  180 1    
   117   58  181 1    
   118   58  182 1    
   119   58  183 1    
   120   59   60 am   BACKBONE|DICT|INTERRES
   121   59  184 1    
   122   60   61 2    
   123   60   62 1    
   124   62   63 1    
   125   62   64 1    
   126   62  185 1    
   127   63  186 1    
   128   63  187 1    
   129   63  188 1    
   130   64   65 am   BACKBONE|DICT|INTERRES
   131   64  189 1    
   132   65   66 2    
   133   67   68 2    
   134   67   69 am   BACKBONE|DICT|INTERRES
   135   69   70 1    
   136   69  190 1    
   137   70   71 1    
   138   70   72 1    
   139   70  191 1    
   140   71  192 1    
   141   71  193 1    
   142   71  194 1    
   143   72   73 2    
   144   72   74 am   BACKBONE|DICT|INTERRES
   145   74   75 1    
   146   74  195 1    
   147   75   76 1    
   148   75   77 1    
   149   75  196 1    
   150   76  197 1    
   151   76  198 1    
   152   76  199 1    
   153   77   78 2    
   154   77   79 am   BACKBONE|DICT|INTERRES
   155   79   80 1    
   156   79  200 1    
   157   80   81 1    
   158   80   82 1    
   159   80  201 1    
   160   81  202 1    
   161   81  203 1    
   162   81  204 1    
   163   82   83 2    
   164   82   84 am   BACKBONE|DICT|INTERRES
   165   84   85 1    
   166   84  205 1    
   167   85   86 1    
   168   85   87 1    
   169   85  206 1    
   170   86  207 1    
   171   86  208 1    
   172   86  209 1    
   173   87   88 2    
   174   87   89 am   BACKBONE|DICT|INTERRES
   175   89   90 1    
   176   89  210 1    
   177   90   91 1    
   178   90   92 1    
   179   90  211 1    
   180   91  212 1    
   181   91  213 1    
   182   91  214 1    
   183   92   93 2    
   184   92   94 am   BACKBONE|DICT|INTERRES
   185   94   95 1    
   186   94  215 1    
   187   95   96 1    
   188   95   97 1    
   189   95  216 1    
   190   96  217 1    
   191   96  218 1    
   192   96  219 1    
   193   97   98 2    
   194   97   99 am   BACKBONE|DICT|INTERRES
   195   99  100 1    
   196   99  220 1    
   197  100  101 1    
   198  100  102 1    
   199  100  221 1    
   200  101  222 1    
   201  101  223 1    
   202  101  224 1    
   203  102  103 2    
   204  102  104 am   BACKBONE|DICT|INTERRES
   205  104  105 1    
   206  104  225 1    
   207  105  106 1    
   208  105  107 1    
   209  105  226 1    
   210  106  227 1    
   211  106  228 1    
   212  106  229 1    
   213  107  108 2    
   214  107  109 am   BACKBONE|DICT|INTERRES
   215  109  110 1    
   216  109  230 1    
   217  110  111 1    
   218  110  112 1    
   219  110  231 1    
   220  111  232 1    
   221  111  233 1    
   222  111  234 1    
   223  112  113 2    
   224  112  114 am   BACKBONE|DICT|INTERRES
   225  114  115 1    
   226  114  235 1    
   227  115  116 1    
   228  115  117 1    
   229  115  236 1    
   230  116  237 1    
   231  116  238 1    
   232  116  239 1    
   233  117  118 2    
   234  117  119 am   BACKBONE|DICT|INTERRES
   235  119  120 1    
   236  119  240 1    
   237  120  121 1    
   238  120  124 1    
   239  120  241 1    
   240  121  122 am   BACKBONE|DICT|INTERRES
   241  121  123 2    
   242  122  242 1    
   243  122  243 1    
   244  124  125 1    
   245  124  244 1    
   246  124  245 1    
   247  125  126 1    
   248  126  246 1    
   249  126  247 1    
@<TRIPOS>SUBSTRUCTURE
     1 UNK         1 GROUP             0       ****    0 ROOT    
