@<TRIPOS>MOLECULE
3R540
247   249    1
SMALL
USER_CHARGES


@<TRIPOS>ATOM
      1 CA          5.2383  -12.1737  -48.1226 C.3       0 UNK        -0.1800 
      2 C           3.8080  -12.6497  -47.9104 C.2       0 UNK         0.5000 
      3 O           3.5780  -13.5310  -47.0830 O.2       0 UNK        -0.5000 
      4 N           2.8612  -12.0688  -48.6593 N.am      1 UNK        -0.5000 
      5 CA          1.4205  -12.3573  -48.6783 C.3       1 UNK         0.1400 
      6 C6          0.6909  -11.4454  -49.6974 C.3       23 UNK        -0.0398 
      7 S7          1.2565  -11.7015  -51.4152 S.3       23 UNK        -0.2404 
      8 C8         -0.2542  -12.3204  -52.2212 C.3       23 UNK        -0.0205 
      9 C9         -0.4404  -13.8179  -52.0250 C.ar      23 UNK        -0.0193 
     10 C10        -0.0713  -14.7071  -53.0395 C.ar      23 UNK        -0.1150 
     11 C11        -0.2867  -16.0807  -52.8943 C.ar      23 UNK        -0.0193 
     12 C12        -0.8502  -16.5670  -51.7120 C.ar      23 UNK        -0.1150 
     13 C13        -1.2239  -15.6882  -50.6917 C.ar      23 UNK        -0.0193 
     14 C14        -1.0212  -14.3155  -50.8542 C.ar      23 UNK        -0.1150 
     15 C15        -1.8939  -16.2214  -49.4384 C.3       23 UNK        -0.0205 
     16 S16        -0.6921  -16.5723  -48.1192 S.3       23 UNK        -0.2404 
     17 C17        -1.7561  -17.5743  -47.0320 C.3       23 UNK        -0.0398 
     18 CA         -1.5190  -19.0939  -47.2383 C.3       11 UNK         0.1400 
     19 N          -0.4632  -19.6150  -46.3645 N.am      11 UNK        -0.5000 
     20 C           0.0212  -20.8646  -46.3860 C.2       10 UNK         0.5000 
     21 O          -0.3233  -21.7165  -47.2020 O.2       10 UNK        -0.5000 
     22 CA          1.0104  -21.2512  -45.2710 C.3       10 UNK         0.1400 
     23 CB          2.4270  -20.7503  -45.5871 C.3       10 UNK        -0.1800 
     24 N           0.5839  -20.7679  -43.9560 N.am      10 UNK        -0.5000 
     25 C          -0.5362  -21.1698  -43.3363 C.2       9 UNK         0.5000 
     26 O          -1.2905  -22.0336  -43.7835 O.2       9 UNK        -0.5000 
     27 CA         -0.9045  -20.4578  -42.0226 C.3       9 UNK         0.1400 
     28 CB         -0.1295  -21.0588  -40.8411 C.3       9 UNK        -0.1800 
     29 N          -0.6753  -19.0141  -42.0829 N.am      9 UNK        -0.5000 
     30 C          -1.3258  -18.1732  -42.9004 C.2       8 UNK         0.5000 
     31 O          -2.2395  -18.5184  -43.6498 O.2       8 UNK        -0.5000 
     32 CA         -0.8252  -16.7168  -42.9390 C.3       8 UNK         0.1400 
     33 CB         -1.3765  -15.9059  -41.7590 C.3       8 UNK        -0.1800 
     34 N           0.6363  -16.6352  -42.9609 N.am      8 UNK        -0.5000 
     35 C           1.4007  -17.1186  -43.9508 C.2       7 UNK         0.5000 
     36 O           0.9441  -17.6135  -44.9780 O.2       7 UNK        -0.5000 
     37 CA          2.9232  -17.0728  -43.7578 C.3       7 UNK         0.1400 
     38 CB          3.4839  -15.7341  -44.2402 C.3       7 UNK        -0.1800 
     39 N           3.3029  -17.2955  -42.3652 N.am      7 UNK        -0.5000 
     40 C           3.2618  -18.4935  -41.7679 C.2       6 UNK         0.5000 
     41 O           2.9223  -19.5306  -42.3391 O.2       6 UNK        -0.5000 
     42 CA          3.6196  -18.5253  -40.2713 C.3       6 UNK         0.1400 
     43 CB          5.1419  -18.4748  -40.0719 C.3       6 UNK        -0.1800 
     44 N           2.9927  -17.4364  -39.5194 N.am      6 UNK        -0.5000 
     45 C           1.6704  -17.3072  -39.3461 C.2       5 UNK         0.5000 
     46 O           0.8417  -18.0934  -39.8025 O.2       5 UNK        -0.5000 
     47 CA          1.1836  -16.0808  -38.5546 C.3       5 UNK         0.1400 
     48 CB          1.1824  -16.3838  -37.0487 C.3       5 UNK        -0.1800 
     49 N           1.9358  -14.8462  -38.7969 N.am      5 UNK        -0.5000 
     50 C           2.1330  -14.2632  -39.9877 C.2       4 UNK         0.5000 
     51 O           1.8123  -14.7780  -41.0624 O.2       4 UNK        -0.5000 
     52 CA          2.7536  -12.8520  -39.9385 C.3       4 UNK         0.1400 
     53 CB          4.1355  -12.8395  -39.2486 C.3       4 UNK        -0.1800 
     54 N           2.7856  -12.1998  -41.2526 N.am      4 UNK        -0.5000 
     55 C           3.6030  -12.4477  -42.2840 C.2       3 UNK         0.5000 
     56 O           4.5493  -13.2366  -42.2510 O.2       3 UNK        -0.5000 
     57 CA          3.2805  -11.6901  -43.5876 C.3       3 UNK         0.1400 
     58 CB          4.5445  -11.3950  -44.4118 C.3       3 UNK        -0.1800 
     59 N           2.3405  -12.4401  -44.4194 N.am      3 UNK        -0.5000 
     60 C           1.0343  -12.6044  -44.1639 C.2       2 UNK         0.5000 
     61 O           0.4615  -12.0889  -43.2019 O.2       2 UNK        -0.5000 
     62 CA          0.2415  -13.4782  -45.1647 C.3       2 UNK         0.1400 
     63 CB         -1.2842  -13.2734  -45.0787 C.3       2 UNK        -0.1800 
     64 N           0.7035  -13.3470  -46.5511 N.am      2 UNK        -0.5000 
     65 C           0.7857  -12.2215  -47.2765 C.2       1 UNK         0.5000 
     66 O           0.4214  -11.1134  -46.8781 O.2       1 UNK        -0.5000 
     67 C          -2.8351  -19.8815  -47.0867 C.2       11 UNK         0.5000 
     68 O          -3.4332  -20.2510  -48.0972 O.2       11 UNK        -0.5000 
     69 N          -3.2471  -20.1521  -45.8400 N.am      12 UNK        -0.5000 
     70 CA         -4.4267  -20.9575  -45.5224 C.3       12 UNK         0.1400 
     71 CB         -4.6939  -20.9197  -44.0103 C.3       12 UNK        -0.1800 
     72 C          -4.3039  -22.4049  -46.0313 C.2       12 UNK         0.5000 
     73 O          -5.2322  -22.9015  -46.6681 O.2       12 UNK        -0.5000 
     74 N          -3.1452  -23.0342  -45.7912 N.am      13 UNK        -0.5000 
     75 CA         -2.8163  -24.3790  -46.2669 C.3       13 UNK         0.1400 
     76 CB         -1.4898  -24.8338  -45.6400 C.3       13 UNK        -0.1800 
     77 C          -2.7580  -24.4814  -47.8030 C.2       13 UNK         0.5000 
     78 O          -3.2241  -25.4744  -48.3593 O.2       13 UNK        -0.5000 
     79 N          -2.2091  -23.4500  -48.4591 N.am      14 UNK        -0.5000 
     80 CA         -2.1246  -23.3386  -49.9147 C.3       14 UNK         0.1400 
     81 CB         -1.1654  -22.1981  -50.2885 C.3       14 UNK        -0.1800 
     82 C          -3.4905  -23.1321  -50.5924 C.2       14 UNK         0.5000 
     83 O          -3.6581  -23.5781  -51.7254 O.2       14 UNK        -0.5000 
     84 N          -4.4225  -22.4556  -49.9079 N.am      15 UNK        -0.5000 
     85 CA         -5.7794  -22.1961  -50.3894 C.3       15 UNK         0.1400 
     86 CB         -6.3109  -20.9211  -49.7174 C.3       15 UNK        -0.1800 
     87 C          -6.7411  -23.3730  -50.1397 C.2       15 UNK         0.5000 
     88 O          -7.6751  -23.5649  -50.9204 O.2       15 UNK        -0.5000 
     89 N          -6.5211  -24.1271  -49.0535 N.am      16 UNK        -0.5000 
     90 CA         -7.2914  -25.3095  -48.6646 C.3       16 UNK         0.1400 
     91 CB         -7.0330  -25.6031  -47.1762 C.3       16 UNK        -0.1800 
     92 C          -6.9438  -26.5098  -49.5662 C.2       16 UNK         0.5000 
     93 O          -6.1319  -27.3541  -49.1833 O.2       16 UNK        -0.5000 
     94 N          -7.5381  -26.5256  -50.7684 N.am      17 UNK        -0.5000 
     95 CA         -7.1602  -27.3442  -51.9252 C.3       17 UNK         0.1400 
     96 CB         -7.3368  -28.8556  -51.6522 C.3       17 UNK        -0.1800 
     97 C          -5.7542  -26.9218  -52.3943 C.2       17 UNK         0.5000 
     98 O          -5.5432  -25.7225  -52.5624 O.2       17 UNK        -0.5000 
     99 N          -4.8262  -27.8739  -52.5671 N.am      18 UNK        -0.5000 
    100 CA        -3.3989  -27.6638  -52.8360 C.3       18 UNK         0.1400 
    101 CB        -2.6927  -27.1683  -51.5534 C.3       18 UNK        -0.1800 
    102 C         -3.1370  -26.7774  -54.0750 C.2       18 UNK         0.5000 
    103 O         -3.3632  -27.2354  -55.1964 O.2       18 UNK        -0.5000 
    104 N         -2.6610  -25.5436  -53.8591 N.am      19 UNK        -0.5000 
    105 CA        -2.3709  -24.5621  -54.9042 C.3       19 UNK         0.1400 
    106 CB        -1.3281  -23.5672  -54.3717 C.3       19 UNK        -0.1800 
    107 C         -3.6285  -23.8147  -55.3862 C.2       19 UNK         0.5000 
    108 O         -3.6224  -23.3008  -56.5070 O.2       19 UNK        -0.5000 
    109 N         -4.6635  -23.7564  -54.5347 N.am      20 UNK        -0.5000 
    110 CA        -5.9994  -23.1701  -54.6956 C.3       20 UNK         0.1400 
    111 CB        -6.7911  -23.9015  -55.7952 C.3       20 UNK        -0.1800 
    112 C         -6.0187  -21.6447  -54.9115 C.2       20 UNK         0.5000 
    113 O         -6.6980  -20.9313  -54.1727 O.2       20 UNK        -0.5000 
    114 N         -5.2757  -21.1781  -55.9158 N.am      21 UNK        -0.5000 
    115 CA        -5.1310  -19.7872  -56.3256 C.3       21 UNK         0.1400 
    116 CB        -6.2131  -19.4359  -57.3644 C.3       21 UNK        -0.1800 
    117 C         -3.6958  -19.5684  -56.8326 C.2       21 UNK         0.5000 
    118 O         -3.4951  -19.0559  -57.9352 O.2       21 UNK        -0.5000 
    119 N         -2.7237  -19.9859  -56.0099 N.am      22 UNK        -0.5000 
    120 CA        -1.2709  -19.8572  -56.2360 C.3       22 UNK         0.1400 
    121 C         -0.7038  -20.7778  -57.3621 C.2       22 UNK         0.5000 
    122 N         -1.3936  -21.8358  -57.7722 N.am      22 UNK        -0.7600 
    123 O          0.3957  -20.5501  -57.8601 O.2       22 UNK        -0.5000 
    124 C124       -0.7905  -18.3818  -56.3874 C.3       23 UNK        -0.0398 
    125 S125       -1.4217  -17.2612  -55.0903 S.3       23 UNK        -0.2404 
    126 C126        0.0399  -17.0335  -54.0326 C.3       23 UNK        -0.0205 
    127 H127        5.2967  -11.3836  -48.8716 H         1 UNK         0.0600 
    128 H128        5.8618  -13.0035  -48.4551 H         1 UNK         0.0600 
    129 H129        5.6524  -11.7892  -47.1913 H         1 UNK         0.0600 
    130 H130        3.1457  -11.3533  -49.3128 H         1 UNK         0.3000 
    131 H131        1.2975  -13.3926  -49.0039 H         1 UNK         0.0600 
    132 H132       -0.3882  -11.5923  -49.6425 H         1 UNK         0.0800 
    133 H133        0.8534  -10.3946  -49.4502 H         1 UNK         0.0800 
    134 H134       -1.1287  -11.7790  -51.8576 H         1 UNK         0.0800 
    135 H135       -0.1899  -12.0934  -53.2865 H         1 UNK         0.0800 
    136 H136        0.3578  -14.3278  -53.9565 H         1 UNK         0.1150 
    137 H137       -1.0259  -17.6278  -51.5990 H         1 UNK         0.1150 
    138 H138       -1.3312  -13.6379  -50.0725 H         1 UNK         0.1150 
    139 H139       -2.6313  -15.5047  -49.0734 H         1 UNK         0.0800 
    140 H140       -2.4456  -17.1315  -49.6813 H         1 UNK         0.0800 
    141 H141       -2.7944  -17.2917  -47.2184 H         1 UNK         0.0800 
    142 H142       -1.5676  -17.2868  -45.9984 H         1 UNK         0.0800 
    143 H143       -1.1892  -19.2623  -48.2658 H         1 UNK         0.0600 
    144 H144       -0.0629  -18.9523  -45.7037 H         1 UNK         0.3000 
    145 H145        1.0455  -22.3415  -45.2235 H         1 UNK         0.0600 
    146 H146        3.1316  -21.0365  -44.8059 H         1 UNK         0.0600 
    147 H147        2.7877  -21.1772  -46.5237 H         1 UNK         0.0600 
    148 H148        2.4616  -19.6668  -45.6903 H         1 UNK         0.0600 
    149 H149        1.1776  -20.0836  -43.5028 H         1 UNK         0.3000 
    150 H150       -1.9698  -20.6190  -41.8458 H         1 UNK         0.0600 
    151 H151       -0.2899  -22.1356  -40.7749 H         1 UNK         0.0600 
    152 H152       -0.4538  -20.6230  -39.8960 H         1 UNK         0.0600 
    153 H153        0.9438  -20.8904  -40.9349 H         1 UNK         0.0600 
    154 H154        0.0296  -18.6418  -41.4522 H         1 UNK         0.3000 
    155 H155       -1.1960  -16.2602  -43.8583 H         1 UNK         0.0600 
    156 H156       -2.4667  -15.8829  -41.7798 H         1 UNK         0.0600 
    157 H157       -1.0771  -16.3335  -40.8032 H         1 UNK         0.0600 
    158 H158       -1.0270  -14.8735  -41.7908 H         1 UNK         0.0600 
    159 H159        1.0856  -16.1802  -42.1707 H         1 UNK         0.3000 
    160 H160        3.3664  -17.8611  -44.3693 H         1 UNK         0.0600 
    161 H161        3.0606  -14.9153  -43.6646 H         1 UNK         0.0600 
    162 H162        3.2426  -15.5630  -45.2898 H         1 UNK         0.0600 
    163 H163        4.5685  -15.6927  -44.1402 H         1 UNK         0.0600 
    164 H164        3.5292  -16.4777  -41.8166 H         1 UNK         0.3000 
    165 H165        3.2542  -19.4706  -39.8639 H         1 UNK         0.0600 
    166 H166        5.4051  -18.5840  -39.0197 H         1 UNK         0.0600 
    167 H167        5.6331  -19.2838  -40.6144 H         1 UNK         0.0600 
    168 H168        5.5659  -17.5352  -40.4285 H         1 UNK         0.0600 
    169 H169        3.6029  -16.7382  -39.1208 H         1 UNK         0.3000 
    170 H170        0.1526  -15.8896  -38.8559 H         1 UNK         0.0600 
    171 H171        2.1931  -16.5348  -36.6675 H         1 UNK         0.0600 
    172 H172        0.7269  -15.5715  -36.4821 H         1 UNK         0.0600 
    173 H173        0.6113  -17.2878  -36.8319 H         1 UNK         0.0600 
    174 H174        2.2389  -14.3528  -37.9698 H         1 UNK         0.3000 
    175 H175        2.0801  -12.2422  -39.3347 H         1 UNK         0.0600 
    176 H176        4.5977  -11.8541  -39.3071 H         1 UNK         0.0600 
    177 H177        4.8224  -13.5599  -39.6936 H         1 UNK         0.0600 
    178 H178        4.0501  -13.0894  -38.1909 H         1 UNK         0.0600 
    179 H179        1.9856  -11.6112  -41.4466 H         1 UNK         0.3000 
    180 H180        2.8270  -10.7317  -43.3258 H         1 UNK         0.0600 
    181 H181        5.0182  -12.3116  -44.7660 H         1 UNK         0.0600 
    182 H182        5.2805  -10.8520  -43.8178 H         1 UNK         0.0600 
    183 H183        4.3103  -10.7797  -45.2806 H         1 UNK         0.0600 
    184 H184        2.7314  -12.8961  -45.2368 H         1 UNK         0.3000 
    185 H185        0.4448  -14.5098  -44.8816 H         1 UNK         0.0600 
    186 H186       -1.6533  -13.4939  -44.0764 H         1 UNK         0.0600 
    187 H187       -1.5680  -12.2475  -45.3148 H         1 UNK         0.0600 
    188 H188       -1.8084  -13.9353  -45.7684 H         1 UNK         0.0600 
    189 H189        1.0845  -14.1912  -46.9574 H         1 UNK         0.3000 
    190 H190       -2.7288  -19.7688  -45.0544 H         1 UNK         0.3000 
    191 H191       -5.2820  -20.5023  -46.0261 H         1 UNK         0.0600 
    192 H192       -4.8440  -19.8974  -43.6626 H         1 UNK         0.0600 
    193 H193       -5.5924  -21.4848  -43.7596 H         1 UNK         0.0600 
    194 H194       -3.8685  -21.3471  -43.4415 H         1 UNK         0.0600 
    195 H195       -2.4392  -22.5646  -45.2300 H         1 UNK         0.3000 
    196 H196       -3.6028  -25.0531  -45.9215 H         1 UNK         0.0600 
    197 H197       -1.2327  -25.8446  -45.9589 H         1 UNK         0.0600 
    198 H198       -1.5504  -24.8407  -44.5515 H         1 UNK         0.0600 
    199 H199       -0.6654  -24.1791  -45.9241 H         1 UNK         0.0600 
    200 H200       -1.7750  -22.7032  -47.9226 H         1 UNK         0.3000 
    201 H201       -1.7052  -24.2707  -50.2987 H         1 UNK         0.0600 
    202 H202       -0.1649  -22.3804  -49.8960 H         1 UNK         0.0600 
    203 H203       -1.5093  -21.2401  -49.8975 H         1 UNK         0.0600 
    204 H204       -1.0750  -22.0974  -51.3702 H         1 UNK         0.0600 
    205 H205       -4.1724  -22.0579  -49.0099 H         1 UNK         0.3000 
    206 H206       -5.7455  -22.0197  -51.4669 H         1 UNK         0.0600 
    207 H207       -5.6790  -20.0631  -49.9477 H         1 UNK         0.0600 
    208 H208       -7.3180  -20.6863  -50.0642 H         1 UNK         0.0600 
    209 H209       -6.3501  -21.0253  -48.6323 H         1 UNK         0.0600 
    210 H210       -5.7605  -23.8690  -48.4351 H         1 UNK         0.3000 
    211 H211       -8.3553  -25.0930  -48.7809 H         1 UNK         0.0600 
    212 H212       -5.9734  -25.7687  -46.9763 H         1 UNK         0.0600 
    213 H213       -7.5739  -26.4931  -46.8528 H         1 UNK         0.0600 
    214 H214       -7.3641  -24.7750  -46.5493 H         1 UNK         0.0600 
    215 H215       -8.0939  -25.7095  -50.9966 H         1 UNK         0.3000 
    216 H216       -7.8447  -27.0722  -52.7298 H         1 UNK         0.0600 
    217 H217       -7.1946  -29.4357  -52.5646 H         1 UNK         0.0600 
    218 H218       -8.3433  -29.0696  -51.2926 H         1 UNK         0.0600 
    219 H219       -6.6346  -29.2326  -50.9085 H         1 UNK         0.0600 
    220 H220       -5.1064  -28.8347  -52.4333 H         1 UNK         0.3000 
    221 H221       -2.9829  -28.6433  -53.0763 H         1 UNK         0.0600 
    222 H222       -3.1181  -26.2351  -51.1838 H         1 UNK         0.0600 
    223 H223       -2.7852  -27.9018  -50.7524 H         1 UNK         0.0600 
    224 H224       -1.6266  -27.0096  -51.7204 H         1 UNK         0.0600 
    225 H225       -2.6135  -25.2069  -52.9060 H         1 UNK         0.3000 
    226 H226       -1.9398  -25.0785  -55.7645 H         1 UNK         0.0600 
    227 H227       -0.4378  -24.0818  -54.0100 H         1 UNK         0.0600 
    228 H228       -1.0072  -22.8816  -55.1548 H         1 UNK         0.0600 
    229 H229       -1.7252  -22.9663  -53.5536 H         1 UNK         0.0600 
    230 H230       -4.5291  -24.1973  -53.6271 H         1 UNK         0.3000 
    231 H231       -6.5111  -23.3555  -53.7496 H         1 UNK         0.0600 
    232 H232       -6.3286  -23.7894  -56.7762 H         1 UNK         0.0600 
    233 H233       -7.8079  -23.5135  -55.8665 H         1 UNK         0.0600 
    234 H234       -6.8640  -24.9676  -55.5793 H         1 UNK         0.0600 
    235 H235       -4.7073  -21.8564  -56.4198 H         1 UNK         0.3000 
    236 H236       -5.2589  -19.1352  -55.4589 H         1 UNK         0.0600 
    237 H237       -6.1328  -18.3941  -57.6768 H         1 UNK         0.0600 
    238 H238       -6.1281  -20.0573  -58.2566 H         1 UNK         0.0600 
    239 H239       -7.2133  -19.5746  -56.9539 H         1 UNK         0.0600 
    240 H240       -2.9938  -20.4075  -55.1336 H         1 UNK         0.3000 
    241 H241       -0.8122  -20.2385  -55.3233 H         1 UNK         0.0600 
    242 H242       -2.2805  -22.0910  -57.3542 H         1 UNK         0.3800 
    243 H243       -1.0072  -22.4169  -58.4987 H         1 UNK         0.3800 
    244 H244        0.2997  -18.3363  -56.3900 H         1 UNK         0.0800 
    245 H245       -1.1038  -17.9810  -57.3524 H         1 UNK         0.0800 
    246 H246        0.3624  -17.9985  -53.6382 H         1 UNK         0.0800 
    247 H247        0.8680  -16.6427  -54.6260 H         1 UNK         0.0800 
@<TRIPOS>BOND
     1    1    2 1    
     2    1  127 1    
     3    1  128 1    
     4    1  129 1    
     5    2    3 2    
     6    2    4 am   BACKBONE|DICT|INTERRES
     7    4    5 1    
     8    4  130 1    
     9    5    6 1    
    10    5   65 1    
    11    5  131 1    
    12    6    7 1    
    13    6  132 1    
    14    6  133 1    
    15    7    8 1    
    16    8    9 1    
    17    8  134 1    
    18    8  135 1    
    19    9   10 ar   
    20    9   14 ar   
    21   10   11 ar   
    22   10  136 1    
    23   11   12 ar   
    24   11  126 1    
    25   12   13 ar   
    26   12  137 1    
    27   13   14 ar   
    28   13   15 1    
    29   14  138 1    
    30   15   16 1    
    31   15  139 1    
    32   15  140 1    
    33   16   17 1    
    34   17   18 1    
    35   17  141 1    
    36   17  142 1    
    37   18   19 1    
    38   18   67 1    
    39   18  143 1    
    40   19   20 am   BACKBONE|DICT|INTERRES
    41   19  144 1    
    42   20   21 2    
    43   20   22 1    
    44   22   23 1    
    45   22   24 1    
    46   22  145 1    
    47   23  146 1    
    48   23  147 1    
    49   23  148 1    
    50   24   25 am   BACKBONE|DICT|INTERRES
    51   24  149 1    
    52   25   26 2    
    53   25   27 1    
    54   27   28 1    
    55   27   29 1    
    56   27  150 1    
    57   28  151 1    
    58   28  152 1    
    59   28  153 1    
    60   29   30 am   BACKBONE|DICT|INTERRES
    61   29  154 1    
    62   30   31 2    
    63   30   32 1    
    64   32   33 1    
    65   32   34 1    
    66   32  155 1    
    67   33  156 1    
    68   33  157 1    
    69   33  158 1    
    70   34   35 am   BACKBONE|DICT|INTERRES
    71   34  159 1    
    72   35   36 2    
    73   35   37 1    
    74   37   38 1    
    75   37   39 1    
    76   37  160 1    
    77   38  161 1    
    78   38  162 1    
    79   38  163 1    
    80   39   40 am   BACKBONE|DICT|INTERRES
    81   39  164 1    
    82   40   41 2    
    83   40   42 1    
    84   42   43 1    
    85   42   44 1    
    86   42  165 1    
    87   43  166 1    
    88   43  167 1    
    89   43  168 1    
    90   44   45 am   BACKBONE|DICT|INTERRES
    91   44  169 1    
    92   45   46 2    
    93   45   47 1    
    94   47   48 1    
    95   47   49 1    
    96   47  170 1    
    97   48  171 1    
    98   48  172 1    
    99   48  173 1    
   100   49   50 am   BACKBONE|DICT|INTERRES
   101   49  174 1    
   102   50   51 2    
   103   50   52 1    
   104   52   53 1    
   105   52   54 1    
   106   52  175 1    
   107   53  176 1    
   108   53  177 1    
   109   53  178 1    
   110   54   55 am   BACKBONE|DICT|INTERRES
   111   54  179 1    
   112   55   56 2    
   113   55   57 1    
   114   57   58 1    
   115   57   59 1    
   116   57  180 1    
   117   58  181 1    
   118   58  182 1    
   119   58  183 1    
   120   59   60 am   BACKBONE|DICT|INTERRES
   121   59  184 1    
   122   60   61 2    
   123   60   62 1    
   124   62   63 1    
   125   62   64 1    
   126   62  185 1    
   127   63  186 1    
   128   63  187 1    
   129   63  188 1    
   130   64   65 am   BACKBONE|DICT|INTERRES
   131   64  189 1    
   132   65   66 2    
   133   67   68 2    
   134   67   69 am   BACKBONE|DICT|INTERRES
   135   69   70 1    
   136   69  190 1    
   137   70   71 1    
   138   70   72 1    
   139   70  191 1    
   140   71  192 1    
   141   71  193 1    
   142   71  194 1    
   143   72   73 2    
   144   72   74 am   BACKBONE|DICT|INTERRES
   145   74   75 1    
   146   74  195 1    
   147   75   76 1    
   148   75   77 1    
   149   75  196 1    
   150   76  197 1    
   151   76  198 1    
   152   76  199 1    
   153   77   78 2    
   154   77   79 am   BACKBONE|DICT|INTERRES
   155   79   80 1    
   156   79  200 1    
   157   80   81 1    
   158   80   82 1    
   159   80  201 1    
   160   81  202 1    
   161   81  203 1    
   162   81  204 1    
   163   82   83 2    
   164   82   84 am   BACKBONE|DICT|INTERRES
   165   84   85 1    
   166   84  205 1    
   167   85   86 1    
   168   85   87 1    
   169   85  206 1    
   170   86  207 1    
   171   86  208 1    
   172   86  209 1    
   173   87   88 2    
   174   87   89 am   BACKBONE|DICT|INTERRES
   175   89   90 1    
   176   89  210 1    
   177   90   91 1    
   178   90   92 1    
   179   90  211 1    
   180   91  212 1    
   181   91  213 1    
   182   91  214 1    
   183   92   93 2    
   184   92   94 am   BACKBONE|DICT|INTERRES
   185   94   95 1    
   186   94  215 1    
   187   95   96 1    
   188   95   97 1    
   189   95  216 1    
   190   96  217 1    
   191   96  218 1    
   192   96  219 1    
   193   97   98 2    
   194   97   99 am   BACKBONE|DICT|INTERRES
   195   99  100 1    
   196   99  220 1    
   197  100  101 1    
   198  100  102 1    
   199  100  221 1    
   200  101  222 1    
   201  101  223 1    
   202  101  224 1    
   203  102  103 2    
   204  102  104 am   BACKBONE|DICT|INTERRES
   205  104  105 1    
   206  104  225 1    
   207  105  106 1    
   208  105  107 1    
   209  105  226 1    
   210  106  227 1    
   211  106  228 1    
   212  106  229 1    
   213  107  108 2    
   214  107  109 am   BACKBONE|DICT|INTERRES
   215  109  110 1    
   216  109  230 1    
   217  110  111 1    
   218  110  112 1    
   219  110  231 1    
   220  111  232 1    
   221  111  233 1    
   222  111  234 1    
   223  112  113 2    
   224  112  114 am   BACKBONE|DICT|INTERRES
   225  114  115 1    
   226  114  235 1    
   227  115  116 1    
   228  115  117 1    
   229  115  236 1    
   230  116  237 1    
   231  116  238 1    
   232  116  239 1    
   233  117  118 2    
   234  117  119 am   BACKBONE|DICT|INTERRES
   235  119  120 1    
   236  119  240 1    
   237  120  121 1    
   238  120  124 1    
   239  120  241 1    
   240  121  122 am   BACKBONE|DICT|INTERRES
   241  121  123 2    
   242  122  242 1    
   243  122  243 1    
   244  124  125 1    
   245  124  244 1    
   246  124  245 1    
   247  125  126 1    
   248  126  246 1    
   249  126  247 1    
@<TRIPOS>SUBSTRUCTURE
     1 UNK         1 GROUP             0       ****    0 ROOT    
