@<TRIPOS>MOLECULE
3R540
247   249    1
SMALL
USER_CHARGES


@<TRIPOS>ATOM
      1 CA         -6.1799  -15.3706  -49.8847 C.3       0 UNK        -0.1800 
      2 C          -5.2035  -15.3375  -48.7170 C.2       0 UNK         0.5000 
      3 O          -5.6124  -15.5364  -47.5725 O.2       0 UNK        -0.5000 
      4 N          -3.9239  -15.0580  -49.0008 N.am      1 UNK        -0.5000 
      5 CA         -2.7779  -14.9652  -48.0800 C.3       1 UNK         0.1400 
      6 C6         -2.4772  -16.2698  -47.2938 C.3       23 UNK        -0.0398 
      7 S7         -2.1123  -17.6808  -48.3896 S.3       23 UNK        -0.2404 
      8 C8         -0.2971  -17.6887  -48.3581 C.3       23 UNK        -0.0205 
      9 C9          0.2695  -18.5521  -49.4734 C.ar      23 UNK        -0.0193 
     10 C10         0.5780  -17.9736  -50.7067 C.ar      23 UNK        -0.1150 
     11 C11         1.0750  -18.7543  -51.7525 C.ar      23 UNK        -0.0193 
     12 C12         1.2858  -20.1210  -51.5518 C.ar      23 UNK        -0.1150 
     13 C13         0.9752  -20.7166  -50.3249 C.ar      23 UNK        -0.0193 
     14 C14         0.4652  -19.9249  -49.2889 C.ar      23 UNK        -0.1150 
     15 C15         1.0924  -22.2276  -50.1696 C.3       23 UNK        -0.0205 
     16 S16         2.6187  -22.7923  -49.3390 S.3       23 UNK        -0.2404 
     17 C17         2.3253  -22.4953  -47.5583 C.3       23 UNK        -0.0398 
     18 CA          1.3784  -23.5263  -46.8817 C.3       11 UNK         0.1400 
     19 N           1.7331  -23.8080  -45.4861 N.am      11 UNK        -0.5000 
     20 C           1.1748  -24.7871  -44.7538 C.2       10 UNK         0.5000 
     21 O           0.3470  -25.5827  -45.1950 O.2       10 UNK        -0.5000 
     22 CA          1.5578  -24.8764  -43.2658 C.3       10 UNK         0.1400 
     23 CB          2.7737  -25.7953  -43.0783 C.3       10 UNK        -0.1800 
     24 N           1.8341  -23.5822  -42.6466 N.am      10 UNK        -0.5000 
     25 C           0.9903  -22.5432  -42.5849 C.2       9 UNK         0.5000 
     26 O          -0.1509  -22.5547  -43.0504 O.2       9 UNK        -0.5000 
     27 CA          1.5279  -21.2613  -41.9217 C.3       9 UNK         0.1400 
     28 CB          2.6911  -21.5096  -40.9372 C.3       9 UNK        -0.1800 
     29 N           1.9217  -20.2404  -42.8936 N.am      9 UNK        -0.5000 
     30 C           2.7334  -20.3643  -43.9556 C.2       8 UNK         0.5000 
     31 O           3.1880  -21.4328  -44.3682 O.2       8 UNK        -0.5000 
     32 CA          3.1165  -19.0594  -44.6755 C.3       8 UNK         0.1400 
     33 CB          2.0613  -18.6900  -45.7232 C.3       8 UNK        -0.1800 
     34 N           3.2789  -17.9285  -43.7636 N.am      8 UNK        -0.5000 
     35 C           4.2518  -17.7988  -42.8515 C.2       7 UNK         0.5000 
     36 O           5.1486  -18.6246  -42.6780 O.2       7 UNK        -0.5000 
     37 CA          4.2063  -16.5296  -41.9847 C.3       7 UNK         0.1400 
     38 CB          4.7802  -15.3255  -42.7484 C.3       7 UNK        -0.1800 
     39 N           2.8412  -16.2256  -41.5575 N.am      7 UNK        -0.5000 
     40 C           2.2409  -16.7750  -40.4930 C.2       6 UNK         0.5000 
     41 O           2.7944  -17.5625  -39.7253 O.2       6 UNK        -0.5000 
     42 CA          0.7712  -16.3832  -40.2431 C.3       6 UNK         0.1400 
     43 CB          0.6904  -15.1490  -39.3321 C.3       6 UNK        -0.1800 
     44 N           0.0295  -16.1137  -41.4755 N.am      6 UNK        -0.5000 
     45 C          -0.3006  -17.0439  -42.3820 C.2       5 UNK         0.5000 
     46 O          -0.0343  -18.2385  -42.2641 O.2       5 UNK        -0.5000 
     47 CA         -1.0044  -16.5497  -43.6590 C.3       5 UNK         0.1400 
     48 CB         -2.5264  -16.5569  -43.4601 C.3       5 UNK        -0.1800 
     49 N          -0.5628  -15.2189  -44.0915 N.am      5 UNK        -0.5000 
     50 C           0.7023  -14.9103  -44.4240 C.2       4 UNK         0.5000 
     51 O           1.6248  -15.7227  -44.3789 O.2       4 UNK        -0.5000 
     52 CA          1.0180  -13.4677  -44.8569 C.3       4 UNK         0.1400 
     53 CB          1.3650  -13.4211  -46.3530 C.3       4 UNK        -0.1800 
     54 N          -0.0652  -12.5276  -44.5662 N.am      4 UNK        -0.5000 
     55 C          -0.3243  -12.0392  -43.3435 C.2       3 UNK         0.5000 
     56 O           0.3392  -12.3259  -42.3461 O.2       3 UNK        -0.5000 
     57 CA         -1.5363  -11.0966  -43.1937 C.3       3 UNK         0.1400 
     58 CB         -1.0802   -9.6299  -43.2142 C.3       3 UNK        -0.1800 
     59 N          -2.5719  -11.2865  -44.2123 N.am      3 UNK        -0.5000 
     60 C          -3.2865  -12.4064  -44.3837 C.2       2 UNK         0.5000 
     61 O          -3.1436  -13.4115  -43.6866 O.2       2 UNK        -0.5000 
     62 CA         -4.2987  -12.4393  -45.5484 C.3       2 UNK         0.1400 
     63 CB         -4.4409  -11.1007  -46.3072 C.3       2 UNK        -0.1800 
     64 N          -3.9966  -13.5213  -46.4890 N.am      2 UNK        -0.5000 
     65 C          -2.8438  -13.7442  -47.1346 C.2       1 UNK         0.5000 
     66 O          -1.8538  -13.0208  -47.0204 O.2       1 UNK        -0.5000 
     67 C          -0.0922  -23.0819  -46.9766 C.2       11 UNK         0.5000 
     68 O          -0.8695  -23.7050  -47.6974 O.2       11 UNK        -0.5000 
     69 N          -0.4528  -22.0369  -46.2163 N.am      12 UNK        -0.5000 
     70 CA         -1.7967  -21.4563  -46.1930 C.3       12 UNK         0.1400 
     71 CB         -1.7946  -20.1862  -45.3287 C.3       12 UNK        -0.1800 
     72 C          -2.8678  -22.4514  -45.7148 C.2       12 UNK         0.5000 
     73 O          -3.9722  -22.4557  -46.2593 O.2       12 UNK        -0.5000 
     74 N          -2.5046  -23.2996  -44.7435 N.am      13 UNK        -0.5000 
     75 CA         -3.3290  -24.3990  -44.2506 C.3       13 UNK         0.1400 
     76 CB         -2.6862  -24.9952  -42.9889 C.3       13 UNK        -0.1800 
     77 C          -3.5677  -25.4848  -45.3173 C.2       13 UNK         0.5000 
     78 O          -4.7206  -25.8340  -45.5732 O.2       13 UNK        -0.5000 
     79 N          -2.4855  -25.9916  -45.9270 N.am      14 UNK        -0.5000 
     80 CA         -2.5283  -27.0717  -46.9167 C.3       14 UNK         0.1400 
     81 CB         -1.1098  -27.6082  -47.1600 C.3       14 UNK        -0.1800 
     82 C          -3.1759  -26.6556  -48.2481 C.2       14 UNK         0.5000 
     83 O          -3.9369  -27.4351  -48.8226 O.2       14 UNK        -0.5000 
     84 N          -2.8716  -25.4366  -48.7103 N.am      15 UNK        -0.5000 
     85 CA         -3.3815  -24.8736  -49.9609 C.3       15 UNK         0.1400 
     86 CB         -2.3731  -23.8414  -50.4871 C.3       15 UNK        -0.1800 
     87 C          -4.7810  -24.2446  -49.8222 C.2       15 UNK         0.5000 
     88 O          -5.3260  -23.7953  -50.8301 O.2       15 UNK        -0.5000 
     89 N          -5.3249  -24.1959  -48.5955 N.am      16 UNK        -0.5000 
     90 CA         -6.6280  -23.6354  -48.2198 C.3       16 UNK         0.1400 
     91 CB         -7.7724  -24.5078  -48.7759 C.3       16 UNK        -0.1800 
     92 C          -6.7499  -22.1485  -48.6120 C.2       16 UNK         0.5000 
     93 O          -7.6486  -21.7690  -49.3644 O.2       16 UNK        -0.5000 
     94 N          -5.7933  -21.3525  -48.1158 N.am      17 UNK        -0.5000 
     95 CA         -5.5788  -19.9230  -48.3748 C.3       17 UNK         0.1400 
     96 CB         -6.8212  -19.0856  -48.0070 C.3       17 UNK        -0.1800 
     97 C          -5.0390  -19.6044  -49.7872 C.2       17 UNK         0.5000 
     98 O          -4.9625  -18.4302  -50.1462 O.2       17 UNK        -0.5000 
     99 N          -4.6269  -20.6387  -50.5361 N.am      18 UNK        -0.5000 
    100 CA        -3.9107  -20.5846  -51.8133 C.3       18 UNK         0.1400 
    101 CB        -2.4403  -20.1784  -51.5643 C.3       18 UNK        -0.1800 
    102 C         -4.6297  -19.7371  -52.8873 C.2       18 UNK         0.5000 
    103 O         -5.7987  -20.0058  -53.1728 O.2       18 UNK        -0.5000 
    104 N         -3.9101  -18.7596  -53.4615 N.am      19 UNK        -0.5000 
    105 CA        -4.2709  -17.8817  -54.5803 C.3       19 UNK         0.1400 
    106 CB        -5.5779  -17.1114  -54.3024 C.3       19 UNK        -0.1800 
    107 C         -4.3131  -18.6198  -55.9341 C.2       19 UNK         0.5000 
    108 O         -4.3673  -19.8513  -55.9815 O.2       19 UNK        -0.5000 
    109 N         -4.2441  -17.8374  -57.0218 N.am      20 UNK        -0.5000 
    110 CA        -4.1977  -18.2268  -58.4411 C.3       20 UNK         0.1400 
    111 CB        -5.4611  -19.0013  -58.8636 C.3       20 UNK        -0.1800 
    112 C         -2.9112  -18.9780  -58.8395 C.2       20 UNK         0.5000 
    113 O         -2.1918  -18.5262  -59.7319 O.2       20 UNK        -0.5000 
    114 N         -2.6116  -20.0757  -58.1342 N.am      21 UNK        -0.5000 
    115 CA        -1.4027  -20.8937  -58.2707 C.3       21 UNK         0.1400 
    116 CB        -1.5585  -22.1507  -57.4011 C.3       21 UNK        -0.1800 
    117 C         -0.1065  -20.1424  -57.9042 C.2       21 UNK         0.5000 
    118 O          0.9728  -20.5414  -58.3431 O.2       21 UNK        -0.5000 
    119 N         -0.2425  -19.0611  -57.1268 N.am      22 UNK        -0.5000 
    120 CA         0.8260  -18.1140  -56.7779 C.3       22 UNK         0.1400 
    121 C          1.3335  -17.2489  -57.9716 C.2       22 UNK         0.5000 
    122 N          0.6395  -17.1914  -59.1039 N.am      22 UNK        -0.7600 
    123 O          2.3814  -16.6176  -57.8671 O.2       22 UNK        -0.5000 
    124 C124        0.4144  -17.1995  -55.5947 C.3       23 UNK        -0.0398 
    125 S125       -0.1616  -18.1189  -54.1263 S.3       23 UNK        -0.2404 
    126 C126        1.3460  -18.1230  -53.1074 C.3       23 UNK        -0.0205 
    127 H127       -5.6641  -15.3256  -50.8442 H         1 UNK         0.0600 
    128 H128       -6.8680  -14.5278  -49.8235 H         1 UNK         0.0600 
    129 H129       -6.7633  -16.2909  -49.8610 H         1 UNK         0.0600 
    130 H130       -3.6848  -14.8968  -49.9687 H         1 UNK         0.3000 
    131 H131       -1.9178  -14.7833  -48.7268 H         1 UNK         0.0600 
    132 H132       -1.6325  -16.1263  -46.6188 H         1 UNK         0.0800 
    133 H133       -3.3244  -16.5452  -46.6654 H         1 UNK         0.0800 
    134 H134        0.0787  -16.6684  -48.4510 H         1 UNK         0.0800 
    135 H135        0.0356  -18.0545  -47.3897 H         1 UNK         0.0800 
    136 H136        0.4056  -16.9179  -50.8622 H         1 UNK         0.1150 
    137 H137        1.6542  -20.7285  -52.3666 H         1 UNK         0.1150 
    138 H138        0.1889  -20.3761  -48.3489 H         1 UNK         0.1150 
    139 H139        0.2100  -22.6089  -49.6668 H         1 UNK         0.0800 
    140 H140        1.0683  -22.6916  -51.1567 H         1 UNK         0.0800 
    141 H141        2.0031  -21.4681  -47.4082 H         1 UNK         0.0800 
    142 H142        3.3085  -22.5501  -47.0887 H         1 UNK         0.0800 
    143 H143        1.4689  -24.4738  -47.4180 H         1 UNK         0.0600 
    144 H144        2.3719  -23.1614  -45.0328 H         1 UNK         0.3000 
    145 H145        0.7123  -25.3175  -42.7350 H         1 UNK         0.0600 
    146 H146        2.9982  -25.9431  -42.0218 H         1 UNK         0.0600 
    147 H147        2.5895  -26.7798  -43.5107 H         1 UNK         0.0600 
    148 H148        3.6641  -25.3869  -43.5580 H         1 UNK         0.0600 
    149 H149        2.7629  -23.4556  -42.2722 H         1 UNK         0.3000 
    150 H150        0.6972  -20.8427  -41.3516 H         1 UNK         0.0600 
    151 H151        2.9329  -20.5974  -40.3909 H         1 UNK         0.0600 
    152 H152        2.4290  -22.2666  -40.1968 H         1 UNK         0.0600 
    153 H153        3.6004  -21.8343  -41.4444 H         1 UNK         0.0600 
    154 H154        1.5183  -19.3264  -42.7115 H         1 UNK         0.3000 
    155 H155        4.0677  -19.2242  -45.1857 H         1 UNK         0.0600 
    156 H156        1.0924  -18.5083  -45.2596 H         1 UNK         0.0600 
    157 H157        1.9345  -19.4824  -46.4569 H         1 UNK         0.0600 
    158 H158        2.3459  -17.7893  -46.2678 H         1 UNK         0.0600 
    159 H159        2.6176  -17.1635  -43.8780 H         1 UNK         0.3000 
    160 H160        4.8310  -16.6981  -41.1048 H         1 UNK         0.0600 
    161 H161        4.2016  -15.0977  -43.6443 H         1 UNK         0.0600 
    162 H162        5.8071  -15.5173  -43.0617 H         1 UNK         0.0600 
    163 H163        4.7929  -14.4329  -42.1227 H         1 UNK         0.0600 
    164 H164        2.2989  -15.6285  -42.1657 H         1 UNK         0.3000 
    165 H165        0.2888  -17.2187  -39.7312 H         1 UNK         0.0600 
    166 H166       -0.3434  -14.9119  -39.0801 H         1 UNK         0.0600 
    167 H167        1.2217  -15.3192  -38.3947 H         1 UNK         0.0600 
    168 H168        1.1306  -14.2700  -39.8052 H         1 UNK         0.0600 
    169 H169       -0.2167  -15.1514  -41.6597 H         1 UNK         0.3000 
    170 H170       -0.7657  -17.2498  -44.4609 H         1 UNK         0.0600 
    171 H171       -2.8861  -17.5647  -43.2485 H         1 UNK         0.0600 
    172 H172       -2.8248  -15.9206  -42.6260 H         1 UNK         0.0600 
    173 H173       -3.0499  -16.2042  -44.3475 H         1 UNK         0.0600 
    174 H174       -1.2678  -14.4915  -44.1096 H         1 UNK         0.3000 
    175 H175        1.9045  -13.1511  -44.3031 H         1 UNK         0.0600 
    176 H176        0.5747  -13.8486  -46.9692 H         1 UNK         0.0600 
    177 H177        1.5422  -12.3995  -46.6893 H         1 UNK         0.0600 
    178 H178        2.2724  -13.9914  -46.5557 H         1 UNK         0.0600 
    179 H179       -0.6824  -12.2969  -45.3368 H         1 UNK         0.3000 
    180 H180       -1.9869  -11.3008  -42.2202 H         1 UNK         0.0600 
    181 H181       -0.6429   -9.3584  -44.1759 H         1 UNK         0.0600 
    182 H182       -0.3274   -9.4436  -42.4469 H         1 UNK         0.0600 
    183 H183       -1.9133   -8.9541  -43.0201 H         1 UNK         0.0600 
    184 H184       -2.7295  -10.5154  -44.8447 H         1 UNK         0.3000 
    185 H185       -5.2668  -12.6748  -45.1042 H         1 UNK         0.0600 
    186 H186       -4.7461  -10.2960  -45.6371 H         1 UNK         0.0600 
    187 H187       -3.5122  -10.8003  -46.7938 H         1 UNK         0.0600 
    188 H188       -5.2051  -11.1753  -47.0811 H         1 UNK         0.0600 
    189 H189       -4.7440  -14.1923  -46.6534 H         1 UNK         0.3000 
    190 H190        0.2180  -21.6483  -45.5707 H         1 UNK         0.3000 
    191 H191       -2.0518  -21.1694  -47.2157 H         1 UNK         0.0600 
    192 H192       -1.1149  -19.4384  -45.7338 H         1 UNK         0.0600 
    193 H193       -2.7867  -19.7338  -45.2959 H         1 UNK         0.0600 
    194 H194       -1.4923  -20.3941  -44.3013 H         1 UNK         0.0600 
    195 H195       -1.5899  -23.1840  -44.3184 H         1 UNK         0.3000 
    196 H196       -4.3010  -23.9872  -43.9708 H         1 UNK         0.0600 
    197 H197       -3.3013  -25.7973  -42.5791 H         1 UNK         0.0600 
    198 H198       -2.5731  -24.2404  -42.2104 H         1 UNK         0.0600 
    199 H199       -1.6999  -25.4105  -43.1956 H         1 UNK         0.0600 
    200 H200       -1.5614  -25.6552  -45.6714 H         1 UNK         0.3000 
    201 H201       -3.1266  -27.8841  -46.4990 H         1 UNK         0.0600 
    202 H202       -0.6692  -27.9891  -46.2386 H         1 UNK         0.0600 
    203 H203       -0.4497  -26.8331  -47.5521 H         1 UNK         0.0600 
    204 H204       -1.1185  -28.4281  -47.8793 H         1 UNK         0.0600 
    205 H205       -2.2091  -24.8593  -48.1943 H         1 UNK         0.3000 
    206 H206       -3.4575  -25.6721  -50.7019 H         1 UNK         0.0600 
    207 H207       -1.3747  -24.2717  -50.5654 H         1 UNK         0.0600 
    208 H208       -2.6501  -23.4928  -51.4818 H         1 UNK         0.0600 
    209 H209       -2.3163  -22.9709  -49.8331 H         1 UNK         0.0600 
    210 H210       -4.7757  -24.5631  -47.8299 H         1 UNK         0.3000 
    211 H211       -6.6806  -23.6767  -47.1306 H         1 UNK         0.0600 
    212 H212       -7.7949  -24.5045  -49.8661 H         1 UNK         0.0600 
    213 H213       -8.7409  -24.1473  -48.4277 H         1 UNK         0.0600 
    214 H214       -7.6730  -25.5420  -48.4463 H         1 UNK         0.0600 
    215 H215       -5.1083  -21.7830  -47.4946 H         1 UNK         0.3000 
    216 H216       -4.7823  -19.6271  -47.6902 H         1 UNK         0.0600 
    217 H217       -6.5816  -18.0233  -47.9936 H         1 UNK         0.0600 
    218 H218       -7.1942  -19.3431  -47.0159 H         1 UNK         0.0600 
    219 H219       -7.6326  -19.2232  -48.7217 H         1 UNK         0.0600 
    220 H220       -4.8295  -21.5681  -50.1958 H         1 UNK         0.3000 
    221 H221       -3.9088  -21.6040  -52.1998 H         1 UNK         0.0600 
    222 H222       -2.3531  -19.1530  -51.2026 H         1 UNK         0.0600 
    223 H223       -1.9778  -20.8218  -50.8173 H         1 UNK         0.0600 
    224 H224       -1.8409  -20.2685  -52.4710 H         1 UNK         0.0600 
    225 H225       -2.9583  -18.6545  -53.1389 H         1 UNK         0.3000 
    226 H226       -3.4622  -17.1518  -54.6422 H         1 UNK         0.0600 
    227 H227       -5.5565  -16.6392  -53.3199 H         1 UNK         0.0600 
    228 H228       -5.7308  -16.3213  -55.0381 H         1 UNK         0.0600 
    229 H229       -6.4524  -17.7612  -54.3431 H         1 UNK         0.0600 
    230 H230       -4.1818  -16.8402  -56.8684 H         1 UNK         0.3000 
    231 H231       -4.1949  -17.2903  -59.0014 H         1 UNK         0.0600 
    232 H232       -5.5425  -19.9655  -58.3614 H         1 UNK         0.0600 
    233 H233       -5.4556  -19.1951  -59.9369 H         1 UNK         0.0600 
    234 H234       -6.3635  -18.4318  -58.6413 H         1 UNK         0.0600 
    235 H235       -3.2488  -20.3219  -57.3797 H         1 UNK         0.3000 
    236 H236       -1.3204  -21.2012  -59.3150 H         1 UNK         0.0600 
    237 H237       -2.4310  -22.7316  -57.7004 H         1 UNK         0.0600 
    238 H238       -0.6880  -22.8016  -57.4928 H         1 UNK         0.0600 
    239 H239       -1.6703  -21.8965  -56.3460 H         1 UNK         0.0600 
    240 H240       -1.1663  -18.8284  -56.7977 H         1 UNK         0.3000 
    241 H241        1.6823  -18.7068  -56.4508 H         1 UNK         0.0600 
    242 H242       -0.2258  -17.7039  -59.2167 H         1 UNK         0.3800 
    243 H243        0.9855  -16.6291  -59.8655 H         1 UNK         0.3800 
    244 H244       -0.3928  -16.5320  -55.9014 H         1 UNK         0.0800 
    245 H245        1.2430  -16.5505  -55.3056 H         1 UNK         0.0800 
    246 H246        1.7036  -17.1010  -52.9730 H         1 UNK         0.0800 
    247 H247        2.1369  -18.6652  -53.6281 H         1 UNK         0.0800 
@<TRIPOS>BOND
     1    1    2 1    
     2    1  127 1    
     3    1  128 1    
     4    1  129 1    
     5    2    3 2    
     6    2    4 am   BACKBONE|DICT|INTERRES
     7    4    5 1    
     8    4  130 1    
     9    5    6 1    
    10    5   65 1    
    11    5  131 1    
    12    6    7 1    
    13    6  132 1    
    14    6  133 1    
    15    7    8 1    
    16    8    9 1    
    17    8  134 1    
    18    8  135 1    
    19    9   10 ar   
    20    9   14 ar   
    21   10   11 ar   
    22   10  136 1    
    23   11   12 ar   
    24   11  126 1    
    25   12   13 ar   
    26   12  137 1    
    27   13   14 ar   
    28   13   15 1    
    29   14  138 1    
    30   15   16 1    
    31   15  139 1    
    32   15  140 1    
    33   16   17 1    
    34   17   18 1    
    35   17  141 1    
    36   17  142 1    
    37   18   19 1    
    38   18   67 1    
    39   18  143 1    
    40   19   20 am   BACKBONE|DICT|INTERRES
    41   19  144 1    
    42   20   21 2    
    43   20   22 1    
    44   22   23 1    
    45   22   24 1    
    46   22  145 1    
    47   23  146 1    
    48   23  147 1    
    49   23  148 1    
    50   24   25 am   BACKBONE|DICT|INTERRES
    51   24  149 1    
    52   25   26 2    
    53   25   27 1    
    54   27   28 1    
    55   27   29 1    
    56   27  150 1    
    57   28  151 1    
    58   28  152 1    
    59   28  153 1    
    60   29   30 am   BACKBONE|DICT|INTERRES
    61   29  154 1    
    62   30   31 2    
    63   30   32 1    
    64   32   33 1    
    65   32   34 1    
    66   32  155 1    
    67   33  156 1    
    68   33  157 1    
    69   33  158 1    
    70   34   35 am   BACKBONE|DICT|INTERRES
    71   34  159 1    
    72   35   36 2    
    73   35   37 1    
    74   37   38 1    
    75   37   39 1    
    76   37  160 1    
    77   38  161 1    
    78   38  162 1    
    79   38  163 1    
    80   39   40 am   BACKBONE|DICT|INTERRES
    81   39  164 1    
    82   40   41 2    
    83   40   42 1    
    84   42   43 1    
    85   42   44 1    
    86   42  165 1    
    87   43  166 1    
    88   43  167 1    
    89   43  168 1    
    90   44   45 am   BACKBONE|DICT|INTERRES
    91   44  169 1    
    92   45   46 2    
    93   45   47 1    
    94   47   48 1    
    95   47   49 1    
    96   47  170 1    
    97   48  171 1    
    98   48  172 1    
    99   48  173 1    
   100   49   50 am   BACKBONE|DICT|INTERRES
   101   49  174 1    
   102   50   51 2    
   103   50   52 1    
   104   52   53 1    
   105   52   54 1    
   106   52  175 1    
   107   53  176 1    
   108   53  177 1    
   109   53  178 1    
   110   54   55 am   BACKBONE|DICT|INTERRES
   111   54  179 1    
   112   55   56 2    
   113   55   57 1    
   114   57   58 1    
   115   57   59 1    
   116   57  180 1    
   117   58  181 1    
   118   58  182 1    
   119   58  183 1    
   120   59   60 am   BACKBONE|DICT|INTERRES
   121   59  184 1    
   122   60   61 2    
   123   60   62 1    
   124   62   63 1    
   125   62   64 1    
   126   62  185 1    
   127   63  186 1    
   128   63  187 1    
   129   63  188 1    
   130   64   65 am   BACKBONE|DICT|INTERRES
   131   64  189 1    
   132   65   66 2    
   133   67   68 2    
   134   67   69 am   BACKBONE|DICT|INTERRES
   135   69   70 1    
   136   69  190 1    
   137   70   71 1    
   138   70   72 1    
   139   70  191 1    
   140   71  192 1    
   141   71  193 1    
   142   71  194 1    
   143   72   73 2    
   144   72   74 am   BACKBONE|DICT|INTERRES
   145   74   75 1    
   146   74  195 1    
   147   75   76 1    
   148   75   77 1    
   149   75  196 1    
   150   76  197 1    
   151   76  198 1    
   152   76  199 1    
   153   77   78 2    
   154   77   79 am   BACKBONE|DICT|INTERRES
   155   79   80 1    
   156   79  200 1    
   157   80   81 1    
   158   80   82 1    
   159   80  201 1    
   160   81  202 1    
   161   81  203 1    
   162   81  204 1    
   163   82   83 2    
   164   82   84 am   BACKBONE|DICT|INTERRES
   165   84   85 1    
   166   84  205 1    
   167   85   86 1    
   168   85   87 1    
   169   85  206 1    
   170   86  207 1    
   171   86  208 1    
   172   86  209 1    
   173   87   88 2    
   174   87   89 am   BACKBONE|DICT|INTERRES
   175   89   90 1    
   176   89  210 1    
   177   90   91 1    
   178   90   92 1    
   179   90  211 1    
   180   91  212 1    
   181   91  213 1    
   182   91  214 1    
   183   92   93 2    
   184   92   94 am   BACKBONE|DICT|INTERRES
   185   94   95 1    
   186   94  215 1    
   187   95   96 1    
   188   95   97 1    
   189   95  216 1    
   190   96  217 1    
   191   96  218 1    
   192   96  219 1    
   193   97   98 2    
   194   97   99 am   BACKBONE|DICT|INTERRES
   195   99  100 1    
   196   99  220 1    
   197  100  101 1    
   198  100  102 1    
   199  100  221 1    
   200  101  222 1    
   201  101  223 1    
   202  101  224 1    
   203  102  103 2    
   204  102  104 am   BACKBONE|DICT|INTERRES
   205  104  105 1    
   206  104  225 1    
   207  105  106 1    
   208  105  107 1    
   209  105  226 1    
   210  106  227 1    
   211  106  228 1    
   212  106  229 1    
   213  107  108 2    
   214  107  109 am   BACKBONE|DICT|INTERRES
   215  109  110 1    
   216  109  230 1    
   217  110  111 1    
   218  110  112 1    
   219  110  231 1    
   220  111  232 1    
   221  111  233 1    
   222  111  234 1    
   223  112  113 2    
   224  112  114 am   BACKBONE|DICT|INTERRES
   225  114  115 1    
   226  114  235 1    
   227  115  116 1    
   228  115  117 1    
   229  115  236 1    
   230  116  237 1    
   231  116  238 1    
   232  116  239 1    
   233  117  118 2    
   234  117  119 am   BACKBONE|DICT|INTERRES
   235  119  120 1    
   236  119  240 1    
   237  120  121 1    
   238  120  124 1    
   239  120  241 1    
   240  121  122 am   BACKBONE|DICT|INTERRES
   241  121  123 2    
   242  122  242 1    
   243  122  243 1    
   244  124  125 1    
   245  124  244 1    
   246  124  245 1    
   247  125  126 1    
   248  126  246 1    
   249  126  247 1    
@<TRIPOS>SUBSTRUCTURE
     1 UNK         1 GROUP             0       ****    0 ROOT    
