@<TRIPOS>MOLECULE
3R540
247   249    1
SMALL
USER_CHARGES


@<TRIPOS>ATOM
      1 CA         -5.4347  -13.4103  -53.3794 C.3       0 UNK        -0.1800 
      2 C          -4.1674  -13.1707  -52.5706 C.2       0 UNK         0.5000 
      3 O          -3.8989  -12.0331  -52.1837 O.2       0 UNK        -0.5000 
      4 N          -3.3867  -14.2315  -52.3289 N.am      1 UNK        -0.5000 
      5 CA         -2.1477  -14.2296  -51.5458 C.3       1 UNK         0.1400 
      6 C6         -1.4737  -15.6244  -51.5594 C.3       23 UNK        -0.0398 
      7 S7          0.3257  -15.5756  -51.2426 S.3       23 UNK        -0.2404 
      8 C8          0.4596  -15.8585  -49.4454 C.3       23 UNK        -0.0205 
      9 C9         -0.1141  -17.1930  -48.9953 C.ar      23 UNK        -0.0193 
     10 C10        -1.3270  -17.2339  -48.2998 C.ar      23 UNK        -0.1150 
     11 C11        -1.8590  -18.4534  -47.8748 C.ar      23 UNK        -0.0193 
     12 C12        -1.1660  -19.6330  -48.1421 C.ar      23 UNK        -0.1150 
     13 C13         0.0540  -19.6072  -48.8200 C.ar      23 UNK        -0.0193 
     14 C14         0.5776  -18.3827  -49.2454 C.ar      23 UNK        -0.1150 
     15 C15         0.7878  -20.9083  -49.1033 C.3       23 UNK        -0.0205 
     16 S16         2.0746  -21.2791  -47.8699 S.3       23 UNK        -0.2404 
     17 C17         1.1548  -21.3722  -46.2947 C.3       23 UNK        -0.0398 
     18 CA          0.6383  -22.7934  -45.9548 C.3       11 UNK         0.1400 
     19 N           0.7248  -23.0599  -44.5168 N.am      11 UNK        -0.5000 
     20 C           0.5142  -24.2478  -43.9354 C.2       10 UNK         0.5000 
     21 O           0.2468  -25.2740  -44.5572 O.2       10 UNK        -0.5000 
     22 CA          0.5527  -24.2769  -42.3992 C.3       10 UNK         0.1400 
     23 CB          1.9959  -24.3835  -41.8840 C.3       10 UNK        -0.1800 
     24 N          -0.0913  -23.0917  -41.8327 N.am      10 UNK        -0.5000 
     25 C          -1.4175  -22.8993  -41.8106 C.2       9 UNK         0.5000 
     26 O          -2.2332  -23.7353  -42.2004 O.2       9 UNK        -0.5000 
     27 CA         -1.9112  -21.5307  -41.3026 C.3       9 UNK         0.1400 
     28 CB         -2.0065  -21.5242  -39.7697 C.3       9 UNK        -0.1800 
     29 N          -1.0612  -20.4200  -41.7375 N.am      9 UNK        -0.5000 
     30 C          -0.9319  -20.0181  -43.0103 C.2       8 UNK         0.5000 
     31 O          -1.5378  -20.5257  -43.9501 O.2       8 UNK        -0.5000 
     32 CA          0.0803  -18.8946  -43.2970 C.3       8 UNK         0.1400 
     33 CB         -0.6013  -17.5241  -43.1769 C.3       8 UNK        -0.1800 
     34 N           1.2595  -18.9241  -42.4299 N.am      8 UNK        -0.5000 
     35 C           2.0963  -19.9601  -42.2667 C.2       7 UNK         0.5000 
     36 O           1.9642  -21.0349  -42.8519 O.2       7 UNK        -0.5000 
     37 CA          3.2632  -19.7788  -41.2755 C.3       7 UNK         0.1400 
     38 CB          4.6018  -19.7472  -42.0278 C.3       7 UNK        -0.1800 
     39 N           3.1488  -18.5623  -40.4688 N.am      7 UNK        -0.5000 
     40 C           2.2939  -18.3630  -39.4591 C.2       6 UNK         0.5000 
     41 O           1.5223  -19.2264  -39.0408 O.2       6 UNK        -0.5000 
     42 CA          2.2487  -16.9402  -38.8650 C.3       6 UNK         0.1400 
     43 CB          3.5350  -16.6088  -38.0833 C.3       6 UNK        -0.1800 
     44 N           1.9276  -15.8984  -39.8559 N.am      6 UNK        -0.5000 
     45 C           2.6465  -15.4984  -40.9146 C.2       5 UNK         0.5000 
     46 O           3.7591  -15.9455  -41.2083 O.2       5 UNK        -0.5000 
     47 CA          2.0058  -14.4411  -41.8214 C.3       5 UNK         0.1400 
     48 CB          2.4315  -13.0212  -41.4128 C.3       5 UNK        -0.1800 
     49 N           2.4329  -14.7202  -43.1874 N.am      5 UNK        -0.5000 
     50 C           1.7411  -14.4405  -44.2941 C.2       4 UNK         0.5000 
     51 O           0.6616  -13.8445  -44.2991 O.2       4 UNK        -0.5000 
     52 CA          2.3320  -14.9726  -45.6108 C.3       4 UNK         0.1400 
     53 CB          1.7727  -16.3701  -45.9274 C.3       4 UNK        -0.1800 
     54 N           2.0292  -14.0748  -46.7225 N.am      4 UNK        -0.5000 
     55 C           2.6961  -12.9444  -46.9889 C.2       3 UNK         0.5000 
     56 O           3.6754  -12.5626  -46.3465 O.2       3 UNK        -0.5000 
     57 CA          2.2046  -12.1052  -48.1852 C.3       3 UNK         0.1400 
     58 CB          3.0520  -12.4082  -49.4311 C.3       3 UNK        -0.1800 
     59 N           0.7938  -12.3212  -48.5163 N.am      3 UNK        -0.5000 
     60 C          -0.2415  -11.8413  -47.8101 C.2       2 UNK         0.5000 
     61 O          -0.1062  -11.1674  -46.7886 O.2       2 UNK        -0.5000 
     62 CA         -1.6586  -12.1514  -48.3345 C.3       2 UNK         0.1400 
     63 CB         -2.5577  -10.9017  -48.3420 C.3       2 UNK        -0.1800 
     64 N          -1.6273  -12.7277  -49.6815 N.am      2 UNK        -0.5000 
     65 C          -2.3862  -13.7473  -50.0987 C.2       1 UNK         0.5000 
     66 O          -3.2226  -14.3182  -49.3958 O.2       1 UNK        -0.5000 
     67 C          -0.7849  -23.0526  -46.5058 C.2       11 UNK         0.5000 
     68 O          -0.9288  -23.6204  -47.5908 O.2       11 UNK        -0.5000 
     69 N          -1.8142  -22.6775  -45.7308 N.am      12 UNK        -0.5000 
     70 CA         -3.2286  -22.9483  -45.9982 C.3       12 UNK         0.1400 
     71 CB         -4.1078  -22.2139  -44.9757 C.3       12 UNK        -0.1800 
     72 C          -3.5667  -24.4479  -46.0271 C.2       12 UNK         0.5000 
     73 O          -4.3561  -24.8734  -46.8698 O.2       12 UNK        -0.5000 
     74 N          -2.9494  -25.2244  -45.1276 N.am      13 UNK        -0.5000 
     75 CA         -3.0657  -26.6817  -45.0990 C.3       13 UNK         0.1400 
     76 CB         -2.5823  -27.2083  -43.7389 C.3       13 UNK        -0.1800 
     77 C          -2.2967  -27.3469  -46.2565 C.2       13 UNK         0.5000 
     78 O          -2.7815  -28.3280  -46.8216 O.2       13 UNK        -0.5000 
     79 N          -1.1162  -26.8035  -46.5833 N.am      14 UNK        -0.5000 
     80 CA         -0.2235  -27.3058  -47.6246 C.3       14 UNK         0.1400 
     81 CB          1.1609  -26.6563  -47.4738 C.3       14 UNK        -0.1800 
     82 C          -0.7616  -27.1012  -49.0513 C.2       14 UNK         0.5000 
     83 O          -0.7059  -28.0406  -49.8471 O.2       14 UNK        -0.5000 
     84 N          -1.2467  -25.8903  -49.3629 N.am      15 UNK        -0.5000 
     85 CA         -1.6612  -25.5223  -50.7208 C.3       15 UNK         0.1400 
     86 CB         -0.4231  -25.1498  -51.5596 C.3       15 UNK        -0.1800 
     87 C          -2.6955  -24.3885  -50.7893 C.2       15 UNK         0.5000 
     88 O          -3.4624  -24.3569  -51.7521 O.2       15 UNK        -0.5000 
     89 N          -2.6803  -23.4582  -49.8205 N.am      16 UNK        -0.5000 
     90 CA         -3.4818  -22.2224  -49.8013 C.3       16 UNK         0.1400 
     91 CB         -4.9888  -22.5258  -49.6628 C.3       16 UNK        -0.1800 
     92 C          -3.1650  -21.2772  -50.9775 C.2       16 UNK         0.5000 
     93 O          -4.0594  -20.6015  -51.4864 O.2       16 UNK        -0.5000 
     94 N          -1.8921  -21.2756  -51.3992 N.am      17 UNK        -0.5000 
     95 CA         -1.2801  -20.5551  -52.5230 C.3       17 UNK         0.1400 
     96 CB         -1.5079  -19.0352  -52.4307 C.3       17 UNK        -0.1800 
     97 C          -1.6749  -21.1034  -53.9076 C.2       17 UNK         0.5000 
     98 O          -0.8058  -21.2118  -54.7736 O.2       17 UNK        -0.5000 
     99 N          -2.9536  -21.4660  -54.0816 N.am      18 UNK        -0.5000 
    100 CA        -3.6080  -22.0274  -55.2707 C.3       18 UNK         0.1400 
    101 CB        -2.9945  -23.3837  -55.6691 C.3       18 UNK        -0.1800 
    102 C         -3.6665  -21.0483  -56.4596 C.2       18 UNK         0.5000 
    103 O         -4.7595  -20.6870  -56.8972 O.2       18 UNK        -0.5000 
    104 N         -2.4989  -20.6032  -56.9362 N.am      19 UNK        -0.5000 
    105 CA        -2.3454  -19.4859  -57.8617 C.3       19 UNK         0.1400 
    106 CB        -0.9630  -19.5676  -58.5296 C.3       19 UNK        -0.1800 
    107 C         -2.5188  -18.1867  -57.0594 C.2       19 UNK         0.5000 
    108 O         -1.6546  -17.8686  -56.2404 O.2       19 UNK        -0.5000 
    109 N         -3.6639  -17.5166  -57.2574 N.am      20 UNK        -0.5000 
    110 CA        -4.1979  -16.4354  -56.4193 C.3       20 UNK         0.1400 
    111 CB        -3.3064  -15.1760  -56.4755 C.3       20 UNK        -0.1800 
    112 C         -4.4472  -16.9441  -54.9851 C.2       20 UNK         0.5000 
    113 O         -3.8235  -16.4680  -54.0349 O.2       20 UNK        -0.5000 
    114 N         -5.3192  -17.9573  -54.8782 N.am      21 UNK        -0.5000 
    115 CA        -5.6328  -18.6766  -53.6436 C.3       21 UNK         0.1400 
    116 CB        -6.6810  -19.7614  -53.9337 C.3       21 UNK        -0.1800 
    117 C         -6.1128  -17.7609  -52.5026 C.2       21 UNK         0.5000 
    118 O         -6.9065  -16.8489  -52.7474 O.2       21 UNK        -0.5000 
    119 N         -5.6311  -18.0273  -51.2836 N.am      22 UNK        -0.5000 
    120 CA        -5.9398  -17.2244  -50.0882 C.3       22 UNK         0.1400 
    121 C         -7.3413  -17.4791  -49.4566 C.2       22 UNK         0.5000 
    122 N         -8.0914  -18.4879  -49.8842 N.am      22 UNK        -0.7600 
    123 O         -7.7633  -16.7360  -48.5746 O.2       22 UNK        -0.5000 
    124 C124       -4.7952  -17.2778  -49.0468 C.3       23 UNK        -0.0398 
    125 S125       -4.5598  -18.8995  -48.2416 S.3       23 UNK        -0.2404 
    126 C126       -3.1783  -18.5113  -47.1238 C.3       23 UNK        -0.0205 
    127 H127       -5.3498  -12.9421  -54.3599 H         1 UNK         0.0600 
    128 H128       -6.2944  -12.9789  -52.8668 H         1 UNK         0.0600 
    129 H129       -5.6296  -14.4727  -53.5223 H         1 UNK         0.0600 
    130 H130       -3.6378  -15.1244  -52.7483 H         1 UNK         0.3000 
    131 H131       -1.4804  -13.5242  -52.0455 H         1 UNK         0.0600 
    132 H132       -1.5800  -16.0630  -52.5525 H         1 UNK         0.0800 
    133 H133       -1.9716  -16.3227  -50.8867 H         1 UNK         0.0800 
    134 H134       -0.0271  -15.0437  -48.9121 H         1 UNK         0.0800 
    135 H135        1.5140  -15.8156  -49.1690 H         1 UNK         0.0800 
    136 H136       -1.8624  -16.3178  -48.0936 H         1 UNK         0.1150 
    137 H137       -1.5748  -20.5728  -47.8062 H         1 UNK         0.1150 
    138 H138        1.5197  -18.3549  -49.7746 H         1 UNK         0.1150 
    139 H139        0.0867  -21.7406  -49.1533 H         1 UNK         0.0800 
    140 H140        1.2557  -20.8520  -50.0872 H         1 UNK         0.0800 
    141 H141        0.3671  -20.6228  -46.2398 H         1 UNK         0.0800 
    142 H142        1.8777  -21.0583  -45.5408 H         1 UNK         0.0800 
    143 H143        1.3007  -23.5191  -46.4300 H         1 UNK         0.0600 
    144 H144        0.9928  -22.2801  -43.9229 H         1 UNK         0.3000 
    145 H145        0.0089  -25.1637  -42.0661 H         1 UNK         0.0600 
    146 H146        2.0223  -24.4384  -40.7957 H         1 UNK         0.0600 
    147 H147        2.4780  -25.2841  -42.2664 H         1 UNK         0.0600 
    148 H148        2.6041  -23.5326  -42.1914 H         1 UNK         0.0600 
    149 H149        0.5167  -22.3346  -41.5544 H         1 UNK         0.3000 
    150 H150       -2.9126  -21.3693  -41.7076 H         1 UNK         0.0600 
    151 H151       -2.6432  -22.3355  -39.4144 H         1 UNK         0.0600 
    152 H152       -2.4373  -20.5912  -39.4059 H         1 UNK         0.0600 
    153 H153       -1.0276  -21.6455  -39.3039 H         1 UNK         0.0600 
    154 H154       -0.5152  -19.9563  -41.0254 H         1 UNK         0.3000 
    155 H155        0.4263  -19.0163  -44.3250 H         1 UNK         0.0600 
    156 H156       -0.9667  -17.3424  -42.1654 H         1 UNK         0.0600 
    157 H157       -1.4543  -17.4526  -43.8534 H         1 UNK         0.0600 
    158 H158        0.0816  -16.7167  -43.4343 H         1 UNK         0.0600 
    159 H159        1.4498  -18.0888  -41.8991 H         1 UNK         0.3000 
    160 H160        3.2617  -20.6421  -40.6071 H         1 UNK         0.0600 
    161 H161        4.7409  -20.6525  -42.6204 H         1 UNK         0.0600 
    162 H162        5.4412  -19.6816  -41.3353 H         1 UNK         0.0600 
    163 H163        4.6604  -18.8962  -42.7077 H         1 UNK         0.0600 
    164 H164        3.6952  -17.7596  -40.7730 H         1 UNK         0.3000 
    165 H165        1.4262  -16.9292  -38.1478 H         1 UNK         0.0600 
    166 H166        3.4643  -15.6301  -37.6087 H         1 UNK         0.0600 
    167 H167        3.7073  -17.3408  -37.2933 H         1 UNK         0.0600 
    168 H168        4.4192  -16.6071  -38.7209 H         1 UNK         0.0600 
    169 H169        1.0237  -15.4662  -39.7202 H         1 UNK         0.3000 
    170 H170        0.9194  -14.5315  -41.7527 H         1 UNK         0.0600 
    171 H171        2.1305  -12.8023  -40.3876 H         1 UNK         0.0600 
    172 H172        3.5131  -12.8935  -41.4737 H         1 UNK         0.0600 
    173 H173        1.9696  -12.2707  -42.0546 H         1 UNK         0.0600 
    174 H174        3.2969  -15.2456  -43.2443 H         1 UNK         0.3000 
    175 H175        3.4165  -15.0528  -45.5065 H         1 UNK         0.0600 
    176 H176        0.6873  -16.3577  -46.0364 H         1 UNK         0.0600 
    177 H177        2.1973  -16.7675  -46.8494 H         1 UNK         0.0600 
    178 H178        2.0150  -17.0770  -45.1329 H         1 UNK         0.0600 
    179 H179        1.1927  -14.2719  -47.2466 H         1 UNK         0.3000 
    180 H180        2.3426  -11.0529  -47.9271 H         1 UNK         0.0600 
    181 H181        2.9422  -13.4454  -49.7512 H         1 UNK         0.0600 
    182 H182        4.1112  -12.2356  -49.2355 H         1 UNK         0.0600 
    183 H183        2.7695  -11.7671  -50.2663 H         1 UNK         0.0600 
    184 H184        0.6077  -12.8671  -49.3430 H         1 UNK         0.3000 
    185 H185       -2.0818  -12.8739  -47.6335 H         1 UNK         0.0600 
    186 H186       -2.6466  -10.4715  -47.3437 H         1 UNK         0.0600 
    187 H187       -2.1624  -10.1286  -49.0017 H         1 UNK         0.0600 
    188 H188       -3.5656  -11.1453  -48.6789 H         1 UNK         0.0600 
    189 H189       -1.0111  -12.2736  -50.3414 H         1 UNK         0.3000 
    190 H190       -1.6207  -22.1278  -44.8973 H         1 UNK         0.3000 
    191 H191       -3.4675  -22.5444  -46.9775 H         1 UNK         0.0600 
    192 H192       -3.9616  -21.1357  -45.0304 H         1 UNK         0.0600 
    193 H193       -3.8911  -22.5297  -43.9555 H         1 UNK         0.0600 
    194 H194       -5.1655  -22.4046  -45.1613 H         1 UNK         0.0600 
    195 H195       -2.3257  -24.7980  -44.4555 H         1 UNK         0.3000 
    196 H196       -4.1204  -26.9451  -45.2039 H         1 UNK         0.0600 
    197 H197       -2.7073  -28.2898  -43.6743 H         1 UNK         0.0600 
    198 H198       -3.1501  -26.7650  -42.9205 H         1 UNK         0.0600 
    199 H199       -1.5279  -26.9907  -43.5691 H         1 UNK         0.0600 
    200 H200       -0.7597  -26.0457  -46.0088 H         1 UNK         0.3000 
    201 H201       -0.1043  -28.3800  -47.4673 H         1 UNK         0.0600 
    202 H202        1.5837  -26.8501  -46.4879 H         1 UNK         0.0600 
    203 H203        1.1166  -25.5765  -47.6140 H         1 UNK         0.0600 
    204 H204        1.8600  -27.0530  -48.2109 H         1 UNK         0.0600 
    205 H205       -1.2504  -25.1649  -48.6521 H         1 UNK         0.3000 
    206 H206       -2.1412  -26.3867  -51.1851 H         1 UNK         0.0600 
    207 H207        0.2544  -25.9969  -51.6666 H         1 UNK         0.0600 
    208 H208       -0.7071  -24.8371  -52.5657 H         1 UNK         0.0600 
    209 H209        0.1354  -24.3307  -51.1052 H         1 UNK         0.0600 
    210 H210       -2.0152  -23.5556  -49.0578 H         1 UNK         0.3000 
    211 H211       -3.1791  -21.6663  -48.9188 H         1 UNK         0.0600 
    212 H212       -5.3941  -22.9964  -50.5586 H         1 UNK         0.0600 
    213 H213       -5.5570  -21.6106  -49.4933 H         1 UNK         0.0600 
    214 H214       -5.1847  -23.1868  -48.8197 H         1 UNK         0.0600 
    215 H215       -1.2707  -21.9163  -50.9301 H         1 UNK         0.3000 
    216 H216       -0.2068  -20.7227  -52.4200 H         1 UNK         0.0600 
    217 H217       -0.9284  -18.5105  -53.1914 H         1 UNK         0.0600 
    218 H218       -1.1967  -18.6507  -51.4608 H         1 UNK         0.0600 
    219 H219       -2.5507  -18.7591  -52.5779 H         1 UNK         0.0600 
    220 H220       -3.5659  -21.3076  -53.2878 H         1 UNK         0.3000 
    221 H221       -4.6392  -22.2201  -54.9716 H         1 UNK         0.0600 
    222 H222       -1.9567  -23.2911  -55.9894 H         1 UNK         0.0600 
    223 H223       -3.0250  -24.0859  -54.8355 H         1 UNK         0.0600 
    224 H224       -3.5499  -23.8326  -56.4933 H         1 UNK         0.0600 
    225 H225       -1.6649  -20.8815  -56.4255 H         1 UNK         0.3000 
    226 H226       -3.1082  -19.5457  -58.6410 H         1 UNK         0.0600 
    227 H227       -0.8610  -20.4850  -59.1095 H         1 UNK         0.0600 
    228 H228       -0.8111  -18.7309  -59.2124 H         1 UNK         0.0600 
    229 H229       -0.1558  -19.5454  -57.7960 H         1 UNK         0.0600 
    230 H230       -4.3083  -17.8849  -57.9436 H         1 UNK         0.3000 
    231 H231       -5.1710  -16.1658  -56.8325 H         1 UNK         0.0600 
    232 H232       -3.1560  -14.8456  -57.5031 H         1 UNK         0.0600 
    233 H233       -2.3255  -15.3431  -56.0301 H         1 UNK         0.0600 
    234 H234       -3.7694  -14.3514  -55.9328 H         1 UNK         0.0600 
    235 H235       -5.7706  -18.2968  -55.7148 H         1 UNK         0.3000 
    236 H236       -4.7063  -19.1600  -53.3455 H         1 UNK         0.0600 
    237 H237       -6.8761  -20.3604  -53.0432 H         1 UNK         0.0600 
    238 H238       -7.6290  -19.3273  -54.2540 H         1 UNK         0.0600 
    239 H239       -6.3462  -20.4442  -54.7129 H         1 UNK         0.0600 
    240 H240       -5.0201  -18.8279  -51.1519 H         1 UNK         0.3000 
    241 H241       -5.9769  -16.1840  -50.4186 H         1 UNK         0.0600 
    242 H242       -8.9994  -18.6411  -49.4748 H         1 UNK         0.3800 
    243 H243       -7.7535  -19.1037  -50.6053 H         1 UNK         0.3800 
    244 H244       -3.8619  -16.9987  -49.5345 H         1 UNK         0.0800 
    245 H245       -4.9597  -16.5256  -48.2734 H         1 UNK         0.0800 
    246 H246       -3.1208  -19.2780  -46.3499 H         1 UNK         0.0800 
    247 H247       -3.3701  -17.5710  -46.6047 H         1 UNK         0.0800 
@<TRIPOS>BOND
     1    1    2 1    
     2    1  127 1    
     3    1  128 1    
     4    1  129 1    
     5    2    3 2    
     6    2    4 am   BACKBONE|DICT|INTERRES
     7    4    5 1    
     8    4  130 1    
     9    5    6 1    
    10    5   65 1    
    11    5  131 1    
    12    6    7 1    
    13    6  132 1    
    14    6  133 1    
    15    7    8 1    
    16    8    9 1    
    17    8  134 1    
    18    8  135 1    
    19    9   10 ar   
    20    9   14 ar   
    21   10   11 ar   
    22   10  136 1    
    23   11   12 ar   
    24   11  126 1    
    25   12   13 ar   
    26   12  137 1    
    27   13   14 ar   
    28   13   15 1    
    29   14  138 1    
    30   15   16 1    
    31   15  139 1    
    32   15  140 1    
    33   16   17 1    
    34   17   18 1    
    35   17  141 1    
    36   17  142 1    
    37   18   19 1    
    38   18   67 1    
    39   18  143 1    
    40   19   20 am   BACKBONE|DICT|INTERRES
    41   19  144 1    
    42   20   21 2    
    43   20   22 1    
    44   22   23 1    
    45   22   24 1    
    46   22  145 1    
    47   23  146 1    
    48   23  147 1    
    49   23  148 1    
    50   24   25 am   BACKBONE|DICT|INTERRES
    51   24  149 1    
    52   25   26 2    
    53   25   27 1    
    54   27   28 1    
    55   27   29 1    
    56   27  150 1    
    57   28  151 1    
    58   28  152 1    
    59   28  153 1    
    60   29   30 am   BACKBONE|DICT|INTERRES
    61   29  154 1    
    62   30   31 2    
    63   30   32 1    
    64   32   33 1    
    65   32   34 1    
    66   32  155 1    
    67   33  156 1    
    68   33  157 1    
    69   33  158 1    
    70   34   35 am   BACKBONE|DICT|INTERRES
    71   34  159 1    
    72   35   36 2    
    73   35   37 1    
    74   37   38 1    
    75   37   39 1    
    76   37  160 1    
    77   38  161 1    
    78   38  162 1    
    79   38  163 1    
    80   39   40 am   BACKBONE|DICT|INTERRES
    81   39  164 1    
    82   40   41 2    
    83   40   42 1    
    84   42   43 1    
    85   42   44 1    
    86   42  165 1    
    87   43  166 1    
    88   43  167 1    
    89   43  168 1    
    90   44   45 am   BACKBONE|DICT|INTERRES
    91   44  169 1    
    92   45   46 2    
    93   45   47 1    
    94   47   48 1    
    95   47   49 1    
    96   47  170 1    
    97   48  171 1    
    98   48  172 1    
    99   48  173 1    
   100   49   50 am   BACKBONE|DICT|INTERRES
   101   49  174 1    
   102   50   51 2    
   103   50   52 1    
   104   52   53 1    
   105   52   54 1    
   106   52  175 1    
   107   53  176 1    
   108   53  177 1    
   109   53  178 1    
   110   54   55 am   BACKBONE|DICT|INTERRES
   111   54  179 1    
   112   55   56 2    
   113   55   57 1    
   114   57   58 1    
   115   57   59 1    
   116   57  180 1    
   117   58  181 1    
   118   58  182 1    
   119   58  183 1    
   120   59   60 am   BACKBONE|DICT|INTERRES
   121   59  184 1    
   122   60   61 2    
   123   60   62 1    
   124   62   63 1    
   125   62   64 1    
   126   62  185 1    
   127   63  186 1    
   128   63  187 1    
   129   63  188 1    
   130   64   65 am   BACKBONE|DICT|INTERRES
   131   64  189 1    
   132   65   66 2    
   133   67   68 2    
   134   67   69 am   BACKBONE|DICT|INTERRES
   135   69   70 1    
   136   69  190 1    
   137   70   71 1    
   138   70   72 1    
   139   70  191 1    
   140   71  192 1    
   141   71  193 1    
   142   71  194 1    
   143   72   73 2    
   144   72   74 am   BACKBONE|DICT|INTERRES
   145   74   75 1    
   146   74  195 1    
   147   75   76 1    
   148   75   77 1    
   149   75  196 1    
   150   76  197 1    
   151   76  198 1    
   152   76  199 1    
   153   77   78 2    
   154   77   79 am   BACKBONE|DICT|INTERRES
   155   79   80 1    
   156   79  200 1    
   157   80   81 1    
   158   80   82 1    
   159   80  201 1    
   160   81  202 1    
   161   81  203 1    
   162   81  204 1    
   163   82   83 2    
   164   82   84 am   BACKBONE|DICT|INTERRES
   165   84   85 1    
   166   84  205 1    
   167   85   86 1    
   168   85   87 1    
   169   85  206 1    
   170   86  207 1    
   171   86  208 1    
   172   86  209 1    
   173   87   88 2    
   174   87   89 am   BACKBONE|DICT|INTERRES
   175   89   90 1    
   176   89  210 1    
   177   90   91 1    
   178   90   92 1    
   179   90  211 1    
   180   91  212 1    
   181   91  213 1    
   182   91  214 1    
   183   92   93 2    
   184   92   94 am   BACKBONE|DICT|INTERRES
   185   94   95 1    
   186   94  215 1    
   187   95   96 1    
   188   95   97 1    
   189   95  216 1    
   190   96  217 1    
   191   96  218 1    
   192   96  219 1    
   193   97   98 2    
   194   97   99 am   BACKBONE|DICT|INTERRES
   195   99  100 1    
   196   99  220 1    
   197  100  101 1    
   198  100  102 1    
   199  100  221 1    
   200  101  222 1    
   201  101  223 1    
   202  101  224 1    
   203  102  103 2    
   204  102  104 am   BACKBONE|DICT|INTERRES
   205  104  105 1    
   206  104  225 1    
   207  105  106 1    
   208  105  107 1    
   209  105  226 1    
   210  106  227 1    
   211  106  228 1    
   212  106  229 1    
   213  107  108 2    
   214  107  109 am   BACKBONE|DICT|INTERRES
   215  109  110 1    
   216  109  230 1    
   217  110  111 1    
   218  110  112 1    
   219  110  231 1    
   220  111  232 1    
   221  111  233 1    
   222  111  234 1    
   223  112  113 2    
   224  112  114 am   BACKBONE|DICT|INTERRES
   225  114  115 1    
   226  114  235 1    
   227  115  116 1    
   228  115  117 1    
   229  115  236 1    
   230  116  237 1    
   231  116  238 1    
   232  116  239 1    
   233  117  118 2    
   234  117  119 am   BACKBONE|DICT|INTERRES
   235  119  120 1    
   236  119  240 1    
   237  120  121 1    
   238  120  124 1    
   239  120  241 1    
   240  121  122 am   BACKBONE|DICT|INTERRES
   241  121  123 2    
   242  122  242 1    
   243  122  243 1    
   244  124  125 1    
   245  124  244 1    
   246  124  245 1    
   247  125  126 1    
   248  126  246 1    
   249  126  247 1    
@<TRIPOS>SUBSTRUCTURE
     1 UNK         1 GROUP             0       ****    0 ROOT    
