@<TRIPOS>MOLECULE
3R540
247   249    1
SMALL
USER_CHARGES


@<TRIPOS>ATOM
      1 CA         -1.8490   -8.8436  -48.3516 C.3       0 UNK        -0.1800 
      2 C          -0.8342   -9.9675  -48.5001 C.2       0 UNK         0.5000 
      3 O           0.0779  -10.0862  -47.6830 O.2       0 UNK        -0.5000 
      4 N          -0.9947  -10.8042  -49.5321 N.am      1 UNK        -0.5000 
      5 CA         -0.1143  -11.9358  -49.8561 C.3       1 UNK         0.1400 
      6 C6         -0.4537  -12.5384  -51.2417 C.3       23 UNK        -0.0398 
      7 S7         -2.1715  -13.1612  -51.3629 S.3       23 UNK        -0.2404 
      8 C8         -2.0140  -14.5133  -52.5705 C.3       23 UNK        -0.0205 
      9 C9         -1.0502  -15.6067  -52.1295 C.ar      23 UNK        -0.0193 
     10 C10         0.1026  -15.8578  -52.8761 C.ar      23 UNK        -0.1150 
     11 C11         0.9694  -16.8958  -52.5240 C.ar      23 UNK        -0.0193 
     12 C12         0.6844  -17.6742  -51.3965 C.ar      23 UNK        -0.1150 
     13 C13        -0.4570  -17.4222  -50.6281 C.ar      23 UNK        -0.0193 
     14 C14        -1.3195  -16.3869  -51.0014 C.ar      23 UNK        -0.1150 
     15 C15        -0.7689  -18.2709  -49.4037 C.3       23 UNK        -0.0205 
     16 S16        -1.8852  -19.6377  -49.8337 S.3       23 UNK        -0.2404 
     17 C17        -2.4008  -20.2844  -48.2067 C.3       23 UNK        -0.0398 
     18 CA         -1.7916  -21.6824  -47.9175 C.3       11 UNK         0.1400 
     19 N          -0.5416  -21.6113  -47.1545 N.am      11 UNK        -0.5000 
     20 C           0.2685  -22.6597  -46.9439 C.2       10 UNK         0.5000 
     21 O           0.0626  -23.7846  -47.3976 O.2       10 UNK        -0.5000 
     22 CA          1.4902  -22.4308  -46.0409 C.3       10 UNK         0.1400 
     23 CB          2.5816  -21.6465  -46.7848 C.3       10 UNK        -0.1800 
     24 N           1.1399  -21.7574  -44.7904 N.am      10 UNK        -0.5000 
     25 C           0.3061  -22.2630  -43.8692 C.2       9 UNK         0.5000 
     26 O          -0.2242  -23.3695  -43.9609 O.2       9 UNK        -0.5000 
     27 CA         -0.0258  -21.3749  -42.6585 C.3       9 UNK         0.1400 
     28 CB          1.0893  -21.4559  -41.6056 C.3       9 UNK        -0.1800 
     29 N          -0.2655  -19.9788  -43.0222 N.am      9 UNK        -0.5000 
     30 C          -1.2507  -19.5550  -43.8281 C.2       8 UNK         0.5000 
     31 O          -2.0867  -20.2966  -44.3442 O.2       8 UNK        -0.5000 
     32 CA         -1.2660  -18.0532  -44.1637 C.3       8 UNK         0.1400 
     33 CB         -1.7692  -17.2316  -42.9677 C.3       8 UNK        -0.1800 
     34 N           0.0490  -17.5677  -44.5818 N.am      8 UNK        -0.5000 
     35 C           0.7336  -18.0419  -45.6327 C.2       7 UNK         0.5000 
     36 O           0.3029  -18.9018  -46.4009 O.2       7 UNK        -0.5000 
     37 CA          2.1630  -17.5101  -45.8196 C.3       7 UNK         0.1400 
     38 CB          2.1573  -16.1373  -46.5064 C.3       7 UNK        -0.1800 
     39 N           2.8817  -17.4293  -44.5477 N.am      7 UNK        -0.5000 
     40 C           3.2901  -18.4965  -43.8461 C.2       6 UNK         0.5000 
     41 O           3.1284  -19.6592  -44.2137 O.2       6 UNK        -0.5000 
     42 CA          3.9584  -18.2194  -42.4875 C.3       6 UNK         0.1400 
     43 CB          5.4409  -17.8633  -42.6739 C.3       6 UNK        -0.1800 
     44 N           3.2923  -17.1525  -41.7405 N.am      6 UNK        -0.5000 
     45 C           2.0473  -17.2351  -41.2507 C.2       5 UNK         0.5000 
     46 O           1.3371  -18.2344  -41.3497 O.2       5 UNK        -0.5000 
     47 CA          1.4839  -15.9700  -40.5791 C.3       5 UNK         0.1400 
     48 CB          1.8689  -15.9305  -39.0928 C.3       5 UNK        -0.1800 
     49 N           1.9092  -14.7252  -41.2261 N.am      5 UNK        -0.5000 
     50 C           1.6393  -14.3991  -42.4964 C.2       4 UNK         0.5000 
     51 O           1.0576  -15.1445  -43.2888 O.2       4 UNK        -0.5000 
     52 CA          2.1384  -13.0275  -42.9775 C.3       4 UNK         0.1400 
     53 CB          3.4027  -13.1865  -43.8360 C.3       4 UNK        -0.1800 
     54 N           1.1034  -12.3653  -43.7651 N.am      4 UNK        -0.5000 
     55 C          -0.0028  -11.8106  -43.2507 C.2       3 UNK         0.5000 
     56 O          -0.2008  -11.6724  -42.0427 O.2       3 UNK        -0.5000 
     57 CA         -1.0737  -11.3420  -44.2541 C.3       3 UNK         0.1400 
     58 CB         -0.8929   -9.8511  -44.5741 C.3       3 UNK        -0.1800 
     59 N          -1.0639  -12.1253  -45.4954 N.am      3 UNK        -0.5000 
     60 C          -1.5062  -13.3913  -45.5766 C.2       2 UNK         0.5000 
     61 O          -2.0287  -13.9769  -44.6288 O.2       2 UNK        -0.5000 
     62 CA         -1.3612  -14.1232  -46.9260 C.3       2 UNK         0.1400 
     63 CB         -2.5768  -15.0184  -47.2254 C.3       2 UNK        -0.1800 
     64 N          -1.1863  -13.1832  -48.0316 N.am      2 UNK        -0.5000 
     65 C          -0.0699  -13.0202  -48.7533 C.2       1 UNK         0.5000 
     66 O           0.9690  -13.6530  -48.5663 O.2       1 UNK        -0.5000 
     67 C          -2.8131  -22.6341  -47.2585 C.2       11 UNK         0.5000 
     68 O          -3.4061  -23.4554  -47.9623 O.2       11 UNK        -0.5000 
     69 N          -2.9676  -22.5491  -45.9283 N.am      12 UNK        -0.5000 
     70 CA         -3.8303  -23.4251  -45.1302 C.3       12 UNK         0.1400 
     71 CB         -3.8504  -22.9523  -43.6694 C.3       12 UNK        -0.1800 
     72 C          -3.4403  -24.9113  -45.2187 C.2       12 UNK         0.5000 
     73 O          -4.3215  -25.7603  -45.3557 O.2       12 UNK        -0.5000 
     74 N          -2.1319  -25.1941  -45.1672 N.am      13 UNK        -0.5000 
     75 CA         -1.5698  -26.5334  -45.3323 C.3       13 UNK         0.1400 
     76 CB         -0.0938  -26.5247  -44.9061 C.3       13 UNK        -0.1800 
     77 C          -1.7160  -27.0690  -46.7683 C.2       13 UNK         0.5000 
     78 O          -1.9633  -28.2631  -46.9418 O.2       13 UNK        -0.5000 
     79 N          -1.5549  -26.1860  -47.7643 N.am      14 UNK        -0.5000 
     80 CA         -1.6423  -26.5105  -49.1862 C.3       14 UNK         0.1400 
     81 CB         -1.1067  -25.3392  -50.0241 C.3       14 UNK        -0.1800 
     82 C          -3.0592  -26.9189  -49.6279 C.2       14 UNK         0.5000 
     83 O          -3.2089  -27.9832  -50.2304 O.2       14 UNK        -0.5000 
     84 N          -4.0663  -26.0900  -49.3138 N.am      15 UNK        -0.5000 
     85 CA         -5.4748  -26.3519  -49.6487 C.3       15 UNK         0.1400 
     86 CB         -5.7099  -26.2695  -51.1745 C.3       15 UNK        -0.1800 
     87 C          -6.4785  -25.4310  -48.9308 C.2       15 UNK         0.5000 
     88 O          -7.6721  -25.7317  -48.9610 O.2       15 UNK        -0.5000 
     89 N          -6.0123  -24.3191  -48.3422 N.am      16 UNK        -0.5000 
     90 CA         -6.8002  -23.2498  -47.7125 C.3       16 UNK         0.1400 
     91 CB         -7.6604  -23.7764  -46.5441 C.3       16 UNK        -0.1800 
     92 C          -7.5971  -22.3799  -48.7080 C.2       16 UNK         0.5000 
     93 O          -8.4544  -21.6018  -48.2857 O.2       16 UNK        -0.5000 
     94 N          -7.2672  -22.4794  -50.0028 N.am      17 UNK        -0.5000 
     95 CA         -7.6748  -21.5292  -51.0366 C.3       17 UNK         0.1400 
     96 CB         -7.5799  -22.2019  -52.4165 C.3       17 UNK        -0.1800 
     97 C          -6.7932  -20.2668  -50.9718 C.2       17 UNK         0.5000 
     98 O          -5.6929  -20.3104  -50.4143 O.2       17 UNK        -0.5000 
     99 N          -7.2881  -19.1723  -51.5634 N.am      18 UNK        -0.5000 
    100 CA        -6.7291  -17.8175  -51.4745 C.3       18 UNK         0.1400 
    101 CB        -7.6417  -16.8563  -52.2526 C.3       18 UNK        -0.1800 
    102 C         -5.2661  -17.6508  -51.9342 C.2       18 UNK         0.5000 
    103 O         -4.6096  -16.7145  -51.4816 O.2       18 UNK        -0.5000 
    104 N         -4.7870  -18.5421  -52.8099 N.am      19 UNK        -0.5000 
    105 CA        -3.4087  -18.5794  -53.2975 C.3       19 UNK         0.1400 
    106 CB        -3.2865  -17.7352  -54.5805 C.3       19 UNK        -0.1800 
    107 C         -2.9392  -20.0340  -53.4778 C.2       19 UNK         0.5000 
    108 O         -2.2035  -20.3291  -54.4199 O.2       19 UNK        -0.5000 
    109 N         -3.3827  -20.9232  -52.5758 N.am      20 UNK        -0.5000 
    110 CA        -3.1421  -22.3704  -52.5936 C.3       20 UNK         0.1400 
    111 CB        -3.7671  -22.9895  -51.3368 C.3       20 UNK        -0.1800 
    112 C         -1.6638  -22.7936  -52.6824 C.2       20 UNK         0.5000 
    113 O         -1.3493  -23.7507  -53.3898 O.2       20 UNK        -0.5000 
    114 N         -0.7923  -22.0846  -51.9551 N.am      21 UNK        -0.5000 
    115 CA         0.6453  -22.3582  -51.8978 C.3       21 UNK         0.1400 
    116 CB         1.1848  -21.8683  -50.5460 C.3       21 UNK        -0.1800 
    117 C          1.4380  -21.7260  -53.0577 C.2       21 UNK         0.5000 
    118 O          2.6264  -22.0186  -53.1997 O.2       21 UNK        -0.5000 
    119 N          0.7935  -20.8535  -53.8399 N.am      22 UNK        -0.5000 
    120 CA         1.3997  -20.1191  -54.9556 C.3       22 UNK         0.1400 
    121 C          1.4885  -20.9456  -56.2702 C.2       22 UNK         0.5000 
    122 N          2.2010  -20.4421  -57.2691 N.am      22 UNK        -0.7600 
    123 O          0.9167  -22.0250  -56.4078 O.2       22 UNK        -0.5000 
    124 C124        0.6918  -18.7496  -55.1527 C.3       23 UNK        -0.0398 
    125 S125        1.8667  -17.3553  -55.1477 S.3       23 UNK        -0.2404 
    126 C126        2.2129  -17.1771  -53.3606 C.3       23 UNK        -0.0205 
    127 H127       -1.3398   -7.8997  -48.1576 H         1 UNK         0.0600 
    128 H128       -2.5187   -9.0495  -47.5172 H         1 UNK         0.0600 
    129 H129       -2.4520   -8.7238  -49.2519 H         1 UNK         0.0600 
    130 H130       -1.7737  -10.6713  -50.1619 H         1 UNK         0.3000 
    131 H131        0.8979  -11.5309  -49.9230 H         1 UNK         0.0600 
    132 H132       -0.3154  -11.7817  -52.0148 H         1 UNK         0.0800 
    133 H133        0.2553  -13.3316  -51.4812 H         1 UNK         0.0800 
    134 H134       -1.7126  -14.0930  -53.5312 H         1 UNK         0.0800 
    135 H135       -2.9981  -14.9548  -52.7282 H         1 UNK         0.0800 
    136 H136        0.3186  -15.2573  -53.7485 H         1 UNK         0.1150 
    137 H137        1.3496  -18.4786  -51.1166 H         1 UNK         0.1150 
    138 H138       -2.2151  -16.1991  -50.4270 H         1 UNK         0.1150 
    139 H139        0.1516  -18.6788  -48.9851 H         1 UNK         0.0800 
    140 H140       -1.2199  -17.6517  -48.6272 H         1 UNK         0.0800 
    141 H141       -3.4918  -20.3237  -48.2413 H         1 UNK         0.0800 
    142 H142       -2.1605  -19.5741  -47.4143 H         1 UNK         0.0800 
    143 H143       -1.5439  -22.1502  -48.8719 H         1 UNK         0.0600 
    144 H144       -0.2916  -20.7070  -46.7622 H         1 UNK         0.3000 
    145 H145        1.8977  -23.4106  -45.7836 H         1 UNK         0.0600 
    146 H146        3.4860  -21.5626  -46.1823 H         1 UNK         0.0600 
    147 H147        2.8564  -22.1472  -47.7140 H         1 UNK         0.0600 
    148 H148        2.2550  -20.6390  -47.0410 H         1 UNK         0.0600 
    149 H149        1.5782  -20.8578  -44.6203 H         1 UNK         0.3000 
    150 H150       -0.9429  -21.7591  -42.2081 H         1 UNK         0.0600 
    151 H151        1.2811  -22.4901  -41.3172 H         1 UNK         0.0600 
    152 H152        0.8166  -20.9120  -40.7012 H         1 UNK         0.0600 
    153 H153        2.0254  -21.0383  -41.9777 H         1 UNK         0.0600 
    154 H154        0.3641  -19.2937  -42.6126 H         1 UNK         0.3000 
    155 H155       -1.9541  -17.9012  -44.9976 H         1 UNK         0.0600 
    156 H156       -2.7786  -17.5332  -42.6858 H         1 UNK         0.0600 
    157 H157       -1.8004  -16.1687  -43.2028 H         1 UNK         0.0600 
    158 H158       -1.1329  -17.3575  -42.0923 H         1 UNK         0.0600 
    159 H159        0.4637  -16.8276  -44.0216 H         1 UNK         0.3000 
    160 H160        2.6955  -18.2078  -46.4693 H         1 UNK         0.0600 
    161 H161        1.6559  -15.3816  -45.9021 H         1 UNK         0.0600 
    162 H162        1.6404  -16.1859  -47.4660 H         1 UNK         0.0600 
    163 H163        3.1714  -15.7895  -46.7027 H         1 UNK         0.0600 
    164 H164        2.9935  -16.5109  -44.1455 H         1 UNK         0.3000 
    165 H165        3.8993  -19.1351  -41.8952 H         1 UNK         0.0600 
    166 H166        5.9413  -17.7440  -41.7128 H         1 UNK         0.0600 
    167 H167        5.9654  -18.6510  -43.2165 H         1 UNK         0.0600 
    168 H168        5.5671  -16.9372  -43.2360 H         1 UNK         0.0600 
    169 H169        3.8035  -16.2917  -41.6138 H         1 UNK         0.3000 
    170 H170        0.3953  -16.0205  -40.6466 H         1 UNK         0.0600 
    171 H171        1.5461  -16.8388  -38.5820 H         1 UNK         0.0600 
    172 H172        2.9476  -15.8434  -38.9574 H         1 UNK         0.0600 
    173 H173        1.3969  -15.0892  -38.5850 H         1 UNK         0.0600 
    174 H174        2.3991  -14.0619  -40.6431 H         1 UNK         0.3000 
    175 H175        2.3793  -12.4042  -42.1137 H         1 UNK         0.0600 
    176 H176        3.2157  -13.7876  -44.7265 H         1 UNK         0.0600 
    177 H177        3.7811  -12.2172  -44.1613 H         1 UNK         0.0600 
    178 H178        4.1999  -13.6730  -43.2724 H         1 UNK         0.0600 
    179 H179        1.1624  -12.4686  -44.7667 H         1 UNK         0.3000 
    180 H180       -2.0486  -11.4653  -43.7776 H         1 UNK         0.0600 
    181 H181        0.0759   -9.6516  -45.0331 H         1 UNK         0.0600 
    182 H182       -0.9538   -9.2486  -43.6670 H         1 UNK         0.0600 
    183 H183       -1.6687   -9.4949  -45.2510 H         1 UNK         0.0600 
    184 H184       -0.6488  -11.6883  -46.3094 H         1 UNK         0.3000 
    185 H185       -0.4886  -14.7713  -46.8368 H         1 UNK         0.0600 
    186 H186       -2.6898  -15.7957  -46.4686 H         1 UNK         0.0600 
    187 H187       -3.5030  -14.4434  -47.2512 H         1 UNK         0.0600 
    188 H188       -2.4689  -15.5195  -48.1863 H         1 UNK         0.0600 
    189 H189       -1.9834  -12.6053  -48.2579 H         1 UNK         0.3000 
    190 H190       -2.4658  -21.8270  -45.4168 H         1 UNK         0.3000 
    191 H191       -4.8439  -23.3325  -45.5173 H         1 UNK         0.0600 
    192 H192       -4.2222  -21.9306  -43.5911 H         1 UNK         0.0600 
    193 H193       -4.5027  -23.5823  -43.0634 H         1 UNK         0.0600 
    194 H194       -2.8569  -22.9826  -43.2226 H         1 UNK         0.0600 
    195 H195       -1.4709  -24.4420  -44.9925 H         1 UNK         0.3000 
    196 H196       -2.1096  -27.2114  -44.6680 H         1 UNK         0.0600 
    197 H197        0.3496  -27.5158  -45.0088 H         1 UNK         0.0600 
    198 H198        0.0126  -26.2268  -43.8629 H         1 UNK         0.0600 
    199 H199        0.4955  -25.8352  -45.5117 H         1 UNK         0.0600 
    200 H200       -1.2815  -25.2359  -47.5329 H         1 UNK         0.3000 
    201 H201       -0.9880  -27.3657  -49.3679 H         1 UNK         0.0600 
    202 H202       -0.0488  -25.1667  -49.8265 H         1 UNK         0.0600 
    203 H203       -1.6363  -24.4124  -49.8096 H         1 UNK         0.0600 
    204 H204       -1.2079  -25.5403  -51.0912 H         1 UNK         0.0600 
    205 H205       -3.8514  -25.2565  -48.7783 H         1 UNK         0.3000 
    206 H206       -5.7062  -27.3671  -49.3200 H         1 UNK         0.0600 
    207 H207       -5.0850  -26.9686  -51.7285 H         1 UNK         0.0600 
    208 H208       -6.7438  -26.5139  -51.4221 H         1 UNK         0.0600 
    209 H209       -5.5173  -25.2706  -51.5618 H         1 UNK         0.0600 
    210 H210       -5.0139  -24.1279  -48.3502 H         1 UNK         0.3000 
    211 H211       -6.0654  -22.5668  -47.2869 H         1 UNK         0.0600 
    212 H212       -8.5114  -24.3599  -46.8953 H         1 UNK         0.0600 
    213 H213       -8.0574  -22.9520  -45.9510 H         1 UNK         0.0600 
    214 H214       -7.0756  -24.4059  -45.8733 H         1 UNK         0.0600 
    215 H215       -6.5262  -23.1174  -50.2452 H         1 UNK         0.3000 
    216 H216       -8.7138  -21.2406  -50.8633 H         1 UNK         0.0600 
    217 H217       -8.0024  -21.5599  -53.1903 H         1 UNK         0.0600 
    218 H218       -8.1371  -23.1387  -52.4375 H         1 UNK         0.0600 
    219 H219       -6.5521  -22.4174  -52.7056 H         1 UNK         0.0600 
    220 H220       -8.1831  -19.2431  -52.0258 H         1 UNK         0.3000 
    221 H221       -6.7588  -17.5316  -50.4211 H         1 UNK         0.0600 
    222 H222       -7.6903  -17.1180  -53.3103 H         1 UNK         0.0600 
    223 H223       -8.6570  -16.8651  -51.8557 H         1 UNK         0.0600 
    224 H224       -7.2787  -15.8296  -52.1853 H         1 UNK         0.0600 
    225 H225       -5.3958  -19.2825  -53.1281 H         1 UNK         0.3000 
    226 H226       -2.7469  -18.1518  -52.5442 H         1 UNK         0.0600 
    227 H227       -3.6176  -16.7107  -54.4118 H         1 UNK         0.0600 
    228 H228       -2.2529  -17.6846  -54.9231 H         1 UNK         0.0600 
    229 H229       -3.8852  -18.1514  -55.3912 H         1 UNK         0.0600 
    230 H230       -3.9511  -20.5780  -51.8104 H         1 UNK         0.3000 
    231 H231       -3.6518  -22.7765  -53.4693 H         1 UNK         0.0600 
    232 H232       -3.3850  -22.5195  -50.4321 H         1 UNK         0.0600 
    233 H233       -3.5487  -24.0551  -51.2749 H         1 UNK         0.0600 
    234 H234       -4.8468  -22.8791  -51.3310 H         1 UNK         0.0600 
    235 H235       -1.1331  -21.3028  -51.4109 H         1 UNK         0.3000 
    236 H236        0.8070  -23.4371  -51.9493 H         1 UNK         0.0600 
    237 H237        0.7189  -22.4167  -49.7312 H         1 UNK         0.0600 
    238 H238        2.2605  -22.0285  -50.4646 H         1 UNK         0.0600 
    239 H239        0.9963  -20.8059  -50.3919 H         1 UNK         0.0600 
    240 H240       -0.2068  -20.7438  -53.7295 H         1 UNK         0.3000 
    241 H241        2.4374  -19.9359  -54.6701 H         1 UNK         0.0600 
    242 H242        2.2700  -20.9581  -58.1328 H         1 UNK         0.3800 
    243 H243        2.6711  -19.5536  -57.1837 H         1 UNK         0.3800 
    244 H244        0.1207  -18.7154  -56.0824 H         1 UNK         0.0800 
    245 H245       -0.0481  -18.5696  -54.3727 H         1 UNK         0.0800 
    246 H246        2.7166  -18.0788  -53.0090 H         1 UNK         0.0800 
    247 H247        2.9188  -16.3576  -53.2207 H         1 UNK         0.0800 
@<TRIPOS>BOND
     1    1    2 1    
     2    1  127 1    
     3    1  128 1    
     4    1  129 1    
     5    2    3 2    
     6    2    4 am   BACKBONE|DICT|INTERRES
     7    4    5 1    
     8    4  130 1    
     9    5    6 1    
    10    5   65 1    
    11    5  131 1    
    12    6    7 1    
    13    6  132 1    
    14    6  133 1    
    15    7    8 1    
    16    8    9 1    
    17    8  134 1    
    18    8  135 1    
    19    9   10 ar   
    20    9   14 ar   
    21   10   11 ar   
    22   10  136 1    
    23   11   12 ar   
    24   11  126 1    
    25   12   13 ar   
    26   12  137 1    
    27   13   14 ar   
    28   13   15 1    
    29   14  138 1    
    30   15   16 1    
    31   15  139 1    
    32   15  140 1    
    33   16   17 1    
    34   17   18 1    
    35   17  141 1    
    36   17  142 1    
    37   18   19 1    
    38   18   67 1    
    39   18  143 1    
    40   19   20 am   BACKBONE|DICT|INTERRES
    41   19  144 1    
    42   20   21 2    
    43   20   22 1    
    44   22   23 1    
    45   22   24 1    
    46   22  145 1    
    47   23  146 1    
    48   23  147 1    
    49   23  148 1    
    50   24   25 am   BACKBONE|DICT|INTERRES
    51   24  149 1    
    52   25   26 2    
    53   25   27 1    
    54   27   28 1    
    55   27   29 1    
    56   27  150 1    
    57   28  151 1    
    58   28  152 1    
    59   28  153 1    
    60   29   30 am   BACKBONE|DICT|INTERRES
    61   29  154 1    
    62   30   31 2    
    63   30   32 1    
    64   32   33 1    
    65   32   34 1    
    66   32  155 1    
    67   33  156 1    
    68   33  157 1    
    69   33  158 1    
    70   34   35 am   BACKBONE|DICT|INTERRES
    71   34  159 1    
    72   35   36 2    
    73   35   37 1    
    74   37   38 1    
    75   37   39 1    
    76   37  160 1    
    77   38  161 1    
    78   38  162 1    
    79   38  163 1    
    80   39   40 am   BACKBONE|DICT|INTERRES
    81   39  164 1    
    82   40   41 2    
    83   40   42 1    
    84   42   43 1    
    85   42   44 1    
    86   42  165 1    
    87   43  166 1    
    88   43  167 1    
    89   43  168 1    
    90   44   45 am   BACKBONE|DICT|INTERRES
    91   44  169 1    
    92   45   46 2    
    93   45   47 1    
    94   47   48 1    
    95   47   49 1    
    96   47  170 1    
    97   48  171 1    
    98   48  172 1    
    99   48  173 1    
   100   49   50 am   BACKBONE|DICT|INTERRES
   101   49  174 1    
   102   50   51 2    
   103   50   52 1    
   104   52   53 1    
   105   52   54 1    
   106   52  175 1    
   107   53  176 1    
   108   53  177 1    
   109   53  178 1    
   110   54   55 am   BACKBONE|DICT|INTERRES
   111   54  179 1    
   112   55   56 2    
   113   55   57 1    
   114   57   58 1    
   115   57   59 1    
   116   57  180 1    
   117   58  181 1    
   118   58  182 1    
   119   58  183 1    
   120   59   60 am   BACKBONE|DICT|INTERRES
   121   59  184 1    
   122   60   61 2    
   123   60   62 1    
   124   62   63 1    
   125   62   64 1    
   126   62  185 1    
   127   63  186 1    
   128   63  187 1    
   129   63  188 1    
   130   64   65 am   BACKBONE|DICT|INTERRES
   131   64  189 1    
   132   65   66 2    
   133   67   68 2    
   134   67   69 am   BACKBONE|DICT|INTERRES
   135   69   70 1    
   136   69  190 1    
   137   70   71 1    
   138   70   72 1    
   139   70  191 1    
   140   71  192 1    
   141   71  193 1    
   142   71  194 1    
   143   72   73 2    
   144   72   74 am   BACKBONE|DICT|INTERRES
   145   74   75 1    
   146   74  195 1    
   147   75   76 1    
   148   75   77 1    
   149   75  196 1    
   150   76  197 1    
   151   76  198 1    
   152   76  199 1    
   153   77   78 2    
   154   77   79 am   BACKBONE|DICT|INTERRES
   155   79   80 1    
   156   79  200 1    
   157   80   81 1    
   158   80   82 1    
   159   80  201 1    
   160   81  202 1    
   161   81  203 1    
   162   81  204 1    
   163   82   83 2    
   164   82   84 am   BACKBONE|DICT|INTERRES
   165   84   85 1    
   166   84  205 1    
   167   85   86 1    
   168   85   87 1    
   169   85  206 1    
   170   86  207 1    
   171   86  208 1    
   172   86  209 1    
   173   87   88 2    
   174   87   89 am   BACKBONE|DICT|INTERRES
   175   89   90 1    
   176   89  210 1    
   177   90   91 1    
   178   90   92 1    
   179   90  211 1    
   180   91  212 1    
   181   91  213 1    
   182   91  214 1    
   183   92   93 2    
   184   92   94 am   BACKBONE|DICT|INTERRES
   185   94   95 1    
   186   94  215 1    
   187   95   96 1    
   188   95   97 1    
   189   95  216 1    
   190   96  217 1    
   191   96  218 1    
   192   96  219 1    
   193   97   98 2    
   194   97   99 am   BACKBONE|DICT|INTERRES
   195   99  100 1    
   196   99  220 1    
   197  100  101 1    
   198  100  102 1    
   199  100  221 1    
   200  101  222 1    
   201  101  223 1    
   202  101  224 1    
   203  102  103 2    
   204  102  104 am   BACKBONE|DICT|INTERRES
   205  104  105 1    
   206  104  225 1    
   207  105  106 1    
   208  105  107 1    
   209  105  226 1    
   210  106  227 1    
   211  106  228 1    
   212  106  229 1    
   213  107  108 2    
   214  107  109 am   BACKBONE|DICT|INTERRES
   215  109  110 1    
   216  109  230 1    
   217  110  111 1    
   218  110  112 1    
   219  110  231 1    
   220  111  232 1    
   221  111  233 1    
   222  111  234 1    
   223  112  113 2    
   224  112  114 am   BACKBONE|DICT|INTERRES
   225  114  115 1    
   226  114  235 1    
   227  115  116 1    
   228  115  117 1    
   229  115  236 1    
   230  116  237 1    
   231  116  238 1    
   232  116  239 1    
   233  117  118 2    
   234  117  119 am   BACKBONE|DICT|INTERRES
   235  119  120 1    
   236  119  240 1    
   237  120  121 1    
   238  120  124 1    
   239  120  241 1    
   240  121  122 am   BACKBONE|DICT|INTERRES
   241  121  123 2    
   242  122  242 1    
   243  122  243 1    
   244  124  125 1    
   245  124  244 1    
   246  124  245 1    
   247  125  126 1    
   248  126  246 1    
   249  126  247 1    
@<TRIPOS>SUBSTRUCTURE
     1 UNK         1 GROUP             0       ****    0 ROOT    
