@<TRIPOS>MOLECULE
3R540
247   249    1
SMALL
USER_CHARGES


@<TRIPOS>ATOM
      1 CA          1.2396  -11.5196  -46.2662 C.3       0 UNK        -0.1800 
      2 C           2.2549  -11.6253  -47.3960 C.2       0 UNK         0.5000 
      3 O           2.5651  -10.6216  -48.0378 O.2       0 UNK        -0.5000 
      4 N           2.7594  -12.8394  -47.6503 N.am      1 UNK        -0.5000 
      5 CA          3.7240  -13.1428  -48.7157 C.3       1 UNK         0.1400 
      6 C6          3.7149  -14.6553  -49.0566 C.3       23 UNK        -0.0398 
      7 S7          4.1316  -14.9797  -50.8026 S.3       23 UNK        -0.2404 
      8 C8          4.4072  -16.7871  -50.7809 C.3       23 UNK        -0.0205 
      9 C9          3.1810  -17.6577  -50.4896 C.ar      23 UNK        -0.0193 
     10 C10         1.8691  -17.1665  -50.5298 C.ar      23 UNK        -0.1150 
     11 C11         0.7829  -17.9962  -50.2423 C.ar      23 UNK        -0.0193 
     12 C12         1.0052  -19.3422  -49.9449 C.ar      23 UNK        -0.1150 
     13 C13         2.3053  -19.8559  -49.9191 C.ar      23 UNK        -0.0193 
     14 C14         3.3839  -19.0085  -50.1883 C.ar      23 UNK        -0.1150 
     15 C15         2.5459  -21.3302  -49.6245 C.3       23 UNK        -0.0205 
     16 S16         3.2094  -21.6279  -47.9496 S.3       23 UNK        -0.2404 
     17 C17         1.8767  -21.0093  -46.8651 C.3       23 UNK        -0.0398 
     18 CA          0.8778  -22.0991  -46.4037 C.3       11 UNK         0.1400 
     19 N           0.0819  -21.6573  -45.2564 N.am      11 UNK        -0.5000 
     20 C          -0.7827  -22.4175  -44.5696 C.2       10 UNK         0.5000 
     21 O          -0.9508  -23.6182  -44.7761 O.2       10 UNK        -0.5000 
     22 CA         -1.6484  -21.7065  -43.5127 C.3       10 UNK         0.1400 
     23 CB         -0.8928  -21.5693  -42.1832 C.3       10 UNK        -0.1800 
     24 N          -2.1161  -20.3932  -43.9622 N.am      10 UNK        -0.5000 
     25 C          -2.9394  -20.2042  -45.0045 C.2       9 UNK         0.5000 
     26 O          -3.4401  -21.1243  -45.6512 O.2       9 UNK        -0.5000 
     27 CA         -3.2095  -18.7487  -45.4291 C.3       9 UNK         0.1400 
     28 CB         -4.2874  -18.1102  -44.5412 C.3       9 UNK        -0.1800 
     29 N          -2.0001  -17.9238  -45.4136 N.am      9 UNK        -0.5000 
     30 C          -0.9365  -18.1251  -46.2047 C.2       8 UNK         0.5000 
     31 O          -0.8946  -18.9960  -47.0730 O.2       8 UNK        -0.5000 
     32 CA          0.3101  -17.2570  -45.9379 C.3       8 UNK         0.1400 
     33 CB          0.1804  -15.8696  -46.5832 C.3       8 UNK        -0.1800 
     34 N           0.5850  -17.1076  -44.5078 N.am      8 UNK        -0.5000 
     35 C           0.9132  -18.1180  -43.6908 C.2       7 UNK         0.5000 
     36 O           1.0884  -19.2728  -44.0740 O.2       7 UNK        -0.5000 
     37 CA          1.0060  -17.8010  -42.1893 C.3       7 UNK         0.1400 
     38 CB          2.3925  -17.2531  -41.8215 C.3       7 UNK        -0.1800 
     39 N          -0.0302  -16.8569  -41.7732 N.am      7 UNK        -0.5000 
     40 C          -1.3290  -17.1681  -41.6587 C.2       6 UNK         0.5000 
     41 O          -1.7778  -18.2978  -41.8520 O.2       6 UNK        -0.5000 
     42 CA         -2.2912  -16.0170  -41.3078 C.3       6 UNK         0.1400 
     43 CB         -2.3406  -15.7984  -39.7884 C.3       6 UNK        -0.1800 
     44 N          -1.9325  -14.7596  -41.9663 N.am      6 UNK        -0.5000 
     45 C          -1.9926  -14.5558  -43.2898 C.2       5 UNK         0.5000 
     46 O          -2.4109  -15.3921  -44.0886 O.2       5 UNK        -0.5000 
     47 CA         -1.4402  -13.2168  -43.8171 C.3       5 UNK         0.1400 
     48 CB         -2.5467  -12.1531  -43.8555 C.3       5 UNK        -0.1800 
     49 N          -0.2966  -12.7004  -43.0565 N.am      5 UNK        -0.5000 
     50 C           0.8585  -13.3530  -42.8691 C.2       4 UNK         0.5000 
     51 O           1.0652  -14.4953  -43.2835 O.2       4 UNK        -0.5000 
     52 CA          1.9251  -12.6206  -42.0298 C.3       4 UNK         0.1400 
     53 CB          1.5581  -12.6931  -40.5385 C.3       4 UNK        -0.1800 
     54 N           3.2835  -13.1471  -42.1940 N.am      4 UNK        -0.5000 
     55 C           3.9612  -13.2156  -43.3463 C.2       3 UNK         0.5000 
     56 O           3.5085  -12.8481  -44.4350 O.2       3 UNK        -0.5000 
     57 CA          5.3886  -13.7981  -43.2656 C.3       3 UNK         0.1400 
     58 CB          5.3532  -15.3049  -42.9629 C.3       3 UNK        -0.1800 
     59 N           6.0821  -13.5981  -44.5355 N.am      3 UNK        -0.5000 
     60 C           6.5833  -12.4277  -44.9547 C.2       2 UNK         0.5000 
     61 O           6.8009  -11.4612  -44.2233 O.2       2 UNK        -0.5000 
     62 CA          6.7586  -12.3032  -46.4720 C.3       2 UNK         0.1400 
     63 CB          7.9274  -13.1782  -46.9698 C.3       2 UNK        -0.1800 
     64 N           5.4843  -12.6902  -47.0775 N.am      2 UNK        -0.5000 
     65 C           5.1489  -12.6529  -48.3713 C.2       1 UNK         0.5000 
     66 O           5.8952  -12.2513  -49.2651 O.2       1 UNK        -0.5000 
     67 C          -0.0232  -22.5780  -47.5594 C.2       11 UNK         0.5000 
     68 O           0.1923  -23.6747  -48.0732 O.2       11 UNK        -0.5000 
     69 N          -1.0357  -21.7754  -47.9221 N.am      12 UNK        -0.5000 
     70 CA         -2.0238  -22.1102  -48.9505 C.3       12 UNK         0.1400 
     71 CB         -2.9499  -20.9107  -49.2045 C.3       12 UNK        -0.1800 
     72 C          -2.8348  -23.3735  -48.6092 C.2       12 UNK         0.5000 
     73 O          -3.0312  -24.2187  -49.4822 O.2       12 UNK        -0.5000 
     74 N          -3.2446  -23.5058  -47.3400 N.am      13 UNK        -0.5000 
     75 CA         -3.9225  -24.6883  -46.8095 C.3       13 UNK         0.1400 
     76 CB         -4.4175  -24.4076  -45.3829 C.3       13 UNK        -0.1800 
     77 C          -3.0390  -25.9496  -46.8530 C.2       13 UNK         0.5000 
     78 O          -3.5059  -26.9955  -47.3042 O.2       13 UNK        -0.5000 
     79 N          -1.7730  -25.8235  -46.4290 N.am      14 UNK        -0.5000 
     80 CA         -0.7692  -26.8919  -46.4565 C.3       14 UNK         0.1400 
     81 CB          0.4849  -26.4388  -45.6939 C.3       14 UNK        -0.1800 
     82 C          -0.4037  -27.3429  -47.8836 C.2       14 UNK         0.5000 
     83 O          -0.2179  -28.5379  -48.1160 O.2       14 UNK        -0.5000 
     84 N          -0.3442  -26.3853  -48.8181 N.am      15 UNK        -0.5000 
     85 CA         -0.1346  -26.6111  -50.2498 C.3       15 UNK         0.1400 
     86 CB          0.2829  -25.2821  -50.9012 C.3       15 UNK        -0.1800 
     87 C          -1.3679  -27.1948  -50.9712 C.2       15 UNK         0.5000 
     88 O          -1.2425  -27.6083  -52.1247 O.2       15 UNK        -0.5000 
     89 N          -2.5282  -27.2000  -50.2967 N.am      16 UNK        -0.5000 
     90 CA         -3.8511  -27.5964  -50.7879 C.3       16 UNK         0.1400 
     91 CB         -3.8910  -29.0988  -51.1362 C.3       16 UNK        -0.1800 
     92 C          -4.3568  -26.6915  -51.9311 C.2       16 UNK         0.5000 
     93 O          -5.0653  -27.1546  -52.8279 O.2       16 UNK        -0.5000 
     94 N          -4.0038  -25.4011  -51.8691 N.am      17 UNK        -0.5000 
     95 CA         -4.4103  -24.3594  -52.8076 C.3       17 UNK         0.1400 
     96 CB         -3.3519  -23.2410  -52.8015 C.3       17 UNK        -0.1800 
     97 C          -5.8195  -23.8491  -52.4558 C.2       17 UNK         0.5000 
     98 O          -5.9821  -22.7009  -52.0441 O.2       17 UNK        -0.5000 
     99 N          -6.8157  -24.7338  -52.5935 N.am      18 UNK        -0.5000 
    100 CA        -8.2282  -24.4519  -52.3270 C.3       18 UNK         0.1400 
    101 CB        -9.0125  -25.7725  -52.3237 C.3       18 UNK        -0.1800 
    102 C         -8.8394  -23.4566  -53.3316 C.2       18 UNK         0.5000 
    103 O         -9.7329  -22.6919  -52.9658 O.2       18 UNK        -0.5000 
    104 N         -8.3329  -23.4717  -54.5718 N.am      19 UNK        -0.5000 
    105 CA        -8.6315  -22.4808  -55.5994 C.3       19 UNK         0.1400 
    106 CB        -8.2575  -23.0499  -56.9768 C.3       19 UNK        -0.1800 
    107 C         -7.8514  -21.1886  -55.3065 C.2       19 UNK         0.5000 
    108 O         -6.6254  -21.2380  -55.1803 O.2       19 UNK        -0.5000 
    109 N         -8.5771  -20.0696  -55.1911 N.am      20 UNK        -0.5000 
    110 CA        -8.1252  -18.6987  -54.9128 C.3       20 UNK         0.1400 
    111 CB        -7.1684  -18.1856  -56.0064 C.3       20 UNK        -0.1800 
    112 C         -7.5267  -18.4721  -53.5092 C.2       20 UNK         0.5000 
    113 O         -7.8474  -17.4590  -52.8867 O.2       20 UNK        -0.5000 
    114 N         -6.6629  -19.3857  -53.0426 N.am      21 UNK        -0.5000 
    115 CA        -5.9658  -19.3839  -51.7477 C.3       21 UNK         0.1400 
    116 CB        -6.9547  -19.7135  -50.6108 C.3       21 UNK        -0.1800 
    117 C         -5.1613  -18.0907  -51.4867 C.2       21 UNK         0.5000 
    118 O         -5.1384  -17.5893  -50.3616 O.2       21 UNK        -0.5000 
    119 N         -4.5487  -17.5630  -52.5556 N.am      22 UNK        -0.5000 
    120 CA        -3.8494  -16.2669  -52.6233 C.3       22 UNK         0.1400 
    121 C         -4.7795  -15.0150  -52.5401 C.2       22 UNK         0.5000 
    122 N         -6.1002  -15.1441  -52.5874 N.am      22 UNK        -0.7600 
    123 O         -4.2941  -13.8891  -52.4674 O.2       22 UNK        -0.5000 
    124 C124       -2.6414  -16.1529  -51.6510 C.3       23 UNK        -0.0398 
    125 S125       -1.3870  -17.4584  -51.8782 S.3       23 UNK        -0.2404 
    126 C126       -0.6230  -17.4198  -50.2305 C.3       23 UNK        -0.0205 
    127 H127        0.3111  -11.0798  -46.6300 H         1 UNK         0.0600 
    128 H128        1.6301  -10.8888  -45.4677 H         1 UNK         0.0600 
    129 H129        1.0095  -12.4973  -45.8433 H         1 UNK         0.0600 
    130 H130        2.4863  -13.6121  -47.0609 H         1 UNK         0.3000 
    131 H131        3.3986  -12.5905  -49.6004 H         1 UNK         0.0600 
    132 H132        4.3810  -15.2222  -48.4030 H         1 UNK         0.0800 
    133 H133        2.7191  -15.0658  -48.8873 H         1 UNK         0.0800 
    134 H134        4.8053  -17.0788  -51.7535 H         1 UNK         0.0800 
    135 H135        5.1889  -17.0069  -50.0520 H         1 UNK         0.0800 
    136 H136        1.6756  -16.1340  -50.7794 H         1 UNK         0.1150 
    137 H137        0.1647  -19.9860  -49.7297 H         1 UNK         0.1150 
    138 H138        4.3887  -19.4073  -50.1655 H         1 UNK         0.1150 
    139 H139        1.6317  -21.9058  -49.7711 H         1 UNK         0.0800 
    140 H140        3.2585  -21.7233  -50.3510 H         1 UNK         0.0800 
    141 H141        1.3668  -20.1701  -47.3335 H         1 UNK         0.0800 
    142 H142        2.3758  -20.5896  -45.9912 H         1 UNK         0.0800 
    143 H143        1.4559  -22.9608  -46.0631 H         1 UNK         0.0600 
    144 H144        0.2092  -20.6917  -44.9661 H         1 UNK         0.3000 
    145 H145       -2.5290  -22.3270  -43.3351 H         1 UNK         0.0600 
    146 H146       -1.5209  -21.1134  -41.4177 H         1 UNK         0.0600 
    147 H147       -0.5824  -22.5461  -41.8103 H         1 UNK         0.0600 
    148 H148        0.0038  -20.9596  -42.2877 H         1 UNK         0.0600 
    149 H149       -1.7896  -19.5873  -43.4398 H         1 UNK         0.3000 
    150 H150       -3.5848  -18.7678  -46.4545 H         1 UNK         0.0600 
    151 H151       -5.2039  -18.7013  -44.5535 H         1 UNK         0.0600 
    152 H152       -4.5414  -17.1090  -44.8896 H         1 UNK         0.0600 
    153 H153       -3.9615  -18.0302  -43.5041 H         1 UNK         0.0600 
    154 H154       -1.9908  -17.1411  -44.7658 H         1 UNK         0.3000 
    155 H155        1.1683  -17.7587  -46.3899 H         1 UNK         0.0600 
    156 H156        1.0474  -15.2482  -46.3596 H         1 UNK         0.0600 
    157 H157        0.1099  -15.9516  -47.6670 H         1 UNK         0.0600 
    158 H158       -0.7080  -15.3430  -46.2356 H         1 UNK         0.0600 
    159 H159        0.5208  -16.1730  -44.1150 H         1 UNK         0.3000 
    160 H160        0.8600  -18.7337  -41.6407 H         1 UNK         0.0600 
    161 H161        2.6119  -16.3230  -42.3435 H         1 UNK         0.0600 
    162 H162        3.1746  -17.9664  -42.0845 H         1 UNK         0.0600 
    163 H163        2.4713  -17.0633  -40.7511 H         1 UNK         0.0600 
    164 H164        0.2505  -15.8901  -41.6897 H         1 UNK         0.3000 
    165 H165       -3.2897  -16.3042  -41.6442 H         1 UNK         0.0600 
    166 H166       -3.0762  -15.0388  -39.5232 H         1 UNK         0.0600 
    167 H167       -2.6225  -16.7167  -39.2715 H         1 UNK         0.0600 
    168 H168       -1.3739  -15.4827  -39.3939 H         1 UNK         0.0600 
    169 H169       -1.5769  -14.0191  -41.3803 H         1 UNK         0.3000 
    170 H170       -1.1013  -13.3875  -44.8402 H         1 UNK         0.0600 
    171 H171       -3.4040  -12.5020  -44.4330 H         1 UNK         0.0600 
    172 H172       -2.9031  -11.9060  -42.8548 H         1 UNK         0.0600 
    173 H173       -2.1941  -11.2341  -44.3242 H         1 UNK         0.0600 
    174 H174       -0.4010  -11.7730  -42.6708 H         1 UNK         0.3000 
    175 H175        1.9381  -11.5743  -42.3415 H         1 UNK         0.0600 
    176 H176        1.5465  -13.7227  -40.1778 H         1 UNK         0.0600 
    177 H177        2.2682  -12.1330  -39.9297 H         1 UNK         0.0600 
    178 H178        0.5714  -12.2683  -40.3499 H         1 UNK         0.0600 
    179 H179        3.7244  -13.4950  -41.3558 H         1 UNK         0.3000 
    180 H180        5.9341  -13.2851  -42.4708 H         1 UNK         0.0600 
    181 H181        4.7572  -15.8502  -43.6960 H         1 UNK         0.0600 
    182 H182        4.9250  -15.4984  -41.9790 H         1 UNK         0.0600 
    183 H183        6.3568  -15.7308  -42.9637 H         1 UNK         0.0600 
    184 H184        5.9500  -14.3259  -45.2219 H         1 UNK         0.3000 
    185 H185        6.9594  -11.2577  -46.7138 H         1 UNK         0.0600 
    186 H186        8.8434  -12.9503  -46.4233 H         1 UNK         0.0600 
    187 H187        7.7230  -14.2415  -46.8408 H         1 UNK         0.0600 
    188 H188        8.1361  -13.0054  -48.0252 H         1 UNK         0.0600 
    189 H189        4.7595  -12.9307  -46.4101 H         1 UNK         0.3000 
    190 H190       -1.1308  -20.8689  -47.4715 H         1 UNK         0.3000 
    191 H191       -1.4784  -22.3133  -49.8743 H         1 UNK         0.0600 
    192 H192       -3.4742  -20.6044  -48.2997 H         1 UNK         0.0600 
    193 H193       -3.7053  -21.1507  -49.9537 H         1 UNK         0.0600 
    194 H194       -2.3907  -20.0518  -49.5732 H         1 UNK         0.0600 
    195 H195       -3.0861  -22.7383  -46.6933 H         1 UNK         0.3000 
    196 H196       -4.7963  -24.8755  -47.4371 H         1 UNK         0.0600 
    197 H197       -4.9612  -25.2643  -44.9831 H         1 UNK         0.0600 
    198 H198       -5.0943  -23.5532  -45.3621 H         1 UNK         0.0600 
    199 H199       -3.5931  -24.1958  -44.7024 H         1 UNK         0.0600 
    200 H200       -1.4748  -24.9351  -46.0331 H         1 UNK         0.3000 
    201 H201       -1.1890  -27.7549  -45.9357 H         1 UNK         0.0600 
    202 H202        0.2503  -26.2019  -44.6560 H         1 UNK         0.0600 
    203 H203        0.9322  -25.5529  -46.1457 H         1 UNK         0.0600 
    204 H204        1.2430  -27.2228  -45.6854 H         1 UNK         0.0600 
    205 H205       -0.4289  -25.4151  -48.5241 H         1 UNK         0.3000 
    206 H206        0.6834  -27.3239  -50.3705 H         1 UNK         0.0600 
    207 H207        1.1866  -24.8828  -50.4404 H         1 UNK         0.0600 
    208 H208        0.4911  -25.4124  -51.9639 H         1 UNK         0.0600 
    209 H209       -0.5003  -24.5286  -50.8102 H         1 UNK         0.0600 
    210 H210       -2.5186  -26.8243  -49.3570 H         1 UNK         0.3000 
    211 H211       -4.5380  -27.4364  -49.9559 H         1 UNK         0.0600 
    212 H212       -3.2855  -29.3302  -52.0127 H         1 UNK         0.0600 
    213 H213       -4.9102  -29.4223  -51.3504 H         1 UNK         0.0600 
    214 H214       -3.5270  -29.7046  -50.3063 H         1 UNK         0.0600 
    215 H215       -3.4984  -25.0796  -51.0455 H         1 UNK         0.3000 
    216 H216       -4.4483  -24.7753  -53.8165 H         1 UNK         0.0600 
    217 H217       -2.3698  -23.6266  -53.0758 H         1 UNK         0.0600 
    218 H218       -3.2642  -22.7718  -51.8219 H         1 UNK         0.0600 
    219 H219       -3.6080  -22.4592  -53.5177 H         1 UNK         0.0600 
    220 H220       -6.5773  -25.6742  -52.8877 H         1 UNK         0.3000 
    221 H221       -8.3030  -24.0058  -51.3330 H         1 UNK         0.0600 
    222 H222       -8.6308  -26.4558  -51.5647 H         1 UNK         0.0600 
    223 H223       -8.9557  -26.2771  -53.2890 H         1 UNK         0.0600 
    224 H224      -10.0670  -25.5998  -52.1042 H         1 UNK         0.0600 
    225 H225       -7.5749  -24.1082  -54.7674 H         1 UNK         0.3000 
    226 H226       -9.7037  -22.2725  -55.5949 H         1 UNK         0.0600 
    227 H227       -8.8218  -23.9568  -57.1949 H         1 UNK         0.0600 
    228 H228       -8.4781  -22.3314  -57.7672 H         1 UNK         0.0600 
    229 H229       -7.1957  -23.2921  -57.0405 H         1 UNK         0.0600 
    230 H230       -9.5804  -20.1637  -55.2717 H         1 UNK         0.3000 
    231 H231       -9.0260  -18.0847  -54.9622 H         1 UNK         0.0600 
    232 H232       -6.2281  -18.7372  -56.0214 H         1 UNK         0.0600 
    233 H233       -6.9244  -17.1346  -55.8462 H         1 UNK         0.0600 
    234 H234       -7.6204  -18.2667  -56.9949 H         1 UNK         0.0600 
    235 H235       -6.4616  -20.1754  -53.6523 H         1 UNK         0.3000 
    236 H236       -5.2299  -20.1871  -51.7932 H         1 UNK         0.0600 
    237 H237       -6.4316  -19.8445  -49.6628 H         1 UNK         0.0600 
    238 H238       -7.6922  -18.9218  -50.4751 H         1 UNK         0.0600 
    239 H239       -7.4908  -20.6407  -50.8140 H         1 UNK         0.0600 
    240 H240       -4.6377  -18.0516  -53.4343 H         1 UNK         0.3000 
    241 H241       -3.4425  -16.2250  -53.6341 H         1 UNK         0.0600 
    242 H242       -6.6721  -14.3158  -52.5444 H         1 UNK         0.3800 
    243 H243       -6.5504  -16.0526  -52.6415 H         1 UNK         0.3800 
    244 H244       -2.9869  -16.1568  -50.6165 H         1 UNK         0.0800 
    245 H245       -2.1294  -15.1993  -51.7904 H         1 UNK         0.0800 
    246 H246       -1.2551  -17.9595  -49.5251 H         1 UNK         0.0800 
    247 H247       -0.5834  -16.3887  -49.8774 H         1 UNK         0.0800 
@<TRIPOS>BOND
     1    1    2 1    
     2    1  127 1    
     3    1  128 1    
     4    1  129 1    
     5    2    3 2    
     6    2    4 am   BACKBONE|DICT|INTERRES
     7    4    5 1    
     8    4  130 1    
     9    5    6 1    
    10    5   65 1    
    11    5  131 1    
    12    6    7 1    
    13    6  132 1    
    14    6  133 1    
    15    7    8 1    
    16    8    9 1    
    17    8  134 1    
    18    8  135 1    
    19    9   10 ar   
    20    9   14 ar   
    21   10   11 ar   
    22   10  136 1    
    23   11   12 ar   
    24   11  126 1    
    25   12   13 ar   
    26   12  137 1    
    27   13   14 ar   
    28   13   15 1    
    29   14  138 1    
    30   15   16 1    
    31   15  139 1    
    32   15  140 1    
    33   16   17 1    
    34   17   18 1    
    35   17  141 1    
    36   17  142 1    
    37   18   19 1    
    38   18   67 1    
    39   18  143 1    
    40   19   20 am   BACKBONE|DICT|INTERRES
    41   19  144 1    
    42   20   21 2    
    43   20   22 1    
    44   22   23 1    
    45   22   24 1    
    46   22  145 1    
    47   23  146 1    
    48   23  147 1    
    49   23  148 1    
    50   24   25 am   BACKBONE|DICT|INTERRES
    51   24  149 1    
    52   25   26 2    
    53   25   27 1    
    54   27   28 1    
    55   27   29 1    
    56   27  150 1    
    57   28  151 1    
    58   28  152 1    
    59   28  153 1    
    60   29   30 am   BACKBONE|DICT|INTERRES
    61   29  154 1    
    62   30   31 2    
    63   30   32 1    
    64   32   33 1    
    65   32   34 1    
    66   32  155 1    
    67   33  156 1    
    68   33  157 1    
    69   33  158 1    
    70   34   35 am   BACKBONE|DICT|INTERRES
    71   34  159 1    
    72   35   36 2    
    73   35   37 1    
    74   37   38 1    
    75   37   39 1    
    76   37  160 1    
    77   38  161 1    
    78   38  162 1    
    79   38  163 1    
    80   39   40 am   BACKBONE|DICT|INTERRES
    81   39  164 1    
    82   40   41 2    
    83   40   42 1    
    84   42   43 1    
    85   42   44 1    
    86   42  165 1    
    87   43  166 1    
    88   43  167 1    
    89   43  168 1    
    90   44   45 am   BACKBONE|DICT|INTERRES
    91   44  169 1    
    92   45   46 2    
    93   45   47 1    
    94   47   48 1    
    95   47   49 1    
    96   47  170 1    
    97   48  171 1    
    98   48  172 1    
    99   48  173 1    
   100   49   50 am   BACKBONE|DICT|INTERRES
   101   49  174 1    
   102   50   51 2    
   103   50   52 1    
   104   52   53 1    
   105   52   54 1    
   106   52  175 1    
   107   53  176 1    
   108   53  177 1    
   109   53  178 1    
   110   54   55 am   BACKBONE|DICT|INTERRES
   111   54  179 1    
   112   55   56 2    
   113   55   57 1    
   114   57   58 1    
   115   57   59 1    
   116   57  180 1    
   117   58  181 1    
   118   58  182 1    
   119   58  183 1    
   120   59   60 am   BACKBONE|DICT|INTERRES
   121   59  184 1    
   122   60   61 2    
   123   60   62 1    
   124   62   63 1    
   125   62   64 1    
   126   62  185 1    
   127   63  186 1    
   128   63  187 1    
   129   63  188 1    
   130   64   65 am   BACKBONE|DICT|INTERRES
   131   64  189 1    
   132   65   66 2    
   133   67   68 2    
   134   67   69 am   BACKBONE|DICT|INTERRES
   135   69   70 1    
   136   69  190 1    
   137   70   71 1    
   138   70   72 1    
   139   70  191 1    
   140   71  192 1    
   141   71  193 1    
   142   71  194 1    
   143   72   73 2    
   144   72   74 am   BACKBONE|DICT|INTERRES
   145   74   75 1    
   146   74  195 1    
   147   75   76 1    
   148   75   77 1    
   149   75  196 1    
   150   76  197 1    
   151   76  198 1    
   152   76  199 1    
   153   77   78 2    
   154   77   79 am   BACKBONE|DICT|INTERRES
   155   79   80 1    
   156   79  200 1    
   157   80   81 1    
   158   80   82 1    
   159   80  201 1    
   160   81  202 1    
   161   81  203 1    
   162   81  204 1    
   163   82   83 2    
   164   82   84 am   BACKBONE|DICT|INTERRES
   165   84   85 1    
   166   84  205 1    
   167   85   86 1    
   168   85   87 1    
   169   85  206 1    
   170   86  207 1    
   171   86  208 1    
   172   86  209 1    
   173   87   88 2    
   174   87   89 am   BACKBONE|DICT|INTERRES
   175   89   90 1    
   176   89  210 1    
   177   90   91 1    
   178   90   92 1    
   179   90  211 1    
   180   91  212 1    
   181   91  213 1    
   182   91  214 1    
   183   92   93 2    
   184   92   94 am   BACKBONE|DICT|INTERRES
   185   94   95 1    
   186   94  215 1    
   187   95   96 1    
   188   95   97 1    
   189   95  216 1    
   190   96  217 1    
   191   96  218 1    
   192   96  219 1    
   193   97   98 2    
   194   97   99 am   BACKBONE|DICT|INTERRES
   195   99  100 1    
   196   99  220 1    
   197  100  101 1    
   198  100  102 1    
   199  100  221 1    
   200  101  222 1    
   201  101  223 1    
   202  101  224 1    
   203  102  103 2    
   204  102  104 am   BACKBONE|DICT|INTERRES
   205  104  105 1    
   206  104  225 1    
   207  105  106 1    
   208  105  107 1    
   209  105  226 1    
   210  106  227 1    
   211  106  228 1    
   212  106  229 1    
   213  107  108 2    
   214  107  109 am   BACKBONE|DICT|INTERRES
   215  109  110 1    
   216  109  230 1    
   217  110  111 1    
   218  110  112 1    
   219  110  231 1    
   220  111  232 1    
   221  111  233 1    
   222  111  234 1    
   223  112  113 2    
   224  112  114 am   BACKBONE|DICT|INTERRES
   225  114  115 1    
   226  114  235 1    
   227  115  116 1    
   228  115  117 1    
   229  115  236 1    
   230  116  237 1    
   231  116  238 1    
   232  116  239 1    
   233  117  118 2    
   234  117  119 am   BACKBONE|DICT|INTERRES
   235  119  120 1    
   236  119  240 1    
   237  120  121 1    
   238  120  124 1    
   239  120  241 1    
   240  121  122 am   BACKBONE|DICT|INTERRES
   241  121  123 2    
   242  122  242 1    
   243  122  243 1    
   244  124  125 1    
   245  124  244 1    
   246  124  245 1    
   247  125  126 1    
   248  126  246 1    
   249  126  247 1    
@<TRIPOS>SUBSTRUCTURE
     1 UNK         1 GROUP             0       ****    0 ROOT    
