@<TRIPOS>MOLECULE
3R540
247   249    1
SMALL
USER_CHARGES


@<TRIPOS>ATOM
      1 CA         -4.8537  -12.4798  -48.1624 C.3       0 UNK        -0.1800 
      2 C          -3.4546  -12.6867  -47.6017 C.2       0 UNK         0.5000 
      3 O          -3.0870  -12.0484  -46.6158 O.2       0 UNK        -0.5000 
      4 N          -2.6766  -13.5908  -48.2122 N.am      1 UNK        -0.5000 
      5 CA         -1.2810  -13.8979  -47.8585 C.3       1 UNK         0.1400 
      6 C6         -0.6166  -14.8418  -48.8887 C.3       23 UNK        -0.0398 
      7 S7         -0.6943  -14.2035  -50.6004 S.3       23 UNK        -0.2404 
      8 C8          0.8058  -14.9252  -51.3423 C.3       23 UNK        -0.0205 
      9 C9          0.7579  -16.4451  -51.3297 C.ar      23 UNK        -0.0193 
     10 C10         0.0661  -17.1417  -52.3229 C.ar      23 UNK        -0.1150 
     11 C11        -0.0332  -18.5352  -52.2731 C.ar      23 UNK        -0.0193 
     12 C12         0.5627  -19.2307  -51.2158 C.ar      23 UNK        -0.1150 
     13 C13         1.2916  -18.5461  -50.2351 C.ar      23 UNK        -0.0193 
     14 C14         1.3850  -17.1549  -50.3045 C.ar      23 UNK        -0.1150 
     15 C15         1.9225  -19.2485  -49.0391 C.3       23 UNK        -0.0205 
     16 S16         2.4081  -20.9873  -49.3076 S.3       23 UNK        -0.2404 
     17 C17         2.3784  -21.5714  -47.5716 C.3       23 UNK        -0.0398 
     18 CA          1.1141  -22.3468  -47.0920 C.3       11 UNK         0.1400 
     19 N           0.9748  -22.2813  -45.6333 N.am      11 UNK        -0.5000 
     20 C           0.1071  -22.9988  -44.9048 C.2       10 UNK         0.5000 
     21 O          -0.6483  -23.8490  -45.3771 O.2       10 UNK        -0.5000 
     22 CA          0.0377  -22.6736  -43.4008 C.3       10 UNK         0.1400 
     23 CB          1.2156  -23.3070  -42.6456 C.3       10 UNK        -0.1800 
     24 N           0.0002  -21.2335  -43.1379 N.am      10 UNK        -0.5000 
     25 C          -0.9872  -20.4184  -43.5350 C.2       9 UNK         0.5000 
     26 O          -1.9936  -20.8037  -44.1281 O.2       9 UNK        -0.5000 
     27 CA         -0.8003  -18.9125  -43.2828 C.3       9 UNK         0.1400 
     28 CB         -1.1576  -18.5339  -41.8390 C.3       9 UNK        -0.1800 
     29 N           0.5477  -18.4425  -43.6053 N.am      9 UNK        -0.5000 
     30 C           1.0880  -18.4864  -44.8309 C.2       8 UNK         0.5000 
     31 O           0.4836  -18.8739  -45.8265 O.2       8 UNK        -0.5000 
     32 CA          2.5689  -18.0995  -44.9624 C.3       8 UNK         0.1400 
     33 CB          2.7364  -16.5771  -45.0777 C.3       8 UNK        -0.1800 
     34 N           3.3615  -18.6191  -43.8483 N.am      8 UNK        -0.5000 
     35 C           3.6174  -19.9211  -43.6489 C.2       7 UNK         0.5000 
     36 O           3.2553  -20.8144  -44.4151 O.2       7 UNK        -0.5000 
     37 CA          4.3607  -20.2892  -42.3516 C.3       7 UNK         0.1400 
     38 CB          5.8768  -20.1210  -42.5296 C.3       7 UNK        -0.1800 
     39 N           3.9145  -19.4921  -41.2082 N.am      7 UNK        -0.5000 
     40 C           2.6887  -19.5598  -40.6689 C.2       6 UNK         0.5000 
     41 O           1.8252  -20.3551  -41.0380 O.2       6 UNK        -0.5000 
     42 CA          2.3557  -18.5276  -39.5729 C.3       6 UNK         0.1400 
     43 CB          2.7374  -19.0698  -38.1878 C.3       6 UNK        -0.1800 
     44 N           3.0059  -17.2292  -39.7842 N.am      6 UNK        -0.5000 
     45 C           2.7994  -16.4417  -40.8485 C.2       5 UNK         0.5000 
     46 O           2.0212  -16.7276  -41.7606 O.2       5 UNK        -0.5000 
     47 CA          3.6747  -15.1767  -40.9390 C.3       5 UNK         0.1400 
     48 CB          5.1000  -15.5543  -41.3766 C.3       5 UNK        -0.1800 
     49 N           3.1568  -14.1837  -41.8818 N.am      5 UNK        -0.5000 
     50 C           2.0383  -13.4654  -41.7194 C.2       4 UNK         0.5000 
     51 O           1.3243  -13.5539  -40.7182 O.2       4 UNK        -0.5000 
     52 CA          1.6877  -12.4510  -42.8355 C.3       4 UNK         0.1400 
     53 CB          2.4788  -12.6564  -44.1437 C.3       4 UNK        -0.1800 
     54 N           0.2602  -12.4717  -43.1484 N.am      4 UNK        -0.5000 
     55 C          -0.6951  -11.8175  -42.4710 C.2       3 UNK         0.5000 
     56 O          -0.4617  -11.0339  -41.5490 O.2       3 UNK        -0.5000 
     57 CA         -2.1617  -12.0536  -42.8961 C.3       3 UNK         0.1400 
     58 CB         -2.7337  -10.7999  -43.5760 C.3       3 UNK        -0.1800 
     59 N          -2.3381  -13.2007  -43.7905 N.am      3 UNK        -0.5000 
     60 C          -2.2155  -14.4838  -43.4175 C.2       2 UNK         0.5000 
     61 O          -2.0360  -14.8323  -42.2511 O.2       2 UNK        -0.5000 
     62 CA         -2.2850  -15.5649  -44.5164 C.3       2 UNK         0.1400 
     63 CB         -3.5713  -16.3948  -44.3790 C.3       2 UNK        -0.1800 
     64 N          -2.1999  -15.0489  -45.8831 N.am      2 UNK        -0.5000 
     65 C          -1.1216  -14.4690  -46.4301 C.2       1 UNK         0.5000 
     66 O          -0.0502  -14.3399  -45.8376 O.2       1 UNK        -0.5000 
     67 C          -0.2019  -21.9411  -47.7959 C.2       11 UNK         0.5000 
     68 O          -0.6612  -22.6630  -48.6808 O.2       11 UNK        -0.5000 
     69 N          -0.8037  -20.8214  -47.3692 N.am      12 UNK        -0.5000 
     70 CA         -2.0648  -20.3085  -47.8976 C.3       12 UNK         0.1400 
     71 CB         -2.3642  -18.9244  -47.3049 C.3       12 UNK        -0.1800 
     72 C          -3.2336  -21.2751  -47.6586 C.2       12 UNK         0.5000 
     73 O          -4.0033  -21.5145  -48.5867 O.2       12 UNK        -0.5000 
     74 N          -3.3235  -21.8468  -46.4496 N.am      13 UNK        -0.5000 
     75 CA         -4.3105  -22.8630  -46.0809 C.3       13 UNK         0.1400 
     76 CB         -4.2013  -23.1768  -44.5815 C.3       13 UNK        -0.1800 
     77 C          -4.1845  -24.1465  -46.9209 C.2       13 UNK         0.5000 
     78 O          -5.1971  -24.6484  -47.4109 O.2       13 UNK        -0.5000 
     79 N          -2.9456  -24.6204  -47.1221 N.am      14 UNK        -0.5000 
     80 CA         -2.6223  -25.7544  -47.9931 C.3       14 UNK         0.1400 
     81 CB         -1.1400  -26.1224  -47.8298 C.3       14 UNK        -0.1800 
     82 C          -2.9627  -25.4899  -49.4736 C.2       14 UNK         0.5000 
     83 O          -3.3985  -26.4056  -50.1713 O.2       14 UNK        -0.5000 
     84 N          -2.8103  -24.2322  -49.9071 N.am      15 UNK        -0.5000 
     85 CA         -3.1817  -23.7280  -51.2285 C.3       15 UNK         0.1400 
     86 CB         -2.2130  -22.5987  -51.6199 C.3       15 UNK        -0.1800 
     87 C          -4.6599  -23.2819  -51.3255 C.2       15 UNK         0.5000 
     88 O          -4.9952  -22.5141  -52.2290 O.2       15 UNK        -0.5000 
     89 N          -5.5168  -23.7601  -50.4096 N.am      16 UNK        -0.5000 
     90 CA         -6.9707  -23.5663  -50.3624 C.3       16 UNK         0.1400 
     91 CB         -7.6471  -24.2743  -51.5555 C.3       16 UNK        -0.1800 
     92 C          -7.3830  -22.0862  -50.2232 C.2       16 UNK         0.5000 
     93 O          -8.2311  -21.6037  -50.9739 O.2       16 UNK        -0.5000 
     94 N          -6.7552  -21.4011  -49.2585 N.am      17 UNK        -0.5000 
     95 CA         -6.8441  -19.9645  -48.9739 C.3       17 UNK         0.1400 
     96 CB         -8.2873  -19.5239  -48.6479 C.3       17 UNK        -0.1800 
     97 C          -6.1679  -19.1252  -50.0764 C.2       17 UNK         0.5000 
     98 O          -6.7099  -18.1057  -50.5065 O.2       17 UNK        -0.5000 
     99 N          -4.9803  -19.5871  -50.4977 N.am      18 UNK        -0.5000 
    100 CA        -4.0991  -19.0054  -51.5153 C.3       18 UNK         0.1400 
    101 CB        -3.4826  -17.6849  -51.0060 C.3       18 UNK        -0.1800 
    102 C         -4.7670  -18.8701  -52.9012 C.2       18 UNK         0.5000 
    103 O         -4.5315  -17.8927  -53.6135 O.2       18 UNK        -0.5000 
    104 N         -5.5764  -19.8672  -53.2796 N.am      19 UNK        -0.5000 
    105 CA        -6.3857  -19.8970  -54.5002 C.3       19 UNK         0.1400 
    106 CB        -7.6209  -20.7783  -54.2458 C.3       19 UNK        -0.1800 
    107 C         -5.5800  -20.3470  -55.7377 C.2       19 UNK         0.5000 
    108 O         -6.0311  -21.2135  -56.4876 O.2       19 UNK        -0.5000 
    109 N         -4.3834  -19.7674  -55.9129 N.am      20 UNK        -0.5000 
    110 CA        -3.4111  -19.9728  -56.9987 C.3       20 UNK         0.1400 
    111 CB        -4.0101  -19.5518  -58.3554 C.3       20 UNK        -0.1800 
    112 C         -2.7795  -21.3818  -57.0737 C.2       20 UNK         0.5000 
    113 O         -1.9026  -21.6039  -57.9107 O.2       20 UNK        -0.5000 
    114 N         -3.1784  -22.2983  -56.1802 N.am      21 UNK        -0.5000 
    115 CA        -2.6951  -23.6809  -56.0890 C.3       21 UNK         0.1400 
    116 CB        -3.5969  -24.4518  -55.1150 C.3       21 UNK        -0.1800 
    117 C         -1.2090  -23.8035  -55.6903 C.2       21 UNK         0.5000 
    118 O         -0.6166  -24.8687  -55.8660 O.2       21 UNK        -0.5000 
    119 N         -0.6311  -22.7031  -55.1961 N.am      22 UNK        -0.5000 
    120 CA         0.8117  -22.4899  -55.0253 C.3       22 UNK         0.1400 
    121 C          1.6260  -22.4289  -56.3549 C.2       22 UNK         0.5000 
    122 N          1.0069  -22.2379  -57.5156 N.am      22 UNK        -0.7600 
    123 O          2.8457  -22.5695  -56.3309 O.2       22 UNK        -0.5000 
    124 C124        1.0877  -21.2478  -54.1383 C.3       23 UNK        -0.0398 
    125 S125        0.2737  -19.7231  -54.7503 S.3       23 UNK        -0.2404 
    126 C126       -0.8024  -19.2778  -53.3541 C.3       23 UNK        -0.0205 
    127 H127       -5.5998  -12.7046  -47.4002 H         1 UNK         0.0600 
    128 H128       -5.0438  -13.1193  -49.0247 H         1 UNK         0.0600 
    129 H129       -4.9830  -11.4428  -48.4723 H         1 UNK         0.0600 
    130 H130       -3.0280  -14.0711  -49.0285 H         1 UNK         0.3000 
    131 H131       -0.7352  -12.9520  -47.8744 H         1 UNK         0.0600 
    132 H132        0.4309  -14.9900  -48.6216 H         1 UNK         0.0800 
    133 H133       -1.0838  -15.8285  -48.8707 H         1 UNK         0.0800 
    134 H134        0.9004  -14.5695  -52.3693 H         1 UNK         0.0800 
    135 H135        1.6873  -14.5623  -50.8114 H         1 UNK         0.0800 
    136 H136       -0.4129  -16.5965  -53.1241 H         1 UNK         0.1150 
    137 H137        0.4523  -20.3033  -51.1558 H         1 UNK         0.1150 
    138 H138        1.9237  -16.6182  -49.5363 H         1 UNK         0.1150 
    139 H139        2.8034  -18.7002  -48.7013 H         1 UNK         0.0800 
    140 H140        1.1969  -19.1922  -48.2315 H         1 UNK         0.0800 
    141 H141        2.5377  -20.7009  -46.9361 H         1 UNK         0.0800 
    142 H142        3.2588  -22.1953  -47.4135 H         1 UNK         0.0800 
    143 H143        1.2738  -23.3971  -47.3449 H         1 UNK         0.0600 
    144 H144        1.5861  -21.6296  -45.1513 H         1 UNK         0.3000 
    145 H145       -0.8860  -23.1065  -43.0112 H         1 UNK         0.0600 
    146 H146        1.1268  -23.1442  -41.5713 H         1 UNK         0.0600 
    147 H147        1.2509  -24.3846  -42.8101 H         1 UNK         0.0600 
    148 H148        2.1718  -22.8935  -42.9668 H         1 UNK         0.0600 
    149 H149        0.7692  -20.8456  -42.5993 H         1 UNK         0.3000 
    150 H150       -1.4967  -18.4010  -43.9460 H         1 UNK         0.0600 
    151 H151       -2.1910  -18.7990  -41.6129 H         1 UNK         0.0600 
    152 H152       -1.0528  -17.4611  -41.6751 H         1 UNK         0.0600 
    153 H153       -0.5230  -19.0467  -41.1172 H         1 UNK         0.0600 
    154 H154        1.0984  -18.0506  -42.8468 H         1 UNK         0.3000 
    155 H155        2.9510  -18.5446  -45.8831 H         1 UNK         0.0600 
    156 H156        2.3212  -16.0544  -44.2172 H         1 UNK         0.0600 
    157 H157        3.7860  -16.2981  -45.1684 H         1 UNK         0.0600 
    158 H158        2.2209  -16.1985  -45.9614 H         1 UNK         0.0600 
    159 H159        3.6328  -17.9557  -43.1388 H         1 UNK         0.3000 
    160 H160        4.1553  -21.3399  -42.1359 H         1 UNK         0.0600 
    161 H161        6.1491  -19.0826  -42.7226 H         1 UNK         0.0600 
    162 H162        6.2392  -20.7171  -43.3684 H         1 UNK         0.0600 
    163 H163        6.4166  -20.4503  -41.6416 H         1 UNK         0.0600 
    164 H164        4.5669  -18.8178  -40.8374 H         1 UNK         0.3000 
    165 H165        1.2763  -18.3652  -39.5898 H         1 UNK         0.0600 
    166 H166        2.4290  -18.3853  -37.3973 H         1 UNK         0.0600 
    167 H167        2.2496  -20.0265  -37.9956 H         1 UNK         0.0600 
    168 H168        3.8131  -19.2257  -38.0975 H         1 UNK         0.0600 
    169 H169        3.6663  -16.9374  -39.0780 H         1 UNK         0.3000 
    170 H170        3.7179  -14.7181  -39.9490 H         1 UNK         0.0600 
    171 H171        5.1094  -16.0154  -42.3653 H         1 UNK         0.0600 
    172 H172        5.7464  -14.6770  -41.4112 H         1 UNK         0.0600 
    173 H173        5.5564  -16.2594  -40.6810 H         1 UNK         0.0600 
    174 H174        3.6779  -14.0672  -42.7377 H         1 UNK         0.3000 
    175 H175        1.9485  -11.4630  -42.4508 H         1 UNK         0.0600 
    176 H176        2.1811  -11.9261  -44.8966 H         1 UNK         0.0600 
    177 H177        2.3125  -13.6469  -44.5673 H         1 UNK         0.0600 
    178 H178        3.5508  -12.5290  -43.9896 H         1 UNK         0.0600 
    179 H179       -0.0221  -13.1008  -43.8891 H         1 UNK         0.3000 
    180 H180       -2.7375  -12.2388  -41.9870 H         1 UNK         0.0600 
    181 H181       -2.1780  -10.5455  -44.4793 H         1 UNK         0.0600 
    182 H182       -2.6889   -9.9376  -42.9098 H         1 UNK         0.0600 
    183 H183       -3.7784  -10.9416  -43.8536 H         1 UNK         0.0600 
    184 H184       -2.5057  -12.9849  -44.7671 H         1 UNK         0.3000 
    185 H185       -1.4240  -16.2160  -44.3639 H         1 UNK         0.0600 
    186 H186       -3.6388  -16.8522  -43.3910 H         1 UNK         0.0600 
    187 H187       -4.4611  -15.7795  -44.5172 H         1 UNK         0.0600 
    188 H188       -3.6056  -17.2013  -45.1105 H         1 UNK         0.0600 
    189 H189       -3.0450  -15.0881  -46.4336 H         1 UNK         0.3000 
    190 H190       -0.3495  -20.2508  -46.6589 H         1 UNK         0.3000 
    191 H191       -1.9469  -20.1919  -48.9768 H         1 UNK         0.0600 
    192 H192       -1.5936  -18.2038  -47.5796 H         1 UNK         0.0600 
    193 H193       -3.3171  -18.5373  -47.6678 H         1 UNK         0.0600 
    194 H194       -2.4147  -18.9605  -46.2170 H         1 UNK         0.0600 
    195 H195       -2.6736  -21.5619  -45.7207 H         1 UNK         0.3000 
    196 H196       -5.3011  -22.4430  -46.2664 H         1 UNK         0.0600 
    197 H197       -4.9312  -23.9309  -44.2847 H         1 UNK         0.0600 
    198 H198       -4.3895  -22.2877  -43.9796 H         1 UNK         0.0600 
    199 H199       -3.2123  -23.5536  -44.3193 H         1 UNK         0.0600 
    200 H200       -2.1641  -24.1657  -46.6589 H         1 UNK         0.3000 
    201 H201       -3.2211  -26.6063  -47.6647 H         1 UNK         0.0600 
    202 H202       -0.9102  -26.3809  -46.7960 H         1 UNK         0.0600 
    203 H203       -0.4857  -25.3007  -48.1213 H         1 UNK         0.0600 
    204 H204       -0.8808  -26.9837  -48.4466 H         1 UNK         0.0600 
    205 H205       -2.3899  -23.5570  -49.2764 H         1 UNK         0.3000 
    206 H206       -3.0525  -24.5350  -51.9513 H         1 UNK         0.0600 
    207 H207       -1.1800  -22.9469  -51.6124 H         1 UNK         0.0600 
    208 H208       -2.4203  -22.2306  -52.6249 H         1 UNK         0.0600 
    209 H209       -2.2834  -21.7572  -50.9312 H         1 UNK         0.0600 
    210 H210       -5.1359  -24.3282  -49.6637 H         1 UNK         0.3000 
    211 H211       -7.3134  -24.0619  -49.4529 H         1 UNK         0.0600 
    212 H212       -7.3735  -23.8183  -52.5073 H         1 UNK         0.0600 
    213 H213       -8.7335  -24.2292  -51.4721 H         1 UNK         0.0600 
    214 H214       -7.3691  -25.3274  -51.5971 H         1 UNK         0.0600 
    215 H215       -5.9992  -21.8750  -48.7765 H         1 UNK         0.3000 
    216 H216       -6.2516  -19.8036  -48.0720 H         1 UNK         0.0600 
    217 H217       -8.3032  -18.4989  -48.2761 H         1 UNK         0.0600 
    218 H218       -8.7283  -20.1556  -47.8771 H         1 UNK         0.0600 
    219 H219       -8.9354  -19.5584  -49.5237 H         1 UNK         0.0600 
    220 H220       -4.6405  -20.4349  -50.0530 H         1 UNK         0.3000 
    221 H221       -3.2834  -19.7145  -51.6481 H         1 UNK         0.0600 
    222 H222       -4.2431  -16.9246  -50.8273 H         1 UNK         0.0600 
    223 H223       -2.9340  -17.8375  -50.0772 H         1 UNK         0.0600 
    224 H224       -2.7774  -17.2726  -51.7275 H         1 UNK         0.0600 
    225 H225       -5.6289  -20.6955  -52.6932 H         1 UNK         0.3000 
    226 H226       -6.7431  -18.8866  -54.7088 H         1 UNK         0.0600 
    227 H227       -8.2100  -20.3939  -53.4133 H         1 UNK         0.0600 
    228 H228       -8.2765  -20.8052  -55.1169 H         1 UNK         0.0600 
    229 H229       -7.3384  -21.8051  -54.0100 H         1 UNK         0.0600 
    230 H230       -4.1308  -19.0590  -55.2314 H         1 UNK         0.3000 
    231 H231       -2.5851  -19.2937  -56.7824 H         1 UNK         0.0600 
    232 H232       -4.8143  -20.2177  -58.6692 H         1 UNK         0.0600 
    233 H233       -3.2523  -19.5670  -59.1397 H         1 UNK         0.0600 
    234 H234       -4.4097  -18.5386  -58.3129 H         1 UNK         0.0600 
    235 H235       -3.9224  -22.0407  -55.5481 H         1 UNK         0.3000 
    236 H236       -2.7960  -24.1349  -57.0768 H         1 UNK         0.0600 
    237 H237       -4.6250  -24.4883  -55.4760 H         1 UNK         0.0600 
    238 H238       -3.2591  -25.4813  -54.9895 H         1 UNK         0.0600 
    239 H239       -3.6073  -23.9832  -54.1335 H         1 UNK         0.0600 
    240 H240       -1.2003  -21.8753  -55.1108 H         1 UNK         0.3000 
    241 H241        1.1958  -23.3594  -54.4885 H         1 UNK         0.0600 
    242 H242        0.0041  -22.0901  -57.5615 H         1 UNK         0.3800 
    243 H243        1.5502  -22.2064  -58.3635 H         1 UNK         0.3800 
    244 H244        0.7477  -21.4622  -53.1258 H         1 UNK         0.0800 
    245 H245        2.1591  -21.0604  -54.0479 H         1 UNK         0.0800 
    246 H246       -1.6120  -18.6484  -53.7265 H         1 UNK         0.0800 
    247 H247       -1.2740  -20.1705  -52.9461 H         1 UNK         0.0800 
@<TRIPOS>BOND
     1    1    2 1    
     2    1  127 1    
     3    1  128 1    
     4    1  129 1    
     5    2    3 2    
     6    2    4 am   BACKBONE|DICT|INTERRES
     7    4    5 1    
     8    4  130 1    
     9    5    6 1    
    10    5   65 1    
    11    5  131 1    
    12    6    7 1    
    13    6  132 1    
    14    6  133 1    
    15    7    8 1    
    16    8    9 1    
    17    8  134 1    
    18    8  135 1    
    19    9   10 ar   
    20    9   14 ar   
    21   10   11 ar   
    22   10  136 1    
    23   11   12 ar   
    24   11  126 1    
    25   12   13 ar   
    26   12  137 1    
    27   13   14 ar   
    28   13   15 1    
    29   14  138 1    
    30   15   16 1    
    31   15  139 1    
    32   15  140 1    
    33   16   17 1    
    34   17   18 1    
    35   17  141 1    
    36   17  142 1    
    37   18   19 1    
    38   18   67 1    
    39   18  143 1    
    40   19   20 am   BACKBONE|DICT|INTERRES
    41   19  144 1    
    42   20   21 2    
    43   20   22 1    
    44   22   23 1    
    45   22   24 1    
    46   22  145 1    
    47   23  146 1    
    48   23  147 1    
    49   23  148 1    
    50   24   25 am   BACKBONE|DICT|INTERRES
    51   24  149 1    
    52   25   26 2    
    53   25   27 1    
    54   27   28 1    
    55   27   29 1    
    56   27  150 1    
    57   28  151 1    
    58   28  152 1    
    59   28  153 1    
    60   29   30 am   BACKBONE|DICT|INTERRES
    61   29  154 1    
    62   30   31 2    
    63   30   32 1    
    64   32   33 1    
    65   32   34 1    
    66   32  155 1    
    67   33  156 1    
    68   33  157 1    
    69   33  158 1    
    70   34   35 am   BACKBONE|DICT|INTERRES
    71   34  159 1    
    72   35   36 2    
    73   35   37 1    
    74   37   38 1    
    75   37   39 1    
    76   37  160 1    
    77   38  161 1    
    78   38  162 1    
    79   38  163 1    
    80   39   40 am   BACKBONE|DICT|INTERRES
    81   39  164 1    
    82   40   41 2    
    83   40   42 1    
    84   42   43 1    
    85   42   44 1    
    86   42  165 1    
    87   43  166 1    
    88   43  167 1    
    89   43  168 1    
    90   44   45 am   BACKBONE|DICT|INTERRES
    91   44  169 1    
    92   45   46 2    
    93   45   47 1    
    94   47   48 1    
    95   47   49 1    
    96   47  170 1    
    97   48  171 1    
    98   48  172 1    
    99   48  173 1    
   100   49   50 am   BACKBONE|DICT|INTERRES
   101   49  174 1    
   102   50   51 2    
   103   50   52 1    
   104   52   53 1    
   105   52   54 1    
   106   52  175 1    
   107   53  176 1    
   108   53  177 1    
   109   53  178 1    
   110   54   55 am   BACKBONE|DICT|INTERRES
   111   54  179 1    
   112   55   56 2    
   113   55   57 1    
   114   57   58 1    
   115   57   59 1    
   116   57  180 1    
   117   58  181 1    
   118   58  182 1    
   119   58  183 1    
   120   59   60 am   BACKBONE|DICT|INTERRES
   121   59  184 1    
   122   60   61 2    
   123   60   62 1    
   124   62   63 1    
   125   62   64 1    
   126   62  185 1    
   127   63  186 1    
   128   63  187 1    
   129   63  188 1    
   130   64   65 am   BACKBONE|DICT|INTERRES
   131   64  189 1    
   132   65   66 2    
   133   67   68 2    
   134   67   69 am   BACKBONE|DICT|INTERRES
   135   69   70 1    
   136   69  190 1    
   137   70   71 1    
   138   70   72 1    
   139   70  191 1    
   140   71  192 1    
   141   71  193 1    
   142   71  194 1    
   143   72   73 2    
   144   72   74 am   BACKBONE|DICT|INTERRES
   145   74   75 1    
   146   74  195 1    
   147   75   76 1    
   148   75   77 1    
   149   75  196 1    
   150   76  197 1    
   151   76  198 1    
   152   76  199 1    
   153   77   78 2    
   154   77   79 am   BACKBONE|DICT|INTERRES
   155   79   80 1    
   156   79  200 1    
   157   80   81 1    
   158   80   82 1    
   159   80  201 1    
   160   81  202 1    
   161   81  203 1    
   162   81  204 1    
   163   82   83 2    
   164   82   84 am   BACKBONE|DICT|INTERRES
   165   84   85 1    
   166   84  205 1    
   167   85   86 1    
   168   85   87 1    
   169   85  206 1    
   170   86  207 1    
   171   86  208 1    
   172   86  209 1    
   173   87   88 2    
   174   87   89 am   BACKBONE|DICT|INTERRES
   175   89   90 1    
   176   89  210 1    
   177   90   91 1    
   178   90   92 1    
   179   90  211 1    
   180   91  212 1    
   181   91  213 1    
   182   91  214 1    
   183   92   93 2    
   184   92   94 am   BACKBONE|DICT|INTERRES
   185   94   95 1    
   186   94  215 1    
   187   95   96 1    
   188   95   97 1    
   189   95  216 1    
   190   96  217 1    
   191   96  218 1    
   192   96  219 1    
   193   97   98 2    
   194   97   99 am   BACKBONE|DICT|INTERRES
   195   99  100 1    
   196   99  220 1    
   197  100  101 1    
   198  100  102 1    
   199  100  221 1    
   200  101  222 1    
   201  101  223 1    
   202  101  224 1    
   203  102  103 2    
   204  102  104 am   BACKBONE|DICT|INTERRES
   205  104  105 1    
   206  104  225 1    
   207  105  106 1    
   208  105  107 1    
   209  105  226 1    
   210  106  227 1    
   211  106  228 1    
   212  106  229 1    
   213  107  108 2    
   214  107  109 am   BACKBONE|DICT|INTERRES
   215  109  110 1    
   216  109  230 1    
   217  110  111 1    
   218  110  112 1    
   219  110  231 1    
   220  111  232 1    
   221  111  233 1    
   222  111  234 1    
   223  112  113 2    
   224  112  114 am   BACKBONE|DICT|INTERRES
   225  114  115 1    
   226  114  235 1    
   227  115  116 1    
   228  115  117 1    
   229  115  236 1    
   230  116  237 1    
   231  116  238 1    
   232  116  239 1    
   233  117  118 2    
   234  117  119 am   BACKBONE|DICT|INTERRES
   235  119  120 1    
   236  119  240 1    
   237  120  121 1    
   238  120  124 1    
   239  120  241 1    
   240  121  122 am   BACKBONE|DICT|INTERRES
   241  121  123 2    
   242  122  242 1    
   243  122  243 1    
   244  124  125 1    
   245  124  244 1    
   246  124  245 1    
   247  125  126 1    
   248  126  246 1    
   249  126  247 1    
@<TRIPOS>SUBSTRUCTURE
     1 UNK         1 GROUP             0       ****    0 ROOT    
