@<TRIPOS>MOLECULE
3R540
247   249    1
SMALL
USER_CHARGES


@<TRIPOS>ATOM
      1 CA          3.0665  -16.0544  -47.0036 C.3       0 UNK        -0.1800 
      2 C           1.8505  -15.1666  -46.7876 C.2       0 UNK         0.5000 
      3 O           1.6435  -14.6738  -45.6814 O.2       0 UNK        -0.5000 
      4 N           1.0556  -14.9449  -47.8427 N.am      1 UNK        -0.5000 
      5 CA         -0.2129  -14.1971  -47.8256 C.3       1 UNK         0.1400 
      6 C6         -0.9390  -14.2349  -49.1960 C.3       23 UNK        -0.0398 
      7 S7         -1.1090  -15.9205  -49.8741 S.3       23 UNK        -0.2404 
      8 C8          0.1690  -15.8944  -51.1746 C.3       23 UNK        -0.0205 
      9 C9          0.6674  -17.2948  -51.4908 C.ar      23 UNK        -0.0193 
     10 C10         0.3260  -17.9241  -52.6914 C.ar      23 UNK        -0.1150 
     11 C11         0.7941  -19.2112  -52.9729 C.ar      23 UNK        -0.0193 
     12 C12         1.5921  -19.8737  -52.0346 C.ar      23 UNK        -0.1150 
     13 C13         1.9346  -19.2610  -50.8248 C.ar      23 UNK        -0.0193 
     14 C14         1.4851  -17.9601  -50.5741 C.ar      23 UNK        -0.1150 
     15 C15         2.7851  -20.0247  -49.8076 C.3       23 UNK        -0.0205 
     16 S16         2.3916  -19.6786  -48.0526 S.3       23 UNK        -0.2404 
     17 C17         0.6087  -20.0534  -47.9901 C.3       23 UNK        -0.0398 
     18 CA          0.3112  -21.4554  -47.4186 C.3       11 UNK         0.1400 
     19 N           0.5063  -21.5186  -45.9680 N.am      11 UNK        -0.5000 
     20 C           0.4745  -22.6485  -45.2490 C.2       10 UNK         0.5000 
     21 O           0.3309  -23.7661  -45.7418 O.2       10 UNK        -0.5000 
     22 CA          0.5431  -22.5051  -43.7194 C.3       10 UNK         0.1400 
     23 CB          1.9844  -22.2583  -43.2505 C.3       10 UNK        -0.1800 
     24 N          -0.3411  -21.4494  -43.2229 N.am      10 UNK        -0.5000 
     25 C          -1.6766  -21.4670  -43.3483 C.2       9 UNK         0.5000 
     26 O          -2.3011  -22.4049  -43.8438 O.2       9 UNK        -0.5000 
     27 CA         -2.4446  -20.2185  -42.8795 C.3       9 UNK         0.1400 
     28 CB         -2.6748  -20.2640  -41.3619 C.3       9 UNK        -0.1800 
     29 N          -1.7809  -18.9661  -43.2453 N.am      9 UNK        -0.5000 
     30 C          -1.5737  -18.5492  -44.5034 C.2       8 UNK         0.5000 
     31 O          -1.9548  -19.1645  -45.4980 O.2       8 UNK        -0.5000 
     32 CA         -0.7487  -17.2611  -44.6855 C.3       8 UNK         0.1400 
     33 CB         -1.6012  -16.0107  -44.4255 C.3       8 UNK        -0.1800 
     34 N           0.4349  -17.2368  -43.8280 N.am      8 UNK        -0.5000 
     35 C           1.4331  -18.1288  -43.8908 C.2       7 UNK         0.5000 
     36 O           1.4860  -19.0430  -44.7131 O.2       7 UNK        -0.5000 
     37 CA          2.5193  -18.0177  -42.8095 C.3       7 UNK         0.1400 
     38 CB          3.5356  -16.9182  -43.1547 C.3       7 UNK        -0.1800 
     39 N           1.9356  -17.7646  -41.4912 N.am      7 UNK        -0.5000 
     40 C           1.2386  -18.6714  -40.7907 C.2       6 UNK         0.5000 
     41 O           1.0502  -19.8266  -41.1694 O.2       6 UNK        -0.5000 
     42 CA          0.6197  -18.2032  -39.4601 C.3       6 UNK         0.1400 
     43 CB          1.6470  -18.3021  -38.3226 C.3       6 UNK        -0.1800 
     44 N           0.1003  -16.8372  -39.5243 N.am      6 UNK        -0.5000 
     45 C          -0.9430  -16.4543  -40.2743 C.2       5 UNK         0.5000 
     46 O          -1.6122  -17.2260  -40.9586 O.2       5 UNK        -0.5000 
     47 CA         -1.2557  -14.9459  -40.3088 C.3       5 UNK         0.1400 
     48 CB         -2.2233  -14.5693  -39.1773 C.3       5 UNK        -0.1800 
     49 N          -0.0592  -14.1018  -40.2283 N.am      5 UNK        -0.5000 
     50 C           0.9493  -14.1299  -41.1094 C.2       4 UNK         0.5000 
     51 O           0.9850  -14.8913  -42.0788 O.2       4 UNK        -0.5000 
     52 CA          2.1466  -13.2118  -40.8034 C.3       4 UNK         0.1400 
     53 CB          3.0920  -13.8978  -39.8039 C.3       4 UNK        -0.1800 
     54 N           2.9086  -12.8735  -42.0044 N.am      4 UNK        -0.5000 
     55 C           2.4588  -12.1188  -43.0146 C.2       3 UNK         0.5000 
     56 O           1.3624  -11.5526  -42.9998 O.2       3 UNK        -0.5000 
     57 CA          3.4049  -11.9371  -44.2201 C.3       3 UNK         0.1400 
     58 CB          4.4300  -13.0785  -44.3829 C.3       3 UNK        -0.1800 
     59 N           2.6320  -11.8231  -45.4543 N.am      3 UNK        -0.5000 
     60 C           2.2902  -10.6719  -46.0486 C.2       2 UNK         0.5000 
     61 O           2.6257   -9.5639  -45.6259 O.2       2 UNK        -0.5000 
     62 CA          1.4600  -10.7537  -47.3466 C.3       2 UNK         0.1400 
     63 CB          2.2361  -10.1423  -48.5256 C.3       2 UNK        -0.1800 
     64 N           1.0927  -12.1249  -47.7029 N.am      2 UNK        -0.5000 
     65 C          -0.0536  -12.7307  -47.3666 C.2       1 UNK         0.5000 
     66 O          -0.9573  -12.1885  -46.7299 O.2       1 UNK        -0.5000 
     67 C          -1.0982  -21.9208  -47.8405 C.2       11 UNK         0.5000 
     68 O          -1.2224  -22.6362  -48.8348 O.2       11 UNK        -0.5000 
     69 N          -2.1366  -21.5351  -47.0872 N.am      12 UNK        -0.5000 
     70 CA         -3.5171  -21.9622  -47.3241 C.3       12 UNK         0.1400 
     71 CB         -4.4762  -21.1636  -46.4305 C.3       12 UNK        -0.1800 
     72 C          -3.7185  -23.4783  -47.1477 C.2       12 UNK         0.5000 
     73 O          -4.5024  -24.0732  -47.8860 O.2       12 UNK        -0.5000 
     74 N          -2.9882  -24.0813  -46.2023 N.am      13 UNK        -0.5000 
     75 CA         -2.9611  -25.5235  -45.9827 C.3       13 UNK         0.1400 
     76 CB         -2.4302  -25.8142  -44.5698 C.3       13 UNK        -0.1800 
     77 C          -2.1308  -26.2632  -47.0487 C.2       13 UNK         0.5000 
     78 O          -2.6195  -27.2316  -47.6318 O.2       13 UNK        -0.5000 
     79 N          -0.8843  -25.8197  -47.2607 N.am      14 UNK        -0.5000 
     80 CA          0.1108  -26.5339  -48.0609 C.3       14 UNK         0.1400 
     81 CB          1.5196  -26.1365  -47.5919 C.3       14 UNK        -0.1800 
     82 C          -0.0265  -26.3088  -49.5751 C.2       14 UNK         0.5000 
     83 O           0.0721  -27.2724  -50.3361 O.2       14 UNK        -0.5000 
     84 N          -0.2116  -25.0495  -49.9895 N.am      15 UNK        -0.5000 
     85 CA         -0.1961  -24.6337  -51.3948 C.3       15 UNK         0.1400 
     86 CB          0.6685  -23.3676  -51.5279 C.3       15 UNK        -0.1800 
     87 C          -1.6030  -24.3760  -51.9581 C.2       15 UNK         0.5000 
     88 O          -1.7329  -24.2249  -53.1711 O.2       15 UNK        -0.5000 
     89 N          -2.6180  -24.3192  -51.0833 N.am      16 UNK        -0.5000 
     90 CA         -4.0029  -23.9260  -51.3708 C.3       16 UNK         0.1400 
     91 CB         -4.6704  -24.8811  -52.3799 C.3       16 UNK        -0.1800 
     92 C          -4.1199  -22.4331  -51.7497 C.2       16 UNK         0.5000 
     93 O          -4.9456  -22.0521  -52.5850 O.2       16 UNK        -0.5000 
     94 N          -3.2903  -21.6075  -51.0970 N.am      17 UNK        -0.5000 
     95 CA         -3.3274  -20.1484  -51.1643 C.3       17 UNK         0.1400 
     96 CB         -2.0390  -19.6018  -50.5454 C.3       17 UNK        -0.1800 
     97 C          -4.5616  -19.5633  -50.4484 C.2       17 UNK         0.5000 
     98 O          -5.3277  -20.2993  -49.8224 O.2       17 UNK        -0.5000 
     99 N          -4.7555  -18.2431  -50.5829 N.am      18 UNK        -0.5000 
    100 CA        -5.8840  -17.4301  -50.0922 C.3       18 UNK         0.1400 
    101 CB        -6.0516  -17.5318  -48.5633 C.3       18 UNK        -0.1800 
    102 C         -7.2056  -17.7143  -50.8367 C.2       18 UNK         0.5000 
    103 O         -7.8815  -16.7761  -51.2590 O.2       18 UNK        -0.5000 
    104 N         -7.5006  -19.0004  -51.0629 N.am      19 UNK        -0.5000 
    105 CA        -8.4724  -19.4993  -52.0373 C.3       19 UNK         0.1400 
    106 CB        -8.7450  -20.9822  -51.7400 C.3       19 UNK        -0.1800 
    107 C         -7.9840  -19.3283  -53.4929 C.2       19 UNK         0.5000 
    108 O         -8.7998  -19.3875  -54.4132 O.2       19 UNK        -0.5000 
    109 N         -6.6681  -19.1155  -53.6620 N.am      20 UNK        -0.5000 
    110 CA        -5.9404  -18.8933  -54.9145 C.3       20 UNK         0.1400 
    111 CB        -6.3843  -17.5747  -55.5817 C.3       20 UNK        -0.1800 
    112 C         -5.9979  -20.1077  -55.8620 C.2       20 UNK         0.5000 
    113 O         -6.1263  -19.9433  -57.0763 O.2       20 UNK        -0.5000 
    114 N         -5.8819  -21.3094  -55.2837 N.am      21 UNK        -0.5000 
    115 CA        -5.8806  -22.5892  -55.9923 C.3       21 UNK         0.1400 
    116 CB        -6.8315  -23.5541  -55.2644 C.3       21 UNK        -0.1800 
    117 C         -4.4542  -23.1582  -56.1518 C.2       21 UNK         0.5000 
    118 O         -4.3032  -24.3558  -56.3995 O.2       21 UNK        -0.5000 
    119 N         -3.4385  -22.2919  -56.0231 N.am      22 UNK        -0.5000 
    120 CA        -2.0160  -22.5727  -56.2723 C.3       22 UNK         0.1400 
    121 C         -1.7474  -23.1254  -57.7021 C.2       22 UNK         0.5000 
    122 N         -0.8908  -24.1287  -57.8374 N.am      22 UNK        -0.7600 
    123 O         -2.2713  -22.6191  -58.6924 O.2       22 UNK        -0.5000 
    124 C124       -1.1446  -21.3121  -56.0361 C.3       23 UNK        -0.0398 
    125 S125       -1.1347  -20.7199  -54.3082 S.3       23 UNK        -0.2404 
    126 C126        0.4753  -19.8680  -54.3073 C.3       23 UNK        -0.0205 
    127 H127        3.9647  -15.5589  -46.6354 H         1 UNK         0.0600 
    128 H128        2.9443  -16.9901  -46.4584 H         1 UNK         0.0600 
    129 H129        3.2165  -16.2908  -48.0569 H         1 UNK         0.0600 
    130 H130        1.2750  -15.3881  -48.7214 H         1 UNK         0.3000 
    131 H131       -0.8554  -14.6918  -47.0946 H         1 UNK         0.0600 
    132 H132       -1.9435  -13.8196  -49.0956 H         1 UNK         0.0800 
    133 H133       -0.4291  -13.6038  -49.9264 H         1 UNK         0.0800 
    134 H134        1.0181  -15.2856  -50.8615 H         1 UNK         0.0800 
    135 H135       -0.2390  -15.4156  -52.0661 H         1 UNK         0.0800 
    136 H136       -0.2968  -17.4119  -53.4112 H         1 UNK         0.1150 
    137 H137        1.9518  -20.8694  -52.2508 H         1 UNK         0.1150 
    138 H138        1.7486  -17.4693  -49.6494 H         1 UNK         0.1150 
    139 H139        2.6831  -21.0991  -49.9692 H         1 UNK         0.0800 
    140 H140        3.8340  -19.7838  -49.9833 H         1 UNK         0.0800 
    141 H141        0.2080  -19.9581  -48.9959 H         1 UNK         0.0800 
    142 H142        0.1113  -19.2820  -47.4000 H         1 UNK         0.0800 
    143 H143        1.0121  -22.1603  -47.8716 H         1 UNK         0.0600 
    144 H144        0.6768  -20.6361  -45.4925 H         1 UNK         0.3000 
    145 H145        0.2068  -23.4489  -43.2850 H         1 UNK         0.0600 
    146 H146        2.0465  -22.2404  -42.1624 H         1 UNK         0.0600 
    147 H147        2.6485  -23.0494  -43.6006 H         1 UNK         0.0600 
    148 H148        2.3767  -21.3126  -43.6234 H         1 UNK         0.0600 
    149 H149        0.1019  -20.6669  -42.7531 H         1 UNK         0.3000 
    150 H150       -3.4210  -20.2283  -43.3675 H         1 UNK         0.0600 
    151 H151       -3.1757  -21.1878  -41.0697 H         1 UNK         0.0600 
    152 H152       -3.3039  -19.4364  -41.0341 H         1 UNK         0.0600 
    153 H153       -1.7358  -20.2100  -40.8106 H         1 UNK         0.0600 
    154 H154       -1.4838  -18.3721  -42.4758 H         1 UNK         0.3000 
    155 H155       -0.4051  -17.2273  -45.7215 H         1 UNK         0.0600 
    156 H156       -1.9948  -15.9946  -43.4094 H         1 UNK         0.0600 
    157 H157       -2.4503  -15.9701  -45.1086 H         1 UNK         0.0600 
    158 H158       -1.0190  -15.1002  -44.5716 H         1 UNK         0.0600 
    159 H159        0.5025  -16.4799  -43.1537 H         1 UNK         0.3000 
    160 H160        3.0535  -18.9694  -42.7699 H         1 UNK         0.0600 
    161 H161        4.3103  -16.8406  -42.3920 H         1 UNK         0.0600 
    162 H162        3.0601  -15.9426  -43.2520 H         1 UNK         0.0600 
    163 H163        4.0311  -17.1328  -44.1021 H         1 UNK         0.0600 
    164 H164        1.9739  -16.8132  -41.1560 H         1 UNK         0.3000 
    165 H165       -0.2124  -18.8711  -39.2274 H         1 UNK         0.0600 
    166 H166        1.1972  -18.0497  -37.3622 H         1 UNK         0.0600 
    167 H167        2.0401  -19.3163  -38.2395 H         1 UNK         0.0600 
    168 H168        2.4938  -17.6337  -38.4836 H         1 UNK         0.0600 
    169 H169        0.5913  -16.1355  -38.9909 H         1 UNK         0.3000 
    170 H170       -1.7453  -14.7342  -41.2614 H         1 UNK         0.0600 
    171 H171       -3.1328  -15.1698  -39.2260 H         1 UNK         0.0600 
    172 H172       -1.7769  -14.7283  -38.1949 H         1 UNK         0.0600 
    173 H173       -2.5227  -13.5233  -39.2457 H         1 UNK         0.0600 
    174 H174       -0.0124  -13.4620  -39.4483 H         1 UNK         0.3000 
    175 H175        1.7735  -12.2855  -40.3616 H         1 UNK         0.0600 
    176 H176        3.4964  -14.8283  -40.2051 H         1 UNK         0.0600 
    177 H177        3.9314  -13.2510  -39.5477 H         1 UNK         0.0600 
    178 H178        2.5762  -14.1382  -38.8734 H         1 UNK         0.0600 
    179 H179        3.8068  -13.3214  -42.1046 H         1 UNK         0.3000 
    180 H180        3.9653  -11.0167  -44.0455 H         1 UNK         0.0600 
    181 H181        3.9457  -14.0526  -44.4472 H         1 UNK         0.0600 
    182 H182        5.1327  -13.1079  -43.5497 H         1 UNK         0.0600 
    183 H183        5.0218  -12.9452  -45.2887 H         1 UNK         0.0600 
    184 H184        2.2303  -12.6892  -45.7955 H         1 UNK         0.3000 
    185 H185        0.5580  -10.1581  -47.1915 H         1 UNK         0.0600 
    186 H186        2.4921   -9.1002  -48.3302 H         1 UNK         0.0600 
    187 H187        3.1663  -10.6787  -48.7166 H         1 UNK         0.0600 
    188 H188        1.6430  -10.1617  -49.4401 H         1 UNK         0.0600 
    189 H189        1.7832  -12.6566  -48.2132 H         1 UNK         0.3000 
    190 H190       -1.9845  -20.8795  -46.3251 H         1 UNK         0.3000 
    191 H191       -3.7568  -21.7295  -48.3603 H         1 UNK         0.0600 
    192 H192       -4.2882  -21.3448  -45.3729 H         1 UNK         0.0600 
    193 H193       -5.5125  -21.4364  -46.6332 H         1 UNK         0.0600 
    194 H194       -4.3830  -20.0927  -46.6128 H         1 UNK         0.0600 
    195 H195       -2.4138  -23.5103  -45.5915 H         1 UNK         0.3000 
    196 H196       -3.9846  -25.9012  -46.0355 H         1 UNK         0.0600 
    197 H197       -2.4076  -26.8868  -44.3736 H         1 UNK         0.0600 
    198 H198       -3.0654  -25.3572  -43.8108 H         1 UNK         0.0600 
    199 H199       -1.4188  -25.4323  -44.4284 H         1 UNK         0.0600 
    200 H200       -0.5450  -25.0210  -46.7273 H         1 UNK         0.3000 
    201 H201       -0.0036  -27.6045  -47.8760 H         1 UNK         0.0600 
    202 H202        1.6572  -26.3510  -46.5320 H         1 UNK         0.0600 
    203 H203        1.7113  -25.0736  -47.7449 H         1 UNK         0.0600 
    204 H204        2.2846  -26.6897  -48.1381 H         1 UNK         0.0600 
    205 H205       -0.3502  -24.3084  -49.3097 H         1 UNK         0.3000 
    206 H206        0.2598  -25.4093  -52.0136 H         1 UNK         0.0600 
    207 H207        1.6749  -23.5325  -51.1433 H         1 UNK         0.0600 
    208 H208        0.7643  -23.0722  -52.5736 H         1 UNK         0.0600 
    209 H209        0.2386  -22.5207  -50.9930 H         1 UNK         0.0600 
    210 H210       -2.3914  -24.4469  -50.1067 H         1 UNK         0.3000 
    211 H211       -4.5458  -24.0346  -50.4336 H         1 UNK         0.0600 
    212 H212       -4.3215  -24.7097  -53.3985 H         1 UNK         0.0600 
    213 H213       -5.7517  -24.7476  -52.3716 H         1 UNK         0.0600 
    214 H214       -4.4749  -25.9232  -52.1279 H         1 UNK         0.0600 
    215 H215       -2.6406  -22.0099  -50.4339 H         1 UNK         0.3000 
    216 H216       -3.3644  -19.8587  -52.2163 H         1 UNK         0.0600 
    217 H217       -1.9059  -18.5521  -50.7997 H         1 UNK         0.0600 
    218 H218       -1.1640  -20.1351  -50.9167 H         1 UNK         0.0600 
    219 H219       -2.0554  -19.6745  -49.4583 H         1 UNK         0.0600 
    220 H220       -4.0678  -17.7210  -51.1085 H         1 UNK         0.3000 
    221 H221       -5.6163  -16.3964  -50.3172 H         1 UNK         0.0600 
    222 H222       -6.3856  -18.5204  -48.2481 H         1 UNK         0.0600 
    223 H223       -5.1150  -17.3152  -48.0494 H         1 UNK         0.0600 
    224 H224       -6.7918  -16.8139  -48.2083 H         1 UNK         0.0600 
    225 H225       -6.8878  -19.6912  -50.6351 H         1 UNK         0.3000 
    226 H226       -9.4034  -18.9401  -51.9250 H         1 UNK         0.0600 
    227 H227       -9.1330  -21.1174  -50.7303 H         1 UNK         0.0600 
    228 H228       -9.4845  -21.3907  -52.4300 H         1 UNK         0.0600 
    229 H229       -7.8394  -21.5836  -51.8351 H         1 UNK         0.0600 
    230 H230       -6.1041  -19.1155  -52.8266 H         1 UNK         0.3000 
    231 H231       -4.8910  -18.7797  -54.6385 H         1 UNK         0.0600 
    232 H232       -6.3188  -16.7390  -54.8848 H         1 UNK         0.0600 
    233 H233       -7.4109  -17.6285  -55.9449 H         1 UNK         0.0600 
    234 H234       -5.7486  -17.3350  -56.4348 H         1 UNK         0.0600 
    235 H235       -5.7253  -21.3702  -54.2807 H         1 UNK         0.3000 
    236 H236       -6.2680  -22.4585  -57.0046 H         1 UNK         0.0600 
    237 H237       -6.8571  -24.5326  -55.7451 H         1 UNK         0.0600 
    238 H238       -6.5349  -23.6988  -54.2280 H         1 UNK         0.0600 
    239 H239       -7.8511  -23.1682  -55.2638 H         1 UNK         0.0600 
    240 H240       -3.6642  -21.3350  -55.8030 H         1 UNK         0.3000 
    241 H241       -1.7128  -23.3389  -55.5595 H         1 UNK         0.0600 
    242 H242       -0.6953  -24.4858  -58.7599 H         1 UNK         0.3800 
    243 H243       -0.4484  -24.5564  -57.0383 H         1 UNK         0.3800 
    244 H244       -0.1120  -21.5230  -56.3213 H         1 UNK         0.0800 
    245 H245       -1.4727  -20.4938  -56.6795 H         1 UNK         0.0800 
    246 H246        1.2600  -20.5820  -54.5625 H         1 UNK         0.0800 
    247 H247        0.4818  -19.1130  -55.0950 H         1 UNK         0.0800 
@<TRIPOS>BOND
     1    1    2 1    
     2    1  127 1    
     3    1  128 1    
     4    1  129 1    
     5    2    3 2    
     6    2    4 am   BACKBONE|DICT|INTERRES
     7    4    5 1    
     8    4  130 1    
     9    5    6 1    
    10    5   65 1    
    11    5  131 1    
    12    6    7 1    
    13    6  132 1    
    14    6  133 1    
    15    7    8 1    
    16    8    9 1    
    17    8  134 1    
    18    8  135 1    
    19    9   10 ar   
    20    9   14 ar   
    21   10   11 ar   
    22   10  136 1    
    23   11   12 ar   
    24   11  126 1    
    25   12   13 ar   
    26   12  137 1    
    27   13   14 ar   
    28   13   15 1    
    29   14  138 1    
    30   15   16 1    
    31   15  139 1    
    32   15  140 1    
    33   16   17 1    
    34   17   18 1    
    35   17  141 1    
    36   17  142 1    
    37   18   19 1    
    38   18   67 1    
    39   18  143 1    
    40   19   20 am   BACKBONE|DICT|INTERRES
    41   19  144 1    
    42   20   21 2    
    43   20   22 1    
    44   22   23 1    
    45   22   24 1    
    46   22  145 1    
    47   23  146 1    
    48   23  147 1    
    49   23  148 1    
    50   24   25 am   BACKBONE|DICT|INTERRES
    51   24  149 1    
    52   25   26 2    
    53   25   27 1    
    54   27   28 1    
    55   27   29 1    
    56   27  150 1    
    57   28  151 1    
    58   28  152 1    
    59   28  153 1    
    60   29   30 am   BACKBONE|DICT|INTERRES
    61   29  154 1    
    62   30   31 2    
    63   30   32 1    
    64   32   33 1    
    65   32   34 1    
    66   32  155 1    
    67   33  156 1    
    68   33  157 1    
    69   33  158 1    
    70   34   35 am   BACKBONE|DICT|INTERRES
    71   34  159 1    
    72   35   36 2    
    73   35   37 1    
    74   37   38 1    
    75   37   39 1    
    76   37  160 1    
    77   38  161 1    
    78   38  162 1    
    79   38  163 1    
    80   39   40 am   BACKBONE|DICT|INTERRES
    81   39  164 1    
    82   40   41 2    
    83   40   42 1    
    84   42   43 1    
    85   42   44 1    
    86   42  165 1    
    87   43  166 1    
    88   43  167 1    
    89   43  168 1    
    90   44   45 am   BACKBONE|DICT|INTERRES
    91   44  169 1    
    92   45   46 2    
    93   45   47 1    
    94   47   48 1    
    95   47   49 1    
    96   47  170 1    
    97   48  171 1    
    98   48  172 1    
    99   48  173 1    
   100   49   50 am   BACKBONE|DICT|INTERRES
   101   49  174 1    
   102   50   51 2    
   103   50   52 1    
   104   52   53 1    
   105   52   54 1    
   106   52  175 1    
   107   53  176 1    
   108   53  177 1    
   109   53  178 1    
   110   54   55 am   BACKBONE|DICT|INTERRES
   111   54  179 1    
   112   55   56 2    
   113   55   57 1    
   114   57   58 1    
   115   57   59 1    
   116   57  180 1    
   117   58  181 1    
   118   58  182 1    
   119   58  183 1    
   120   59   60 am   BACKBONE|DICT|INTERRES
   121   59  184 1    
   122   60   61 2    
   123   60   62 1    
   124   62   63 1    
   125   62   64 1    
   126   62  185 1    
   127   63  186 1    
   128   63  187 1    
   129   63  188 1    
   130   64   65 am   BACKBONE|DICT|INTERRES
   131   64  189 1    
   132   65   66 2    
   133   67   68 2    
   134   67   69 am   BACKBONE|DICT|INTERRES
   135   69   70 1    
   136   69  190 1    
   137   70   71 1    
   138   70   72 1    
   139   70  191 1    
   140   71  192 1    
   141   71  193 1    
   142   71  194 1    
   143   72   73 2    
   144   72   74 am   BACKBONE|DICT|INTERRES
   145   74   75 1    
   146   74  195 1    
   147   75   76 1    
   148   75   77 1    
   149   75  196 1    
   150   76  197 1    
   151   76  198 1    
   152   76  199 1    
   153   77   78 2    
   154   77   79 am   BACKBONE|DICT|INTERRES
   155   79   80 1    
   156   79  200 1    
   157   80   81 1    
   158   80   82 1    
   159   80  201 1    
   160   81  202 1    
   161   81  203 1    
   162   81  204 1    
   163   82   83 2    
   164   82   84 am   BACKBONE|DICT|INTERRES
   165   84   85 1    
   166   84  205 1    
   167   85   86 1    
   168   85   87 1    
   169   85  206 1    
   170   86  207 1    
   171   86  208 1    
   172   86  209 1    
   173   87   88 2    
   174   87   89 am   BACKBONE|DICT|INTERRES
   175   89   90 1    
   176   89  210 1    
   177   90   91 1    
   178   90   92 1    
   179   90  211 1    
   180   91  212 1    
   181   91  213 1    
   182   91  214 1    
   183   92   93 2    
   184   92   94 am   BACKBONE|DICT|INTERRES
   185   94   95 1    
   186   94  215 1    
   187   95   96 1    
   188   95   97 1    
   189   95  216 1    
   190   96  217 1    
   191   96  218 1    
   192   96  219 1    
   193   97   98 2    
   194   97   99 am   BACKBONE|DICT|INTERRES
   195   99  100 1    
   196   99  220 1    
   197  100  101 1    
   198  100  102 1    
   199  100  221 1    
   200  101  222 1    
   201  101  223 1    
   202  101  224 1    
   203  102  103 2    
   204  102  104 am   BACKBONE|DICT|INTERRES
   205  104  105 1    
   206  104  225 1    
   207  105  106 1    
   208  105  107 1    
   209  105  226 1    
   210  106  227 1    
   211  106  228 1    
   212  106  229 1    
   213  107  108 2    
   214  107  109 am   BACKBONE|DICT|INTERRES
   215  109  110 1    
   216  109  230 1    
   217  110  111 1    
   218  110  112 1    
   219  110  231 1    
   220  111  232 1    
   221  111  233 1    
   222  111  234 1    
   223  112  113 2    
   224  112  114 am   BACKBONE|DICT|INTERRES
   225  114  115 1    
   226  114  235 1    
   227  115  116 1    
   228  115  117 1    
   229  115  236 1    
   230  116  237 1    
   231  116  238 1    
   232  116  239 1    
   233  117  118 2    
   234  117  119 am   BACKBONE|DICT|INTERRES
   235  119  120 1    
   236  119  240 1    
   237  120  121 1    
   238  120  124 1    
   239  120  241 1    
   240  121  122 am   BACKBONE|DICT|INTERRES
   241  121  123 2    
   242  122  242 1    
   243  122  243 1    
   244  124  125 1    
   245  124  244 1    
   246  124  245 1    
   247  125  126 1    
   248  126  246 1    
   249  126  247 1    
@<TRIPOS>SUBSTRUCTURE
     1 UNK         1 GROUP             0       ****    0 ROOT    
