@<TRIPOS>MOLECULE
3R540
247   249    1
SMALL
USER_CHARGES


@<TRIPOS>ATOM
      1 CA         -0.5770  -11.7422  -45.2788 C.3       0 UNK        -0.1800 
      2 C           0.4772  -11.5238  -46.3531 C.2       0 UNK         0.5000 
      3 O           0.2896  -10.6906  -47.2397 O.2       0 UNK        -0.5000 
      4 N           1.5903  -12.2616  -46.2697 N.am      1 UNK        -0.5000 
      5 CA          2.7486  -12.1387  -47.1641 C.3       1 UNK         0.1400 
      6 C6          3.6480  -13.3976  -47.1288 C.3       23 UNK        -0.0398 
      7 S7          2.7446  -14.9180  -47.5722 S.3       23 UNK        -0.2404 
      8 C8          3.3961  -15.2536  -49.2361 C.3       23 UNK        -0.0205 
      9 C9          2.8579  -16.5716  -49.7674 C.ar      23 UNK        -0.0193 
     10 C10         1.6963  -16.6003  -50.5461 C.ar      23 UNK        -0.1150 
     11 C11         1.1686  -17.8166  -50.9912 C.ar      23 UNK        -0.0193 
     12 C12         1.8378  -19.0024  -50.6785 C.ar      23 UNK        -0.1150 
     13 C13         3.0058  -18.9887  -49.9126 C.ar      23 UNK        -0.0193 
     14 C14         3.5101  -17.7684  -49.4565 C.ar      23 UNK        -0.1150 
     15 C15         3.7162  -20.2931  -49.5772 C.3       23 UNK        -0.0205 
     16 S16         3.0033  -21.1113  -48.1137 S.3       23 UNK        -0.2404 
     17 C17         1.3783  -21.6312  -48.7574 C.3       23 UNK        -0.0398 
     18 CA          0.6968  -22.7173  -47.8985 C.3       11 UNK         0.1400 
     19 N           0.3790  -22.2512  -46.5461 N.am      11 UNK        -0.5000 
     20 C          -0.1192  -23.0218  -45.5691 C.2       10 UNK         0.5000 
     21 O          -0.3101  -24.2328  -45.6796 O.2       10 UNK        -0.5000 
     22 CA         -0.5318  -22.3077  -44.2712 C.3       10 UNK         0.1400 
     23 CB          0.6809  -22.0629  -43.3604 C.3       10 UNK        -0.1800 
     24 N          -1.2157  -21.0432  -44.5427 N.am      10 UNK        -0.5000 
     25 C          -2.4344  -20.9493  -45.0932 C.2       9 UNK         0.5000 
     26 O          -3.1261  -21.9223  -45.3930 O.2       9 UNK        -0.5000 
     27 CA         -2.9490  -19.5317  -45.3971 C.3       9 UNK         0.1400 
     28 CB         -3.5555  -18.8901  -44.1404 C.3       9 UNK        -0.1800 
     29 N          -1.9025  -18.6612  -45.9311 N.am      9 UNK        -0.5000 
     30 C          -1.3344  -18.8149  -47.1364 C.2       8 UNK         0.5000 
     31 O          -1.6449  -19.6997  -47.9318 O.2       8 UNK        -0.5000 
     32 CA         -0.2028  -17.8385  -47.5021 C.3       8 UNK         0.1400 
     33 CB         -0.7968  -16.5525  -48.0973 C.3       8 UNK        -0.1800 
     34 N           0.6608  -17.4874  -46.3759 N.am      8 UNK        -0.5000 
     35 C           1.3102  -18.3484  -45.5792 C.2       7 UNK         0.5000 
     36 O           1.2642  -19.5710  -45.7075 O.2       7 UNK        -0.5000 
     37 CA          2.0848  -17.7418  -44.3946 C.3       7 UNK         0.1400 
     38 CB          3.5681  -17.5604  -44.7477 C.3       7 UNK        -0.1800 
     39 N           1.5317  -16.4633  -43.9370 N.am      7 UNK        -0.5000 
     40 C           0.3119  -16.2946  -43.4074 C.2       6 UNK         0.5000 
     41 O          -0.4836  -17.2215  -43.2426 O.2       6 UNK        -0.5000 
     42 CA         -0.0843  -14.8524  -43.0227 C.3       6 UNK         0.1400 
     43 CB         -1.4118  -14.7849  -42.2476 C.3       6 UNK        -0.1800 
     44 N           0.9480  -14.1626  -42.2453 N.am      6 UNK        -0.5000 
     45 C           2.0719  -13.6230  -42.7272 C.2       5 UNK         0.5000 
     46 O           2.3613  -13.6387  -43.9253 O.2       5 UNK        -0.5000 
     47 CA          3.0094  -12.9512  -41.7035 C.3       5 UNK         0.1400 
     48 CB          4.3996  -12.6608  -42.2935 C.3       5 UNK        -0.1800 
     49 N           2.4388  -11.7063  -41.1857 N.am      5 UNK        -0.5000 
     50 C           1.4430  -11.6304  -40.2897 C.2       4 UNK         0.5000 
     51 O           0.9211  -12.6215  -39.7754 O.2       4 UNK        -0.5000 
     52 CA          0.9393  -10.2292  -39.8879 C.3       4 UNK         0.1400 
     53 CB          1.4744   -9.8455  -38.4996 C.3       4 UNK        -0.1800 
     54 N           1.2934   -9.1718  -40.8357 N.am      4 UNK        -0.5000 
     55 C           0.7803   -9.0279  -42.0644 C.2       3 UNK         0.5000 
     56 O          -0.0665   -9.7819  -42.5438 O.2       3 UNK        -0.5000 
     57 CA          1.3111   -7.8545  -42.9136 C.3       3 UNK         0.1400 
     58 CB          1.9016   -6.6956  -42.0785 C.3       3 UNK        -0.1800 
     59 N           2.2731   -8.3020  -43.9259 N.am      3 UNK        -0.5000 
     60 C           3.4269   -8.9512  -43.7164 C.2       2 UNK         0.5000 
     61 O           3.8295   -9.3085  -42.6076 O.2       2 UNK        -0.5000 
     62 CA          4.2127   -9.3282  -44.9778 C.3       2 UNK         0.1400 
     63 CB          5.7058   -9.6003  -44.7099 C.3       2 UNK        -0.1800 
     64 N           3.5712  -10.5095  -45.5353 N.am      2 UNK        -0.5000 
     65 C           3.5802  -10.8860  -46.8186 C.2       1 UNK         0.5000 
     66 O           4.1911  -10.2897  -47.7065 O.2       1 UNK        -0.5000 
     67 C          -0.5543  -23.2548  -48.6222 C.2       11 UNK         0.5000 
     68 O          -0.5027  -24.3515  -49.1763 O.2       11 UNK        -0.5000 
     69 N          -1.6623  -22.5005  -48.5687 N.am      12 UNK        -0.5000 
     70 CA         -2.9459  -22.8820  -49.1564 C.3       12 UNK         0.1400 
     71 CB         -3.9266  -21.7050  -49.0744 C.3       12 UNK        -0.1800 
     72 C          -3.5497  -24.1422  -48.5134 C.2       12 UNK         0.5000 
     73 O          -4.0858  -24.9851  -49.2327 O.2       12 UNK        -0.5000 
     74 N          -3.4225  -24.2719  -47.1846 N.am      13 UNK        -0.5000 
     75 CA         -3.8115  -25.4628  -46.4288 C.3       13 UNK         0.1400 
     76 CB         -3.7144  -25.1844  -44.9219 C.3       13 UNK        -0.1800 
     77 C          -2.9810  -26.6984  -46.8197 C.2       13 UNK         0.5000 
     78 O          -3.5588  -27.7559  -47.0752 O.2       13 UNK        -0.5000 
     79 N          -1.6533  -26.5290  -46.9181 N.am      14 UNK        -0.5000 
     80 CA         -0.7062  -27.5533  -47.3716 C.3       14 UNK         0.1400 
     81 CB          0.7309  -27.0485  -47.1739 C.3       14 UNK        -0.1800 
     82 C          -0.9362  -27.9957  -48.8310 C.2       14 UNK         0.5000 
     83 O          -0.7069  -29.1607  -49.1555 O.2       14 UNK        -0.5000 
     84 N          -1.4472  -27.0814  -49.6656 N.am      15 UNK        -0.5000 
     85 CA         -1.8969  -27.3132  -51.0403 C.3       15 UNK         0.1400 
     86 CB         -1.8109  -25.9882  -51.8183 C.3       15 UNK        -0.1800 
     87 C          -3.3053  -27.9505  -51.1335 C.2       15 UNK         0.5000 
     88 O          -3.9424  -27.8531  -52.1831 O.2       15 UNK        -0.5000 
     89 N          -3.7594  -28.6016  -50.0517 N.am      16 UNK        -0.5000 
     90 CA         -5.0261  -29.3210  -49.8937 C.3       16 UNK         0.1400 
     91 CB         -5.1258  -30.5060  -50.8783 C.3       16 UNK        -0.1800 
     92 C          -6.2475  -28.3831  -49.9301 C.2       16 UNK         0.5000 
     93 O          -7.2335  -28.6728  -50.6104 O.2       16 UNK        -0.5000 
     94 N          -6.1489  -27.2816  -49.1718 N.am      17 UNK        -0.5000 
     95 CA         -7.1491  -26.2221  -49.0057 C.3       17 UNK         0.1400 
     96 CB         -8.4103  -26.7580  -48.2959 C.3       17 UNK        -0.1800 
     97 C          -7.4517  -25.4979  -50.3322 C.2       17 UNK         0.5000 
     98 O          -8.6018  -25.4464  -50.7746 O.2       17 UNK        -0.5000 
     99 N          -6.3907  -24.9617  -50.9465 N.am      18 UNK        -0.5000 
    100 CA        -6.4442  -24.1431  -52.1570 C.3       18 UNK         0.1400 
    101 CB        -5.0112  -23.9167  -52.6646 C.3       18 UNK        -0.1800 
    102 C         -7.1554  -22.7950  -51.9210 C.2       18 UNK         0.5000 
    103 O         -7.1968  -22.3014  -50.7909 O.2       18 UNK        -0.5000 
    104 N         -7.6806  -22.2138  -53.0018 N.am      19 UNK        -0.5000 
    105 CA        -8.3135  -20.9003  -53.0288 C.3       19 UNK         0.1400 
    106 CB        -9.8362  -21.0562  -52.8841 C.3       19 UNK        -0.1800 
    107 C         -7.9475  -20.2200  -54.3530 C.2       19 UNK         0.5000 
    108 O         -7.7321  -20.9139  -55.3518 O.2       19 UNK        -0.5000 
    109 N         -7.8768  -18.8816  -54.3306 N.am      20 UNK        -0.5000 
    110 CA        -7.4518  -17.9641  -55.3991 C.3       20 UNK         0.1400 
    111 CB        -8.3542  -18.0719  -56.6442 C.3       20 UNK        -0.1800 
    112 C         -5.9583  -18.0980  -55.7598 C.2       20 UNK         0.5000 
    113 O         -5.2210  -17.1148  -55.6766 O.2       20 UNK        -0.5000 
    114 N         -5.5373  -19.3136  -56.1194 N.am      21 UNK        -0.5000 
    115 CA        -4.1443  -19.7171  -56.2737 C.3       21 UNK         0.1400 
    116 CB        -4.0879  -20.9030  -57.2500 C.3       21 UNK        -0.1800 
    117 C         -3.5443  -20.1129  -54.9118 C.2       21 UNK         0.5000 
    118 O         -4.2817  -20.4448  -53.9796 O.2       21 UNK        -0.5000 
    119 N         -2.2094  -20.1044  -54.8369 N.am      22 UNK        -0.5000 
    120 CA        -1.4345  -20.5086  -53.6509 C.3       22 UNK         0.1400 
    121 C         -1.3870  -22.0435  -53.3849 C.2       22 UNK         0.5000 
    122 N         -1.8574  -22.8974  -54.2858 N.am      22 UNK        -0.7600 
    123 O         -0.9152  -22.4647  -52.3335 O.2       22 UNK        -0.5000 
    124 C124       -0.0032  -19.9106  -53.6798 C.3       23 UNK        -0.0398 
    125 S125        0.0127  -18.0898  -53.5314 S.3       23 UNK        -0.2404 
    126 C126       -0.1630  -17.8529  -51.7315 C.3       23 UNK        -0.0205 
    127 H127       -1.1751  -10.8410  -45.1422 H         1 UNK         0.0600 
    128 H128       -0.1160  -11.9793  -44.3203 H         1 UNK         0.0600 
    129 H129       -1.2433  -12.5573  -45.5606 H         1 UNK         0.0600 
    130 H130        1.7118  -12.9147  -45.4991 H         1 UNK         0.3000 
    131 H131        2.3826  -12.0162  -48.1858 H         1 UNK         0.0600 
    132 H132        4.0667  -13.5407  -46.1308 H         1 UNK         0.0800 
    133 H133        4.5012  -13.2774  -47.7986 H         1 UNK         0.0800 
    134 H134        4.4863  -15.2869  -49.2046 H         1 UNK         0.0800 
    135 H135        3.1270  -14.4348  -49.9052 H         1 UNK         0.0800 
    136 H136        1.1812  -15.6767  -50.7702 H         1 UNK         0.1150 
    137 H137        1.4344  -19.9485  -50.9981 H         1 UNK         0.1150 
    138 H138        4.4033  -17.7498  -48.8478 H         1 UNK         0.1150 
    139 H139        3.6819  -20.9703  -50.4319 H         1 UNK         0.0800 
    140 H140        4.7733  -20.1012  -49.3880 H         1 UNK         0.0800 
    141 H141        1.5214  -21.9977  -49.7759 H         1 UNK         0.0800 
    142 H142        0.7362  -20.7527  -48.8260 H         1 UNK         0.0800 
    143 H143        1.3930  -23.5526  -47.7971 H         1 UNK         0.0600 
    144 H144        0.5617  -21.2709  -46.3481 H         1 UNK         0.3000 
    145 H145       -1.2265  -22.9601  -43.7380 H         1 UNK         0.0600 
    146 H146        0.3823  -21.5892  -42.4251 H         1 UNK         0.0600 
    147 H147        1.1700  -23.0041  -43.1065 H         1 UNK         0.0600 
    148 H148        1.4271  -21.4262  -43.8356 H         1 UNK         0.0600 
    149 H149       -0.6872  -20.1966  -44.3861 H         1 UNK         0.3000 
    150 H150       -3.7362  -19.6168  -46.1492 H         1 UNK         0.0600 
    151 H151       -4.3607  -19.5064  -43.7382 H         1 UNK         0.0600 
    152 H152       -3.9765  -17.9093  -44.3619 H         1 UNK         0.0600 
    153 H153       -2.8125  -18.7652  -43.3517 H         1 UNK         0.0600 
    154 H154       -1.5541  -17.9382  -45.3163 H         1 UNK         0.3000 
    155 H155        0.4241  -18.3199  -48.2529 H         1 UNK         0.0600 
    156 H156       -1.4342  -16.0335  -47.3804 H         1 UNK         0.0600 
    157 H157       -1.4028  -16.7740  -48.9766 H         1 UNK         0.0600 
    158 H158       -0.0168  -15.8590  -48.4084 H         1 UNK         0.0600 
    159 H159        0.7897  -16.5019  -46.2016 H         1 UNK         0.3000 
    160 H160        2.0163  -18.4499  -43.5661 H         1 UNK         0.0600 
    161 H161        4.1394  -17.2145  -43.8862 H         1 UNK         0.0600 
    162 H162        4.0089  -18.5036  -45.0735 H         1 UNK         0.0600 
    163 H163        3.7072  -16.8399  -45.5532 H         1 UNK         0.0600 
    164 H164        2.1099  -15.6393  -44.0613 H         1 UNK         0.3000 
    165 H165       -0.2279  -14.3185  -43.9626 H         1 UNK         0.0600 
    166 H166       -1.6925  -13.7522  -42.0385 H         1 UNK         0.0600 
    167 H167       -2.2263  -15.2304  -42.8203 H         1 UNK         0.0600 
    168 H168       -1.3481  -15.3145  -41.2963 H         1 UNK         0.0600 
    169 H169        0.7714  -14.0579  -41.2520 H         1 UNK         0.3000 
    170 H170        3.1444  -13.6473  -40.8731 H         1 UNK         0.0600 
    171 H171        4.3394  -11.9928  -43.1511 H         1 UNK         0.0600 
    172 H172        5.0558  -12.1998  -41.5552 H         1 UNK         0.0600 
    173 H173        4.8805  -13.5802  -42.6296 H         1 UNK         0.0600 
    174 H174        2.8160  -10.8441  -41.5640 H         1 UNK         0.3000 
    175 H175       -0.1500  -10.2816  -39.8312 H         1 UNK         0.0600 
    176 H176        2.5620   -9.7616  -38.4974 H         1 UNK         0.0600 
    177 H177        1.0624   -8.8925  -38.1670 H         1 UNK         0.0600 
    178 H178        1.2013  -10.5934  -37.7539 H         1 UNK         0.0600 
    179 H179        2.0167   -8.5298  -40.5449 H         1 UNK         0.3000 
    180 H180        0.4506   -7.4591  -43.4557 H         1 UNK         0.0600 
    181 H181        2.8164   -6.9788  -41.5571 H         1 UNK         0.0600 
    182 H182        1.1874   -6.3468  -41.3315 H         1 UNK         0.0600 
    183 H183        2.1399   -5.8434  -42.7150 H         1 UNK         0.0600 
    184 H184        2.0036   -8.1170  -44.8823 H         1 UNK         0.3000 
    185 H185        4.1333   -8.4992  -45.6845 H         1 UNK         0.0600 
    186 H186        6.1811   -8.7330  -44.2504 H         1 UNK         0.0600 
    187 H187        5.8550  -10.4480  -44.0415 H         1 UNK         0.0600 
    188 H188        6.2405   -9.8100  -45.6363 H         1 UNK         0.0600 
    189 H189        3.0179  -11.0530  -44.8870 H         1 UNK         0.3000 
    190 H190       -1.6215  -21.5821  -48.1345 H         1 UNK         0.3000 
    191 H191       -2.7690  -23.1017  -50.2107 H         1 UNK         0.0600 
    192 H192       -4.0950  -21.3919  -48.0437 H         1 UNK         0.0600 
    193 H193       -4.8936  -21.9735  -49.4992 H         1 UNK         0.0600 
    194 H194       -3.5556  -20.8446  -49.6316 H         1 UNK         0.0600 
    195 H195       -3.0242  -23.5050  -46.6523 H         1 UNK         0.3000 
    196 H196       -4.8561  -25.6783  -46.6610 H         1 UNK         0.0600 
    197 H197       -4.0170  -26.0580  -44.3432 H         1 UNK         0.0600 
    198 H198       -4.3667  -24.3606  -44.6318 H         1 UNK         0.0600 
    199 H199       -2.6990  -24.9270  -44.6212 H         1 UNK         0.0600 
    200 H200       -1.2545  -25.6302  -46.6603 H         1 UNK         0.3000 
    201 H201       -0.8457  -28.4321  -46.7390 H         1 UNK         0.0600 
    202 H202        0.9236  -26.8082  -46.1282 H         1 UNK         0.0600 
    203 H203        0.9287  -26.1536  -47.7638 H         1 UNK         0.0600 
    204 H204        1.4562  -27.8062  -47.4728 H         1 UNK         0.0600 
    205 H205       -1.5349  -26.1293  -49.3262 H         1 UNK         0.3000 
    206 H206       -1.2072  -28.0159  -51.5115 H         1 UNK         0.0600 
    207 H207       -0.8054  -25.5688  -51.7751 H         1 UNK         0.0600 
    208 H208       -2.0561  -26.1287  -52.8713 H         1 UNK         0.0600 
    209 H209       -2.4964  -25.2429  -51.4168 H         1 UNK         0.0600 
    210 H210       -3.1781  -28.5804  -49.2242 H         1 UNK         0.3000 
    211 H211       -5.0045  -29.7419  -48.8873 H         1 UNK         0.0600 
    212 H212       -5.2150  -30.1723  -51.9123 H         1 UNK         0.0600 
    213 H213       -5.9998  -31.1203  -50.6592 H         1 UNK         0.0600 
    214 H214       -4.2505  -31.1517  -50.8078 H         1 UNK         0.0600 
    215 H215       -5.2646  -27.1197  -48.7076 H         1 UNK         0.3000 
    216 H216       -6.7025  -25.4761  -48.3471 H         1 UNK         0.0600 
    217 H217       -9.1079  -25.9477  -48.0811 H         1 UNK         0.0600 
    218 H218       -8.1571  -27.2283  -47.3458 H         1 UNK         0.0600 
    219 H219       -8.9414  -27.4919  -48.9025 H         1 UNK         0.0600 
    220 H220       -5.4892  -25.0325  -50.4817 H         1 UNK         0.3000 
    221 H221       -6.9996  -24.6995  -52.9147 H         1 UNK         0.0600 
    222 H222       -4.4091  -23.3697  -51.9390 H         1 UNK         0.0600 
    223 H223       -4.5127  -24.8638  -52.8714 H         1 UNK         0.0600 
    224 H224       -5.0064  -23.3392  -53.5900 H         1 UNK         0.0600 
    225 H225       -7.5528  -22.6295  -53.9159 H         1 UNK         0.3000 
    226 H226       -7.9317  -20.2855  -52.2107 H         1 UNK         0.0600 
    227 H227      -10.0945  -21.5335  -51.9386 H         1 UNK         0.0600 
    228 H228      -10.3331  -20.0857  -52.9055 H         1 UNK         0.0600 
    229 H229      -10.2563  -21.6598  -53.6897 H         1 UNK         0.0600 
    230 H230       -8.0642  -18.4257  -53.4482 H         1 UNK         0.3000 
    231 H231       -7.5854  -16.9600  -54.9931 H         1 UNK         0.0600 
    232 H232       -9.4018  -17.9199  -56.3847 H         1 UNK         0.0600 
    233 H233       -8.2684  -19.0412  -57.1355 H         1 UNK         0.0600 
    234 H234       -8.0883  -17.3124  -57.3804 H         1 UNK         0.0600 
    235 H235       -6.2199  -20.0650  -56.0647 H         1 UNK         0.3000 
    236 H236       -3.5675  -18.8878  -56.6889 H         1 UNK         0.0600 
    237 H237       -3.0596  -21.2202  -57.4271 H         1 UNK         0.0600 
    238 H238       -4.6383  -21.7643  -56.8684 H         1 UNK         0.0600 
    239 H239       -4.5144  -20.6362  -58.2172 H         1 UNK         0.0600 
    240 H240       -1.6708  -19.8239  -55.6433 H         1 UNK         0.3000 
    241 H241       -1.9452  -20.0962  -52.7790 H         1 UNK         0.0600 
    242 H242       -1.8144  -23.8845  -54.0940 H         1 UNK         0.3800 
    243 H243       -2.2469  -22.5694  -55.1537 H         1 UNK         0.3800 
    244 H244        0.6185  -20.3355  -52.8963 H         1 UNK         0.0800 
    245 H245        0.4933  -20.1796  -54.6133 H         1 UNK         0.0800 
    246 H246       -0.7951  -18.6335  -51.3060 H         1 UNK         0.0800 
    247 H247       -0.7006  -16.9181  -51.5658 H         1 UNK         0.0800 
@<TRIPOS>BOND
     1    1    2 1    
     2    1  127 1    
     3    1  128 1    
     4    1  129 1    
     5    2    3 2    
     6    2    4 am   BACKBONE|DICT|INTERRES
     7    4    5 1    
     8    4  130 1    
     9    5    6 1    
    10    5   65 1    
    11    5  131 1    
    12    6    7 1    
    13    6  132 1    
    14    6  133 1    
    15    7    8 1    
    16    8    9 1    
    17    8  134 1    
    18    8  135 1    
    19    9   10 ar   
    20    9   14 ar   
    21   10   11 ar   
    22   10  136 1    
    23   11   12 ar   
    24   11  126 1    
    25   12   13 ar   
    26   12  137 1    
    27   13   14 ar   
    28   13   15 1    
    29   14  138 1    
    30   15   16 1    
    31   15  139 1    
    32   15  140 1    
    33   16   17 1    
    34   17   18 1    
    35   17  141 1    
    36   17  142 1    
    37   18   19 1    
    38   18   67 1    
    39   18  143 1    
    40   19   20 am   BACKBONE|DICT|INTERRES
    41   19  144 1    
    42   20   21 2    
    43   20   22 1    
    44   22   23 1    
    45   22   24 1    
    46   22  145 1    
    47   23  146 1    
    48   23  147 1    
    49   23  148 1    
    50   24   25 am   BACKBONE|DICT|INTERRES
    51   24  149 1    
    52   25   26 2    
    53   25   27 1    
    54   27   28 1    
    55   27   29 1    
    56   27  150 1    
    57   28  151 1    
    58   28  152 1    
    59   28  153 1    
    60   29   30 am   BACKBONE|DICT|INTERRES
    61   29  154 1    
    62   30   31 2    
    63   30   32 1    
    64   32   33 1    
    65   32   34 1    
    66   32  155 1    
    67   33  156 1    
    68   33  157 1    
    69   33  158 1    
    70   34   35 am   BACKBONE|DICT|INTERRES
    71   34  159 1    
    72   35   36 2    
    73   35   37 1    
    74   37   38 1    
    75   37   39 1    
    76   37  160 1    
    77   38  161 1    
    78   38  162 1    
    79   38  163 1    
    80   39   40 am   BACKBONE|DICT|INTERRES
    81   39  164 1    
    82   40   41 2    
    83   40   42 1    
    84   42   43 1    
    85   42   44 1    
    86   42  165 1    
    87   43  166 1    
    88   43  167 1    
    89   43  168 1    
    90   44   45 am   BACKBONE|DICT|INTERRES
    91   44  169 1    
    92   45   46 2    
    93   45   47 1    
    94   47   48 1    
    95   47   49 1    
    96   47  170 1    
    97   48  171 1    
    98   48  172 1    
    99   48  173 1    
   100   49   50 am   BACKBONE|DICT|INTERRES
   101   49  174 1    
   102   50   51 2    
   103   50   52 1    
   104   52   53 1    
   105   52   54 1    
   106   52  175 1    
   107   53  176 1    
   108   53  177 1    
   109   53  178 1    
   110   54   55 am   BACKBONE|DICT|INTERRES
   111   54  179 1    
   112   55   56 2    
   113   55   57 1    
   114   57   58 1    
   115   57   59 1    
   116   57  180 1    
   117   58  181 1    
   118   58  182 1    
   119   58  183 1    
   120   59   60 am   BACKBONE|DICT|INTERRES
   121   59  184 1    
   122   60   61 2    
   123   60   62 1    
   124   62   63 1    
   125   62   64 1    
   126   62  185 1    
   127   63  186 1    
   128   63  187 1    
   129   63  188 1    
   130   64   65 am   BACKBONE|DICT|INTERRES
   131   64  189 1    
   132   65   66 2    
   133   67   68 2    
   134   67   69 am   BACKBONE|DICT|INTERRES
   135   69   70 1    
   136   69  190 1    
   137   70   71 1    
   138   70   72 1    
   139   70  191 1    
   140   71  192 1    
   141   71  193 1    
   142   71  194 1    
   143   72   73 2    
   144   72   74 am   BACKBONE|DICT|INTERRES
   145   74   75 1    
   146   74  195 1    
   147   75   76 1    
   148   75   77 1    
   149   75  196 1    
   150   76  197 1    
   151   76  198 1    
   152   76  199 1    
   153   77   78 2    
   154   77   79 am   BACKBONE|DICT|INTERRES
   155   79   80 1    
   156   79  200 1    
   157   80   81 1    
   158   80   82 1    
   159   80  201 1    
   160   81  202 1    
   161   81  203 1    
   162   81  204 1    
   163   82   83 2    
   164   82   84 am   BACKBONE|DICT|INTERRES
   165   84   85 1    
   166   84  205 1    
   167   85   86 1    
   168   85   87 1    
   169   85  206 1    
   170   86  207 1    
   171   86  208 1    
   172   86  209 1    
   173   87   88 2    
   174   87   89 am   BACKBONE|DICT|INTERRES
   175   89   90 1    
   176   89  210 1    
   177   90   91 1    
   178   90   92 1    
   179   90  211 1    
   180   91  212 1    
   181   91  213 1    
   182   91  214 1    
   183   92   93 2    
   184   92   94 am   BACKBONE|DICT|INTERRES
   185   94   95 1    
   186   94  215 1    
   187   95   96 1    
   188   95   97 1    
   189   95  216 1    
   190   96  217 1    
   191   96  218 1    
   192   96  219 1    
   193   97   98 2    
   194   97   99 am   BACKBONE|DICT|INTERRES
   195   99  100 1    
   196   99  220 1    
   197  100  101 1    
   198  100  102 1    
   199  100  221 1    
   200  101  222 1    
   201  101  223 1    
   202  101  224 1    
   203  102  103 2    
   204  102  104 am   BACKBONE|DICT|INTERRES
   205  104  105 1    
   206  104  225 1    
   207  105  106 1    
   208  105  107 1    
   209  105  226 1    
   210  106  227 1    
   211  106  228 1    
   212  106  229 1    
   213  107  108 2    
   214  107  109 am   BACKBONE|DICT|INTERRES
   215  109  110 1    
   216  109  230 1    
   217  110  111 1    
   218  110  112 1    
   219  110  231 1    
   220  111  232 1    
   221  111  233 1    
   222  111  234 1    
   223  112  113 2    
   224  112  114 am   BACKBONE|DICT|INTERRES
   225  114  115 1    
   226  114  235 1    
   227  115  116 1    
   228  115  117 1    
   229  115  236 1    
   230  116  237 1    
   231  116  238 1    
   232  116  239 1    
   233  117  118 2    
   234  117  119 am   BACKBONE|DICT|INTERRES
   235  119  120 1    
   236  119  240 1    
   237  120  121 1    
   238  120  124 1    
   239  120  241 1    
   240  121  122 am   BACKBONE|DICT|INTERRES
   241  121  123 2    
   242  122  242 1    
   243  122  243 1    
   244  124  125 1    
   245  124  244 1    
   246  124  245 1    
   247  125  126 1    
   248  126  246 1    
   249  126  247 1    
@<TRIPOS>SUBSTRUCTURE
     1 UNK         1 GROUP             0       ****    0 ROOT    
