@<TRIPOS>MOLECULE
3R540
247   249    1
SMALL
USER_CHARGES


@<TRIPOS>ATOM
      1 CA          4.2371  -14.4218  -49.6101 C.3       0 UNK        -0.1800 
      2 C           2.9550  -14.5441  -48.8002 C.2       0 UNK         0.5000 
      3 O           3.0059  -14.5642  -47.5725 O.2       0 UNK        -0.5000 
      4 N           1.8035  -14.6017  -49.4814 N.am      1 UNK        -0.5000 
      5 CA          0.4625  -14.8161  -48.9154 C.3       1 UNK         0.1400 
      6 C6         -0.5020  -15.3619  -50.0029 C.3       23 UNK        -0.0398 
      7 S7         -1.8742  -16.3963  -49.3761 S.3       23 UNK        -0.2404 
      8 C8         -1.0376  -17.8527  -48.6648 C.3       23 UNK        -0.0205 
      9 C9          0.0161  -18.4507  -49.5861 C.ar      23 UNK        -0.0193 
     10 C10        -0.3497  -18.9941  -50.8202 C.ar      23 UNK        -0.1150 
     11 C11         0.6158  -19.5331  -51.6742 C.ar      23 UNK        -0.0193 
     12 C12         1.9555  -19.5431  -51.2765 C.ar      23 UNK        -0.1150 
     13 C13         2.3371  -19.0021  -50.0456 C.ar      23 UNK        -0.0193 
     14 C14         1.3615  -18.4516  -49.2085 C.ar      23 UNK        -0.1150 
     15 C15         3.8083  -18.9887  -49.6459 C.3       23 UNK        -0.0205 
     16 S16         4.1118  -19.6646  -47.9817 S.3       23 UNK        -0.2404 
     17 C17         3.3988  -21.3402  -48.1193 C.3       23 UNK        -0.0398 
     18 CA          4.0865  -22.3472  -47.1658 C.3       11 UNK         0.1400 
     19 N           3.9420  -21.9555  -45.7583 N.am      11 UNK        -0.5000 
     20 C           4.6821  -22.4255  -44.7453 C.2       10 UNK         0.5000 
     21 O           5.5753  -23.2626  -44.8801 O.2       10 UNK        -0.5000 
     22 CA          4.3633  -21.8744  -43.3448 C.3       10 UNK         0.1400 
     23 CB          4.9936  -20.4870  -43.1435 C.3       10 UNK        -0.1800 
     24 N           2.9213  -21.7926  -43.1149 N.am      10 UNK        -0.5000 
     25 C           2.1643  -22.8140  -42.6913 C.2       9 UNK         0.5000 
     26 O           2.6144  -23.9247  -42.4082 O.2       9 UNK        -0.5000 
     27 CA          0.6474  -22.5639  -42.5649 C.3       9 UNK         0.1400 
     28 CB          0.3029  -22.0681  -41.1524 C.3       9 UNK        -0.1800 
     29 N           0.1239  -21.6124  -43.5451 N.am      9 UNK        -0.5000 
     30 C           0.1221  -21.8044  -44.8715 C.2       8 UNK         0.5000 
     31 O           0.5187  -22.8355  -45.4127 O.2       8 UNK        -0.5000 
     32 CA         -0.3498  -20.6256  -45.7402 C.3       8 UNK         0.1400 
     33 CB         -1.8755  -20.6488  -45.8697 C.3       8 UNK        -0.1800 
     34 N           0.0782  -19.3166  -45.2400 N.am      8 UNK        -0.5000 
     35 C           1.3513  -18.9587  -45.0215 C.2       7 UNK         0.5000 
     36 O           2.3095  -19.7067  -45.1999 O.2       7 UNK        -0.5000 
     37 CA          1.5914  -17.5559  -44.4474 C.3       7 UNK         0.1400 
     38 CB          1.4385  -16.4820  -45.5317 C.3       7 UNK        -0.1800 
     39 N           0.6874  -17.2886  -43.3318 N.am      7 UNK        -0.5000 
     40 C           0.8493  -17.8027  -42.1040 C.2       6 UNK         0.5000 
     41 O           1.8334  -18.4587  -41.7620 O.2       6 UNK        -0.5000 
     42 CA         -0.2943  -17.5800  -41.0975 C.3       6 UNK         0.1400 
     43 CB         -0.0451  -16.3255  -40.2490 C.3       6 UNK        -0.1800 
     44 N          -1.6022  -17.4806  -41.7471 N.am      6 UNK        -0.5000 
     45 C          -2.2414  -18.5250  -42.2934 C.2       5 UNK         0.5000 
     46 O          -1.7980  -19.6734  -42.2869 O.2       5 UNK        -0.5000 
     47 CA         -3.5800  -18.2364  -42.9980 C.3       5 UNK         0.1400 
     48 CB         -4.7456  -18.3357  -42.0029 C.3       5 UNK        -0.1800 
     49 N          -3.6272  -16.9370  -43.6716 N.am      5 UNK        -0.5000 
     50 C          -2.8094  -16.5500  -44.6608 C.2       4 UNK         0.5000 
     51 O          -1.8878  -17.2425  -45.0932 O.2       4 UNK        -0.5000 
     52 CA         -3.0242  -15.1414  -45.2491 C.3       4 UNK         0.1400 
     53 CB         -4.3373  -14.4603  -44.8025 C.3       4 UNK        -0.1800 
     54 N          -1.8859  -14.2556  -44.9884 N.am      4 UNK        -0.5000 
     55 C          -1.3466  -13.9438  -43.7979 C.2       3 UNK         0.5000 
     56 O          -1.7275  -14.4330  -42.7329 O.2       3 UNK        -0.5000 
     57 CA         -0.1899  -12.9195  -43.7781 C.3       3 UNK         0.1400 
     58 CB          1.0117  -13.4339  -42.9676 C.3       3 UNK        -0.1800 
     59 N           0.2607  -12.5395  -45.1209 N.am      3 UNK        -0.5000 
     60 C          -0.2044  -11.4874  -45.8099 C.2       2 UNK         0.5000 
     61 O          -1.0307  -10.6902  -45.3648 O.2       2 UNK        -0.5000 
     62 CA          0.3178  -11.3039  -47.2504 C.3       2 UNK         0.1400 
     63 CB          1.5210  -10.3490  -47.2673 C.3       2 UNK        -0.1800 
     64 N           0.6927  -12.5507  -47.9254 N.am      2 UNK        -0.5000 
     65 C          -0.1201  -13.5896  -48.1649 C.2       1 UNK         0.5000 
     66 O          -1.2946  -13.6026  -47.7977 O.2       1 UNK        -0.5000 
     67 C           3.5826  -23.7817  -47.4380 C.2       11 UNK         0.5000 
     68 O           4.0343  -24.4010  -48.4019 O.2       11 UNK        -0.5000 
     69 N           2.6681  -24.2764  -46.5899 N.am      12 UNK        -0.5000 
     70 CA          2.0028  -25.5814  -46.6419 C.3       12 UNK         0.1400 
     71 CB          3.0162  -26.7315  -46.4633 C.3       12 UNK        -0.1800 
     72 C           1.1038  -25.7404  -47.8858 C.2       12 UNK         0.5000 
     73 O           1.0269  -26.8273  -48.4625 O.2       12 UNK        -0.5000 
     74 N           0.4327  -24.6503  -48.2726 N.am      13 UNK        -0.5000 
     75 CA         -0.4830  -24.5647  -49.4048 C.3       13 UNK         0.1400 
     76 CB          0.3118  -24.4511  -50.7176 C.3       13 UNK        -0.1800 
     77 C          -1.4036  -23.3529  -49.1997 C.2       13 UNK         0.5000 
     78 O          -1.0247  -22.4235  -48.4847 O.2       13 UNK        -0.5000 
     79 N          -2.5863  -23.3952  -49.8295 N.am      14 UNK        -0.5000 
     80 CA         -3.6933  -22.4383  -49.6950 C.3       14 UNK         0.1400 
     81 CB         -3.2847  -21.0377  -50.1928 C.3       14 UNK        -0.1800 
     82 C          -4.3131  -22.4550  -48.2779 C.2       14 UNK         0.5000 
     83 O          -4.2408  -23.4864  -47.6038 O.2       14 UNK        -0.5000 
     84 N          -4.9579  -21.3580  -47.8605 N.am      15 UNK        -0.5000 
     85 CA         -5.6528  -21.2455  -46.5782 C.3       15 UNK         0.1400 
     86 CB         -7.0511  -21.8953  -46.6794 C.3       15 UNK        -0.1800 
     87 C          -5.6740  -19.7717  -46.1391 C.2       15 UNK         0.5000 
     88 O          -4.6514  -19.0942  -46.2441 O.2       15 UNK        -0.5000 
     89 N          -6.8254  -19.2785  -45.6630 N.am      16 UNK        -0.5000 
     90 CA         -7.0757  -17.8691  -45.3577 C.3       16 UNK         0.1400 
     91 CB         -8.3490  -17.7605  -44.5016 C.3       16 UNK        -0.1800 
     92 C          -7.1610  -17.0505  -46.6614 C.2       16 UNK         0.5000 
     93 O          -8.2581  -16.7602  -47.1409 O.2       16 UNK        -0.5000 
     94 N          -5.9817  -16.7723  -47.2313 N.am      17 UNK        -0.5000 
     95 CA         -5.7380  -16.3313  -48.6037 C.3       17 UNK         0.1400 
     96 CB         -6.4376  -14.9915  -48.9266 C.3       17 UNK        -0.1800 
     97 C          -6.0396  -17.4882  -49.5794 C.2       17 UNK         0.5000 
     98 O          -5.6556  -18.6233  -49.2880 O.2       17 UNK        -0.5000 
     99 N          -6.7031  -17.1950  -50.7077 N.am      18 UNK        -0.5000 
    100 CA        -7.0668  -18.1379  -51.7739 C.3       18 UNK         0.1400 
    101 CB        -8.0854  -19.1822  -51.2678 C.3       18 UNK        -0.1800 
    102 C         -5.8303  -18.7768  -52.4407 C.2       18 UNK         0.5000 
    103 O         -5.7983  -19.9854  -52.6757 O.2       18 UNK        -0.5000 
    104 N         -4.8297  -17.9375  -52.7476 N.am      19 UNK        -0.5000 
    105 CA        -3.5340  -18.3176  -53.3238 C.3       19 UNK         0.1400 
    106 CB        -2.6410  -17.0704  -53.4063 C.3       19 UNK        -0.1800 
    107 C         -3.6094  -19.0306  -54.6900 C.2       19 UNK         0.5000 
    108 O         -2.6673  -19.7298  -55.0592 O.2       19 UNK        -0.5000 
    109 N         -4.7431  -18.8973  -55.3920 N.am      20 UNK        -0.5000 
    110 CA        -5.0811  -19.6423  -56.6074 C.3       20 UNK         0.1400 
    111 CB        -6.4015  -19.0932  -57.1696 C.3       20 UNK        -0.1800 
    112 C         -5.1742  -21.1720  -56.4042 C.2       20 UNK         0.5000 
    113 O         -5.1004  -21.9111  -57.3863 O.2       20 UNK        -0.5000 
    114 N         -5.3237  -21.6253  -55.1495 N.am      21 UNK        -0.5000 
    115 CA        -5.3048  -23.0361  -54.7623 C.3       21 UNK         0.1400 
    116 CB        -5.8562  -23.1679  -53.3346 C.3       21 UNK        -0.1800 
    117 C         -3.9091  -23.6880  -54.8573 C.2       21 UNK         0.5000 
    118 O         -3.8332  -24.9161  -54.9208 O.2       21 UNK        -0.5000 
    119 N         -2.8371  -22.8822  -54.8530 N.am      22 UNK        -0.5000 
    120 CA        -1.4514  -23.3452  -55.0239 C.3       22 UNK         0.1400 
    121 C         -1.1854  -23.8891  -56.4556 C.2       22 UNK         0.5000 
    122 N         -0.4634  -24.9943  -56.5831 N.am      22 UNK        -0.7600 
    123 O         -1.5869  -23.2938  -57.4529 O.2       22 UNK        -0.5000 
    124 C124       -0.4249  -22.2392  -54.6781 C.3       23 UNK        -0.0398 
    125 S125       -0.4828  -21.7427  -52.9253 S.3       23 UNK        -0.2404 
    126 C126        0.2224  -20.0736  -53.0392 C.3       23 UNK        -0.0205 
    127 H127        4.0409  -14.4125  -50.6825 H         1 UNK         0.0600 
    128 H128        4.8969  -15.2619  -49.3928 H         1 UNK         0.0600 
    129 H129        4.7590  -13.5007  -49.3505 H         1 UNK         0.0600 
    130 H130        1.8384  -14.5370  -50.4889 H         1 UNK         0.3000 
    131 H131        0.5792  -15.5905  -48.1582 H         1 UNK         0.0600 
    132 H132        0.0451  -15.9686  -50.7256 H         1 UNK         0.0800 
    133 H133       -0.9271  -14.5437  -50.5868 H         1 UNK         0.0800 
    134 H134       -0.6075  -17.5858  -47.6993 H         1 UNK         0.0800 
    135 H135       -1.7932  -18.6080  -48.4531 H         1 UNK         0.0800 
    136 H136       -1.3866  -18.9833  -51.1181 H         1 UNK         0.1150 
    137 H137        2.7042  -19.9598  -51.9354 H         1 UNK         0.1150 
    138 H138        1.6545  -18.0285  -48.2598 H         1 UNK         0.1150 
    139 H139        4.4110  -19.5476  -50.3634 H         1 UNK         0.0800 
    140 H140        4.1681  -17.9596  -49.6765 H         1 UNK         0.0800 
    141 H141        2.3284  -21.2796  -47.9130 H         1 UNK         0.0800 
    142 H142        3.4950  -21.6713  -49.1552 H         1 UNK         0.0800 
    143 H143        5.1538  -22.3455  -47.3977 H         1 UNK         0.0600 
    144 H144        3.2747  -21.2100  -45.5677 H         1 UNK         0.3000 
    145 H145        4.8058  -22.5491  -42.6088 H         1 UNK         0.0600 
    146 H146        4.7929  -20.1054  -42.1422 H         1 UNK         0.0600 
    147 H147        4.6140  -19.7579  -43.8597 H         1 UNK         0.0600 
    148 H148        6.0766  -20.5310  -43.2650 H         1 UNK         0.0600 
    149 H149        2.4709  -20.9259  -43.3799 H         1 UNK         0.3000 
    150 H150        0.1423  -23.5186  -42.7253 H         1 UNK         0.0600 
    151 H151        0.6730  -22.7579  -40.3928 H         1 UNK         0.0600 
    152 H152       -0.7754  -21.9840  -41.0165 H         1 UNK         0.0600 
    153 H153        0.7426  -21.0900  -40.9525 H         1 UNK         0.0600 
    154 H154       -0.2855  -20.7598  -43.1781 H         1 UNK         0.3000 
    155 H155        0.0841  -20.7501  -46.7339 H         1 UNK         0.0600 
    156 H156       -2.2254  -21.6164  -46.2295 H         1 UNK         0.0600 
    157 H157       -2.2170  -19.8970  -46.5782 H         1 UNK         0.0600 
    158 H158       -2.3643  -20.4628  -44.9150 H         1 UNK         0.0600 
    159 H159       -0.6555  -18.6276  -45.0893 H         1 UNK         0.3000 
    160 H160        2.6220  -17.5178  -44.0874 H         1 UNK         0.0600 
    161 H161        0.4056  -16.3586  -45.8525 H         1 UNK         0.0600 
    162 H162        2.0300  -16.7420  -46.4090 H         1 UNK         0.0600 
    163 H163        1.8011  -15.5153  -45.1886 H         1 UNK         0.0600 
    164 H164       -0.1839  -16.8257  -43.5507 H         1 UNK         0.3000 
    165 H165       -0.3102  -18.4409  -40.4254 H         1 UNK         0.0600 
    166 H166       -0.8100  -16.2115  -39.4807 H         1 UNK         0.0600 
    167 H167        0.9194  -16.3808  -39.7427 H         1 UNK         0.0600 
    168 H168       -0.0455  -15.4226  -40.8573 H         1 UNK         0.0600 
    169 H169       -1.9999  -16.5538  -41.8396 H         1 UNK         0.3000 
    170 H170       -3.7212  -19.0062  -43.7564 H         1 UNK         0.0600 
    171 H171       -4.7402  -19.2992  -41.4914 H         1 UNK         0.0600 
    172 H172       -4.6906  -17.5586  -41.2396 H         1 UNK         0.0600 
    173 H173       -5.7075  -18.2456  -42.5069 H         1 UNK         0.0600 
    174 H174       -4.3172  -16.2808  -43.3380 H         1 UNK         0.3000 
    175 H175       -3.0724  -15.2733  -46.3312 H         1 UNK         0.0600 
    176 H176       -4.4775  -13.5155  -45.3280 H         1 UNK         0.0600 
    177 H177       -5.2056  -15.0790  -45.0291 H         1 UNK         0.0600 
    178 H178       -4.3488  -14.2440  -43.7337 H         1 UNK         0.0600 
    179 H179       -1.4970  -13.8249  -45.8205 H         1 UNK         0.3000 
    180 H180       -0.5674  -12.0341  -43.2626 H         1 UNK         0.0600 
    181 H181        0.7601  -13.5018  -41.9093 H         1 UNK         0.0600 
    182 H182        1.8639  -12.7587  -43.0478 H         1 UNK         0.0600 
    183 H183        1.3338  -14.4227  -43.2883 H         1 UNK         0.0600 
    184 H184        0.9397  -13.1422  -45.5639 H         1 UNK         0.3000 
    185 H185       -0.4876  -10.8486  -47.8304 H         1 UNK         0.0600 
    186 H186        1.8374  -10.1300  -48.2873 H         1 UNK         0.0600 
    187 H187        1.2728   -9.3977  -46.7946 H         1 UNK         0.0600 
    188 H188        2.3742  -10.7688  -46.7330 H         1 UNK         0.0600 
    189 H189        1.6545  -12.6323  -48.2221 H         1 UNK         0.3000 
    190 H190        2.2951  -23.6465  -45.8872 H         1 UNK         0.3000 
    191 H191        1.3305  -25.6061  -45.7831 H         1 UNK         0.0600 
    192 H192        2.5043  -27.6872  -46.3463 H         1 UNK         0.0600 
    193 H193        3.6289  -26.5813  -45.5743 H         1 UNK         0.0600 
    194 H194        3.6840  -26.8229  -47.3202 H         1 UNK         0.0600 
    195 H195        0.4890  -23.8029  -47.7178 H         1 UNK         0.3000 
    196 H196       -1.0997  -25.4656  -49.4279 H         1 UNK         0.0600 
    197 H197       -0.3590  -24.4216  -51.5765 H         1 UNK         0.0600 
    198 H198        0.9769  -25.3027  -50.8593 H         1 UNK         0.0600 
    199 H199        0.9192  -23.5451  -50.7387 H         1 UNK         0.0600 
    200 H200       -2.7998  -24.2159  -50.3773 H         1 UNK         0.3000 
    201 H201       -4.4767  -22.8014  -50.3602 H         1 UNK         0.0600 
    202 H202       -2.6196  -20.5370  -49.4904 H         1 UNK         0.0600 
    203 H203       -4.1558  -20.4028  -50.3414 H         1 UNK         0.0600 
    204 H204       -2.7764  -21.0977  -51.1540 H         1 UNK         0.0600 
    205 H205       -4.9602  -20.5150  -48.4275 H         1 UNK         0.3000 
    206 H206       -5.0781  -21.7749  -45.8156 H         1 UNK         0.0600 
    207 H207       -6.9794  -22.9392  -46.9851 H         1 UNK         0.0600 
    208 H208       -7.5670  -21.8873  -45.7186 H         1 UNK         0.0600 
    209 H209       -7.6808  -21.3825  -47.4080 H         1 UNK         0.0600 
    210 H210       -7.6287  -19.8889  -45.6300 H         1 UNK         0.3000 
    211 H211       -6.2435  -17.4803  -44.7687 H         1 UNK         0.0600 
    212 H212       -9.2196  -18.1711  -45.0146 H         1 UNK         0.0600 
    213 H213       -8.5688  -16.7195  -44.2617 H         1 UNK         0.0600 
    214 H214       -8.2347  -18.2938  -43.5576 H         1 UNK         0.0600 
    215 H215       -5.1860  -17.2392  -46.8074 H         1 UNK         0.3000 
    216 H216       -4.6652  -16.1561  -48.6680 H         1 UNK         0.0600 
    217 H217       -6.0830  -14.5838  -49.8738 H         1 UNK         0.0600 
    218 H218       -6.2216  -14.2469  -48.1602 H         1 UNK         0.0600 
    219 H219       -7.5210  -15.0920  -48.9945 H         1 UNK         0.0600 
    220 H220       -6.9856  -16.2362  -50.8543 H         1 UNK         0.3000 
    221 H221       -7.5606  -17.5509  -52.5494 H         1 UNK         0.0600 
    222 H222       -8.4571  -19.7938  -52.0908 H         1 UNK         0.0600 
    223 H223       -7.6467  -19.8592  -50.5341 H         1 UNK         0.0600 
    224 H224       -8.9474  -18.7008  -50.8060 H         1 UNK         0.0600 
    225 H225       -4.9436  -16.9613  -52.5181 H         1 UNK         0.3000 
    226 H226       -3.0732  -19.0256  -52.6341 H         1 UNK         0.0600 
    227 H227       -2.4758  -16.6380  -52.4195 H         1 UNK         0.0600 
    228 H228       -1.6609  -17.3116  -53.8192 H         1 UNK         0.0600 
    229 H229       -3.0831  -16.3021  -54.0416 H         1 UNK         0.0600 
    230 H230       -5.4661  -18.3058  -55.0111 H         1 UNK         0.3000 
    231 H231       -4.2921  -19.4603  -57.3399 H         1 UNK         0.0600 
    232 H232       -6.6730  -19.5997  -58.0968 H         1 UNK         0.0600 
    233 H233       -6.3237  -18.0292  -57.3939 H         1 UNK         0.0600 
    234 H234       -7.2247  -19.2308  -56.4673 H         1 UNK         0.0600 
    235 H235       -5.4079  -20.9566  -54.3897 H         1 UNK         0.3000 
    236 H236       -5.9688  -23.5827  -55.4350 H         1 UNK         0.0600 
    237 H237       -5.2250  -22.6443  -52.6166 H         1 UNK         0.0600 
    238 H238       -6.8625  -22.7554  -53.2586 H         1 UNK         0.0600 
    239 H239       -5.9077  -24.2132  -53.0274 H         1 UNK         0.0600 
    240 H240       -2.9692  -21.8786  -54.8304 H         1 UNK         0.3000 
    241 H241       -1.2991  -24.1676  -54.3217 H         1 UNK         0.0600 
    242 H242       -0.2700  -25.3486  -57.5073 H         1 UNK         0.3800 
    243 H243       -0.1171  -25.4971  -55.7803 H         1 UNK         0.3800 
    244 H244       -0.5823  -21.3651  -55.3121 H         1 UNK         0.0800 
    245 H245        0.5911  -22.5832  -54.8804 H         1 UNK         0.0800 
    246 H246       -0.5008  -19.4061  -53.5063 H         1 UNK         0.0800 
    247 H247        1.0916  -20.0928  -53.6985 H         1 UNK         0.0800 
@<TRIPOS>BOND
     1    1    2 1    
     2    1  127 1    
     3    1  128 1    
     4    1  129 1    
     5    2    3 2    
     6    2    4 am   BACKBONE|DICT|INTERRES
     7    4    5 1    
     8    4  130 1    
     9    5    6 1    
    10    5   65 1    
    11    5  131 1    
    12    6    7 1    
    13    6  132 1    
    14    6  133 1    
    15    7    8 1    
    16    8    9 1    
    17    8  134 1    
    18    8  135 1    
    19    9   10 ar   
    20    9   14 ar   
    21   10   11 ar   
    22   10  136 1    
    23   11   12 ar   
    24   11  126 1    
    25   12   13 ar   
    26   12  137 1    
    27   13   14 ar   
    28   13   15 1    
    29   14  138 1    
    30   15   16 1    
    31   15  139 1    
    32   15  140 1    
    33   16   17 1    
    34   17   18 1    
    35   17  141 1    
    36   17  142 1    
    37   18   19 1    
    38   18   67 1    
    39   18  143 1    
    40   19   20 am   BACKBONE|DICT|INTERRES
    41   19  144 1    
    42   20   21 2    
    43   20   22 1    
    44   22   23 1    
    45   22   24 1    
    46   22  145 1    
    47   23  146 1    
    48   23  147 1    
    49   23  148 1    
    50   24   25 am   BACKBONE|DICT|INTERRES
    51   24  149 1    
    52   25   26 2    
    53   25   27 1    
    54   27   28 1    
    55   27   29 1    
    56   27  150 1    
    57   28  151 1    
    58   28  152 1    
    59   28  153 1    
    60   29   30 am   BACKBONE|DICT|INTERRES
    61   29  154 1    
    62   30   31 2    
    63   30   32 1    
    64   32   33 1    
    65   32   34 1    
    66   32  155 1    
    67   33  156 1    
    68   33  157 1    
    69   33  158 1    
    70   34   35 am   BACKBONE|DICT|INTERRES
    71   34  159 1    
    72   35   36 2    
    73   35   37 1    
    74   37   38 1    
    75   37   39 1    
    76   37  160 1    
    77   38  161 1    
    78   38  162 1    
    79   38  163 1    
    80   39   40 am   BACKBONE|DICT|INTERRES
    81   39  164 1    
    82   40   41 2    
    83   40   42 1    
    84   42   43 1    
    85   42   44 1    
    86   42  165 1    
    87   43  166 1    
    88   43  167 1    
    89   43  168 1    
    90   44   45 am   BACKBONE|DICT|INTERRES
    91   44  169 1    
    92   45   46 2    
    93   45   47 1    
    94   47   48 1    
    95   47   49 1    
    96   47  170 1    
    97   48  171 1    
    98   48  172 1    
    99   48  173 1    
   100   49   50 am   BACKBONE|DICT|INTERRES
   101   49  174 1    
   102   50   51 2    
   103   50   52 1    
   104   52   53 1    
   105   52   54 1    
   106   52  175 1    
   107   53  176 1    
   108   53  177 1    
   109   53  178 1    
   110   54   55 am   BACKBONE|DICT|INTERRES
   111   54  179 1    
   112   55   56 2    
   113   55   57 1    
   114   57   58 1    
   115   57   59 1    
   116   57  180 1    
   117   58  181 1    
   118   58  182 1    
   119   58  183 1    
   120   59   60 am   BACKBONE|DICT|INTERRES
   121   59  184 1    
   122   60   61 2    
   123   60   62 1    
   124   62   63 1    
   125   62   64 1    
   126   62  185 1    
   127   63  186 1    
   128   63  187 1    
   129   63  188 1    
   130   64   65 am   BACKBONE|DICT|INTERRES
   131   64  189 1    
   132   65   66 2    
   133   67   68 2    
   134   67   69 am   BACKBONE|DICT|INTERRES
   135   69   70 1    
   136   69  190 1    
   137   70   71 1    
   138   70   72 1    
   139   70  191 1    
   140   71  192 1    
   141   71  193 1    
   142   71  194 1    
   143   72   73 2    
   144   72   74 am   BACKBONE|DICT|INTERRES
   145   74   75 1    
   146   74  195 1    
   147   75   76 1    
   148   75   77 1    
   149   75  196 1    
   150   76  197 1    
   151   76  198 1    
   152   76  199 1    
   153   77   78 2    
   154   77   79 am   BACKBONE|DICT|INTERRES
   155   79   80 1    
   156   79  200 1    
   157   80   81 1    
   158   80   82 1    
   159   80  201 1    
   160   81  202 1    
   161   81  203 1    
   162   81  204 1    
   163   82   83 2    
   164   82   84 am   BACKBONE|DICT|INTERRES
   165   84   85 1    
   166   84  205 1    
   167   85   86 1    
   168   85   87 1    
   169   85  206 1    
   170   86  207 1    
   171   86  208 1    
   172   86  209 1    
   173   87   88 2    
   174   87   89 am   BACKBONE|DICT|INTERRES
   175   89   90 1    
   176   89  210 1    
   177   90   91 1    
   178   90   92 1    
   179   90  211 1    
   180   91  212 1    
   181   91  213 1    
   182   91  214 1    
   183   92   93 2    
   184   92   94 am   BACKBONE|DICT|INTERRES
   185   94   95 1    
   186   94  215 1    
   187   95   96 1    
   188   95   97 1    
   189   95  216 1    
   190   96  217 1    
   191   96  218 1    
   192   96  219 1    
   193   97   98 2    
   194   97   99 am   BACKBONE|DICT|INTERRES
   195   99  100 1    
   196   99  220 1    
   197  100  101 1    
   198  100  102 1    
   199  100  221 1    
   200  101  222 1    
   201  101  223 1    
   202  101  224 1    
   203  102  103 2    
   204  102  104 am   BACKBONE|DICT|INTERRES
   205  104  105 1    
   206  104  225 1    
   207  105  106 1    
   208  105  107 1    
   209  105  226 1    
   210  106  227 1    
   211  106  228 1    
   212  106  229 1    
   213  107  108 2    
   214  107  109 am   BACKBONE|DICT|INTERRES
   215  109  110 1    
   216  109  230 1    
   217  110  111 1    
   218  110  112 1    
   219  110  231 1    
   220  111  232 1    
   221  111  233 1    
   222  111  234 1    
   223  112  113 2    
   224  112  114 am   BACKBONE|DICT|INTERRES
   225  114  115 1    
   226  114  235 1    
   227  115  116 1    
   228  115  117 1    
   229  115  236 1    
   230  116  237 1    
   231  116  238 1    
   232  116  239 1    
   233  117  118 2    
   234  117  119 am   BACKBONE|DICT|INTERRES
   235  119  120 1    
   236  119  240 1    
   237  120  121 1    
   238  120  124 1    
   239  120  241 1    
   240  121  122 am   BACKBONE|DICT|INTERRES
   241  121  123 2    
   242  122  242 1    
   243  122  243 1    
   244  124  125 1    
   245  124  244 1    
   246  124  245 1    
   247  125  126 1    
   248  126  246 1    
   249  126  247 1    
@<TRIPOS>SUBSTRUCTURE
     1 UNK         1 GROUP             0       ****    0 ROOT    
