@<TRIPOS>MOLECULE
3R540
247   249    1
SMALL
USER_CHARGES


@<TRIPOS>ATOM
      1 CA         -3.3238  -15.7836  -45.4286 C.3       0 UNK        -0.1800 
      2 C          -2.2557  -14.7528  -45.7666 C.2       0 UNK         0.5000 
      3 O          -1.0940  -14.9386  -45.4099 O.2       0 UNK        -0.5000 
      4 N          -2.6398  -13.6606  -46.4414 N.am      1 UNK        -0.5000 
      5 CA         -1.7737  -12.5436  -46.8493 C.3       1 UNK         0.1400 
      6 C6         -0.7024  -12.9433  -47.9061 C.3       23 UNK        -0.0398 
      7 S7         -1.4462  -13.6521  -49.4120 S.3       23 UNK        -0.2404 
      8 C8          0.0210  -14.3403  -50.2401 C.3       23 UNK        -0.0205 
      9 C9         -0.3528  -15.5753  -51.0420 C.ar      23 UNK        -0.0193 
     10 C10        -0.8240  -15.4566  -52.3520 C.ar      23 UNK        -0.1150 
     11 C11        -1.2089  -16.5905  -53.0743 C.ar      23 UNK        -0.0193 
     12 C12        -1.1189  -17.8472  -52.4654 C.ar      23 UNK        -0.1150 
     13 C13        -0.6413  -17.9871  -51.1592 C.ar      23 UNK        -0.0193 
     14 C14        -0.2480  -16.8399  -50.4586 C.ar      23 UNK        -0.1150 
     15 C15        -0.5599  -19.3909  -50.5535 C.3       23 UNK        -0.0205 
     16 S16        -0.5400  -19.4612  -48.7286 S.3       23 UNK        -0.2404 
     17 C17        -2.1500  -18.7075  -48.2994 C.3       23 UNK        -0.0398 
     18 CA         -3.0829  -19.6898  -47.5523 C.3       11 UNK         0.1400 
     19 N          -2.4612  -20.2290  -46.3363 N.am      11 UNK        -0.5000 
     20 C          -2.8128  -21.3649  -45.7164 C.2       10 UNK         0.5000 
     21 O          -3.7326  -22.0870  -46.0979 O.2       10 UNK        -0.5000 
     22 CA         -2.0414  -21.7458  -44.4363 C.3       10 UNK         0.1400 
     23 CB         -0.9157  -22.7351  -44.7722 C.3       10 UNK        -0.1800 
     24 N          -1.4718  -20.5977  -43.7276 N.am      10 UNK        -0.5000 
     25 C          -2.1771  -19.5785  -43.2168 C.2       9 UNK         0.5000 
     26 O          -3.4071  -19.5379  -43.2161 O.2       9 UNK        -0.5000 
     27 CA         -1.3813  -18.3765  -42.6688 C.3       9 UNK         0.1400 
     28 CB         -1.2520  -18.4662  -41.1407 C.3       9 UNK        -0.1800 
     29 N          -0.0446  -18.1941  -43.2499 N.am      9 UNK        -0.5000 
     30 C           0.2409  -18.0585  -44.5549 C.2       8 UNK         0.5000 
     31 O          -0.6008  -18.1766  -45.4432 O.2       8 UNK        -0.5000 
     32 CA          1.7019  -17.7599  -44.9388 C.3       8 UNK         0.1400 
     33 CB          1.8030  -16.4490  -45.7365 C.3       8 UNK        -0.1800 
     34 N           2.5780  -17.6503  -43.7728 N.am      8 UNK        -0.5000 
     35 C           3.3643  -18.6175  -43.2838 C.2       7 UNK         0.5000 
     36 O           3.3817  -19.7687  -43.7214 O.2       7 UNK        -0.5000 
     37 CA          4.2804  -18.2096  -42.1058 C.3       7 UNK         0.1400 
     38 CB          5.4812  -19.1582  -41.9118 C.3       7 UNK        -0.1800 
     39 N           4.7172  -16.8094  -42.1966 N.am      7 UNK        -0.5000 
     40 C           5.4355  -16.2426  -43.1797 C.2       6 UNK         0.5000 
     41 O           5.9778  -16.8771  -44.0851 O.2       6 UNK        -0.5000 
     42 CA          5.5311  -14.7044  -43.1852 C.3       6 UNK         0.1400 
     43 CB          4.9256  -14.1377  -44.4795 C.3       6 UNK        -0.1800 
     44 N           4.8300  -14.0988  -42.0495 N.am      6 UNK        -0.5000 
     45 C           5.4176  -13.4061  -41.0642 C.2       5 UNK         0.5000 
     46 O           6.6263  -13.1754  -41.0134 O.2       5 UNK        -0.5000 
     47 CA          4.5065  -12.8883  -39.9324 C.3       5 UNK         0.1400 
     48 CB          4.0839  -11.4373  -40.2066 C.3       5 UNK        -0.1800 
     49 N           3.3095  -13.7077  -39.7268 N.am      5 UNK        -0.5000 
     50 C           3.3202  -14.9688  -39.2707 C.2       4 UNK         0.5000 
     51 O           4.3460  -15.5625  -38.9389 O.2       4 UNK        -0.5000 
     52 CA          1.9741  -15.7177  -39.2107 C.3       4 UNK         0.1400 
     53 CB          1.4311  -15.7324  -37.7741 C.3       4 UNK        -0.1800 
     54 N           0.9359  -15.1951  -40.1026 N.am      4 UNK        -0.5000 
     55 C           1.0118  -15.1096  -41.4369 C.2       3 UNK         0.5000 
     56 O           2.0191  -15.4127  -42.0821 O.2       3 UNK        -0.5000 
     57 CA         -0.2446  -14.6240  -42.1847 C.3       3 UNK         0.1400 
     58 CB         -1.4058  -14.1687  -41.2734 C.3       3 UNK        -0.1800 
     59 N           0.0692  -13.5951  -43.1720 N.am      3 UNK        -0.5000 
     60 C           0.6235  -12.3936  -42.9542 C.2       2 UNK         0.5000 
     61 O           0.9752  -11.9967  -41.8423 O.2       2 UNK        -0.5000 
     62 CA          0.8224  -11.4746  -44.1795 C.3       2 UNK         0.1400 
     63 CB          2.3158  -11.3248  -44.5059 C.3       2 UNK        -0.1800 
     64 N           0.1277  -11.9469  -45.3811 N.am      2 UNK        -0.5000 
     65 C          -1.1915  -11.8416  -45.5985 C.2       1 UNK         0.5000 
     66 O          -1.9568  -11.2443  -44.8391 O.2       1 UNK        -0.5000 
     67 C          -4.4732  -19.0657  -47.2969 C.2       11 UNK         0.5000 
     68 O          -5.1342  -18.6638  -48.2548 O.2       11 UNK        -0.5000 
     69 N          -4.9209  -19.0227  -46.0314 N.am      12 UNK        -0.5000 
     70 CA         -6.3229  -18.8007  -45.6706 C.3       12 UNK         0.1400 
     71 CB         -6.4105  -18.4400  -44.1806 C.3       12 UNK        -0.1800 
     72 C          -7.2030  -20.0311  -45.9885 C.2       12 UNK         0.5000 
     73 O          -8.4150  -19.8816  -46.1493 O.2       12 UNK        -0.5000 
     74 N          -6.5764  -21.2114  -46.0887 N.am      13 UNK        -0.5000 
     75 CA         -7.1493  -22.4561  -46.5889 C.3       13 UNK         0.1400 
     76 CB         -6.8975  -23.5646  -45.5481 C.3       13 UNK        -0.1800 
     77 C          -6.5255  -22.7691  -47.9663 C.2       13 UNK         0.5000 
     78 O          -6.0869  -21.8533  -48.6647 O.2       13 UNK        -0.5000 
     79 N          -6.5059  -24.0510  -48.3548 N.am      14 UNK        -0.5000 
     80 CA         -5.9757  -24.5111  -49.6416 C.3       14 UNK         0.1400 
     81 CB         -6.4960  -25.9296  -49.9204 C.3       14 UNK        -0.1800 
     82 C          -4.4377  -24.4884  -49.7336 C.2       14 UNK         0.5000 
     83 O          -3.9130  -24.4676  -50.8478 O.2       14 UNK        -0.5000 
     84 N          -3.7458  -24.5323  -48.5837 N.am      15 UNK        -0.5000 
     85 CA         -2.2838  -24.5953  -48.4355 C.3       15 UNK         0.1400 
     86 CB         -1.6368  -23.2585  -48.8534 C.3       15 UNK        -0.1800 
     87 C          -1.6618  -25.8023  -49.1708 C.2       15 UNK         0.5000 
     88 O          -0.6741  -25.6470  -49.8880 O.2       15 UNK        -0.5000 
     89 N          -2.2956  -26.9778  -49.0341 N.am      16 UNK        -0.5000 
     90 CA         -1.9792  -28.2231  -49.7525 C.3       16 UNK         0.1400 
     91 CB         -0.6185  -28.7925  -49.2985 C.3       16 UNK        -0.1800 
     92 C          -2.0905  -28.0641  -51.2874 C.2       16 UNK         0.5000 
     93 O          -1.2732  -28.6025  -52.0350 O.2       16 UNK        -0.5000 
     94 N          -3.1055  -27.2944  -51.7052 N.am      17 UNK        -0.5000 
     95 CA         -3.4520  -26.8753  -53.0663 C.3       17 UNK         0.1400 
     96 CB         -3.6207  -28.0756  -54.0198 C.3       17 UNK        -0.1800 
     97 C          -2.5399  -25.7797  -53.6551 C.2       17 UNK         0.5000 
     98 O          -2.7523  -25.3933  -54.8050 O.2       17 UNK        -0.5000 
     99 N          -1.5881  -25.2396  -52.8779 N.am      18 UNK        -0.5000 
    100 CA        -0.7357  -24.1269  -53.3066 C.3       18 UNK         0.1400 
    101 CB         0.4317  -23.9370  -52.3287 C.3       18 UNK        -0.1800 
    102 C         -1.5158  -22.8110  -53.4765 C.2       18 UNK         0.5000 
    103 O         -1.2087  -22.0454  -54.3894 O.2       18 UNK        -0.5000 
    104 N         -2.5365  -22.5827  -52.6358 N.am      19 UNK        -0.5000 
    105 CA        -3.4188  -21.4184  -52.7400 C.3       19 UNK         0.1400 
    106 CB        -4.1820  -21.2145  -51.4242 C.3       19 UNK        -0.1800 
    107 C         -4.3901  -21.5365  -53.9271 C.2       19 UNK         0.5000 
    108 O         -4.7501  -20.5172  -54.5145 O.2       19 UNK        -0.5000 
    109 N         -4.7652  -22.7752  -54.2794 N.am      20 UNK        -0.5000 
    110 CA        -5.5631  -23.0904  -55.4633 C.3       20 UNK         0.1400 
    111 CB        -6.1187  -24.5192  -55.3554 C.3       20 UNK        -0.1800 
    112 C         -4.7496  -22.8972  -56.7554 C.2       20 UNK         0.5000 
    113 O         -5.2361  -22.2540  -57.6859 O.2       20 UNK        -0.5000 
    114 N         -3.5059  -23.4017  -56.7691 N.am      21 UNK        -0.5000 
    115 CA        -2.5436  -23.2439  -57.8657 C.3       21 UNK         0.1400 
    116 CB        -1.2884  -24.0754  -57.5618 C.3       21 UNK        -0.1800 
    117 C         -2.1668  -21.7741  -58.1419 C.2       21 UNK         0.5000 
    118 O         -1.9547  -21.4052  -59.2975 O.2       21 UNK        -0.5000 
    119 N         -2.1295  -20.9615  -57.0795 N.am      22 UNK        -0.5000 
    120 CA        -1.9856  -19.4986  -57.1212 C.3       22 UNK         0.1400 
    121 C         -3.2331  -18.7398  -57.6805 C.2       22 UNK         0.5000 
    122 N         -4.3790  -19.3780  -57.8903 N.am      22 UNK        -0.7600 
    123 O         -3.1587  -17.5470  -57.9604 O.2       22 UNK        -0.5000 
    124 C124       -1.5500  -18.9783  -55.7268 C.3       23 UNK        -0.0398 
    125 S125       -0.7521  -17.3343  -55.7322 S.3       23 UNK        -0.2404 
    126 C126       -1.7512  -16.4422  -54.4934 C.3       23 UNK        -0.0205 
    127 H127       -4.2420  -15.6177  -45.9923 H         1 UNK         0.0600 
    128 H128       -3.5591  -15.7438  -44.3653 H         1 UNK         0.0600 
    129 H129       -2.9626  -16.7856  -45.6568 H         1 UNK         0.0600 
    130 H130       -3.6141  -13.5537  -46.6847 H         1 UNK         0.3000 
    131 H131       -2.4308  -11.8095  -47.3182 H         1 UNK         0.0600 
    132 H132       -0.1131  -12.0741  -48.2036 H         1 UNK         0.0800 
    133 H133       -0.0051  -13.6741  -47.4938 H         1 UNK         0.0800 
    134 H134        0.4604  -13.5822  -50.8901 H         1 UNK         0.0800 
    135 H135        0.7866  -14.5983  -49.5069 H         1 UNK         0.0800 
    136 H136       -0.9063  -14.4763  -52.8003 H         1 UNK         0.1150 
    137 H137       -1.4157  -18.7280  -53.0108 H         1 UNK         0.1150 
    138 H138        0.1262  -16.9177  -49.4482 H         1 UNK         0.1150 
    139 H139       -1.3958  -19.9957  -50.9054 H         1 UNK         0.0800 
    140 H140        0.3449  -19.8729  -50.9254 H         1 UNK         0.0800 
    141 H141       -1.9594  -17.8196  -47.6950 H         1 UNK         0.0800 
    142 H142       -2.6312  -18.3506  -49.2115 H         1 UNK         0.0800 
    143 H143       -3.2714  -20.5275  -48.2251 H         1 UNK         0.0600 
    144 H144       -1.7080  -19.6639  -45.9519 H         1 UNK         0.3000 
    145 H145       -2.7457  -22.2383  -43.7628 H         1 UNK         0.0600 
    146 H146       -0.3976  -23.0658  -43.8719 H         1 UNK         0.0600 
    147 H147       -1.3120  -23.6250  -45.2623 H         1 UNK         0.0600 
    148 H148       -0.1781  -22.2919  -45.4427 H         1 UNK         0.0600 
    149 H149       -0.4648  -20.5383  -43.6975 H         1 UNK         0.3000 
    150 H150       -1.9615  -17.4839  -42.9104 H         1 UNK         0.0600 
    151 H151       -2.2304  -18.5772  -40.6712 H         1 UNK         0.0600 
    152 H152       -0.7968  -17.5678  -40.7252 H         1 UNK         0.0600 
    153 H153       -0.6448  -19.3206  -40.8393 H         1 UNK         0.0600 
    154 H154        0.7232  -18.1182  -42.6003 H         1 UNK         0.3000 
    155 H155        2.0371  -18.5752  -45.5829 H         1 UNK         0.0600 
    156 H156        2.8197  -16.2847  -46.0933 H         1 UNK         0.0600 
    157 H157        1.5188  -15.5885  -45.1298 H         1 UNK         0.0600 
    158 H158        1.1505  -16.4651  -46.6110 H         1 UNK         0.0600 
    159 H159        2.5815  -16.7483  -43.3037 H         1 UNK         0.3000 
    160 H160        3.6634  -18.2755  -41.2087 H         1 UNK         0.0600 
    161 H161        6.1087  -19.2089  -42.8019 H         1 UNK         0.0600 
    162 H162        5.1455  -20.1724  -41.6927 H         1 UNK         0.0600 
    163 H163        6.1058  -18.8370  -41.0783 H         1 UNK         0.0600 
    164 H164        4.3318  -16.1907  -41.4982 H         1 UNK         0.3000 
    165 H165        6.5934  -14.4538  -43.1665 H         1 UNK         0.0600 
    166 H166        3.8659  -14.3815  -44.5636 H         1 UNK         0.0600 
    167 H167        5.0294  -13.0534  -44.5175 H         1 UNK         0.0600 
    168 H168        5.4264  -14.5399  -45.3610 H         1 UNK         0.0600 
    169 H169        3.8277  -14.2460  -42.0120 H         1 UNK         0.3000 
    170 H170        5.0876  -12.9046  -39.0080 H         1 UNK         0.0600 
    171 H171        4.9557  -10.7887  -40.3022 H         1 UNK         0.0600 
    172 H172        3.5115  -11.3531  -41.1307 H         1 UNK         0.0600 
    173 H173        3.4726  -11.0422  -39.3951 H         1 UNK         0.0600 
    174 H174        2.4265  -13.2981  -40.0006 H         1 UNK         0.3000 
    175 H175        2.1693  -16.7493  -39.5101 H         1 UNK         0.0600 
    176 H176        1.1825  -14.7281  -37.4286 H         1 UNK         0.0600 
    177 H177        0.5338  -16.3469  -37.6970 H         1 UNK         0.0600 
    178 H178        2.1654  -16.1457  -37.0812 H         1 UNK         0.0600 
    179 H179        0.0792  -14.8994  -39.6574 H         1 UNK         0.3000 
    180 H180       -0.5985  -15.4800  -42.7570 H         1 UNK         0.0600 
    181 H181       -1.1255  -13.3271  -40.6389 H         1 UNK         0.0600 
    182 H182       -1.7478  -14.9792  -40.6287 H         1 UNK         0.0600 
    183 H183       -2.2637  -13.8575  -41.8699 H         1 UNK         0.0600 
    184 H184       -0.1744  -13.8500  -44.1251 H         1 UNK         0.3000 
    185 H185        0.4326  -10.4906  -43.9108 H         1 UNK         0.0600 
    186 H186        2.4747  -10.5835  -45.2891 H         1 UNK         0.0600 
    187 H187        2.8832  -11.0000  -43.6327 H         1 UNK         0.0600 
    188 H188        2.7432  -12.2669  -44.8461 H         1 UNK         0.0600 
    189 H189        0.6880  -12.4718  -46.0358 H         1 UNK         0.3000 
    190 H190       -4.3094  -19.3309  -45.2854 H         1 UNK         0.3000 
    191 H191       -6.7038  -17.9563  -46.2488 H         1 UNK         0.0600 
    192 H192       -5.7881  -17.5763  -43.9450 H         1 UNK         0.0600 
    193 H193       -7.4346  -18.1909  -43.9002 H         1 UNK         0.0600 
    194 H194       -6.0902  -19.2679  -43.5472 H         1 UNK         0.0600 
    195 H195       -5.5657  -21.2281  -46.0067 H         1 UNK         0.3000 
    196 H196       -8.2261  -22.3519  -46.7341 H         1 UNK         0.0600 
    197 H197       -7.4128  -24.4881  -45.8132 H         1 UNK         0.0600 
    198 H198       -7.2667  -23.2680  -44.5662 H         1 UNK         0.0600 
    199 H199       -5.8351  -23.7903  -45.4466 H         1 UNK         0.0600 
    200 H200       -6.8883  -24.7558  -47.7411 H         1 UNK         0.3000 
    201 H201       -6.3573  -23.8541  -50.4260 H         1 UNK         0.0600 
    202 H202       -7.5858  -25.9536  -49.9331 H         1 UNK         0.0600 
    203 H203       -6.1533  -26.6413  -49.1683 H         1 UNK         0.0600 
    204 H204       -6.1561  -26.2885  -50.8929 H         1 UNK         0.0600 
    205 H205       -4.2718  -24.5184  -47.7216 H         1 UNK         0.3000 
    206 H206       -2.0824  -24.7440  -47.3741 H         1 UNK         0.0600 
    207 H207       -2.0529  -22.4294  -48.2897 H         1 UNK         0.0600 
    208 H208       -0.5625  -23.2635  -48.6660 H         1 UNK         0.0600 
    209 H209       -1.7846  -23.0452  -49.9110 H         1 UNK         0.0600 
    210 H210       -3.1038  -27.0121  -48.4287 H         1 UNK         0.3000 
    211 H211       -2.7461  -28.9452  -49.4684 H         1 UNK         0.0600 
    212 H212        0.2123  -28.1566  -49.6053 H         1 UNK         0.0600 
    213 H213       -0.4470  -29.7809  -49.7264 H         1 UNK         0.0600 
    214 H214       -0.5775  -28.8981  -48.2145 H         1 UNK         0.0600 
    215 H215       -3.6613  -26.8533  -50.9868 H         1 UNK         0.3000 
    216 H216       -4.4326  -26.4064  -52.9742 H         1 UNK         0.0600 
    217 H217       -4.2770  -28.8328  -53.5910 H         1 UNK         0.0600 
    218 H218       -2.6667  -28.5478  -54.2541 H         1 UNK         0.0600 
    219 H219       -4.0645  -27.7617  -54.9653 H         1 UNK         0.0600 
    220 H220       -1.4672  -25.5711  -51.9284 H         1 UNK         0.3000 
    221 H221       -0.3128  -24.3889  -54.2786 H         1 UNK         0.0600 
    222 H222        0.0913  -23.5892  -51.3538 H         1 UNK         0.0600 
    223 H223        0.9820  -24.8665  -52.1818 H         1 UNK         0.0600 
    224 H224        1.1370  -23.1964  -52.7077 H         1 UNK         0.0600 
    225 H225       -2.7815  -23.2839  -51.9423 H         1 UNK         0.3000 
    226 H226       -2.7999  -20.5362  -52.9058 H         1 UNK         0.0600 
    227 H227       -3.5143  -21.2343  -50.5635 H         1 UNK         0.0600 
    228 H228       -4.6928  -20.2510  -51.4172 H         1 UNK         0.0600 
    229 H229       -4.9416  -21.9811  -51.2765 H         1 UNK         0.0600 
    230 H230       -4.3998  -23.5535  -53.7517 H         1 UNK         0.3000 
    231 H231       -6.4115  -22.4033  -55.4954 H         1 UNK         0.0600 
    232 H232       -6.7656  -24.7469  -56.2034 H         1 UNK         0.0600 
    233 H233       -6.7141  -24.6436  -54.4507 H         1 UNK         0.0600 
    234 H234       -5.3275  -25.2682  -55.3412 H         1 UNK         0.0600 
    235 H235       -3.1995  -23.9661  -55.9808 H         1 UNK         0.3000 
    236 H236       -3.0066  -23.6416  -58.7710 H         1 UNK         0.0600 
    237 H237       -1.5352  -25.1290  -57.4292 H         1 UNK         0.0600 
    238 H238       -0.5684  -24.0095  -58.3784 H         1 UNK         0.0600 
    239 H239       -0.7899  -23.7318  -56.6552 H         1 UNK         0.0600 
    240 H240       -2.2498  -21.3719  -56.1617 H         1 UNK         0.3000 
    241 H241       -1.1720  -19.2890  -57.8181 H         1 UNK         0.0600 
    242 H242       -5.1627  -18.8647  -58.2606 H         1 UNK         0.3800 
    243 H243       -4.4803  -20.3681  -57.7012 H         1 UNK         0.3800 
    244 H244       -0.8116  -19.6555  -55.2969 H         1 UNK         0.0800 
    245 H245       -2.4019  -18.9957  -55.0463 H         1 UNK         0.0800 
    246 H246       -1.7690  -15.3895  -54.7793 H         1 UNK         0.0800 
    247 H247       -2.7894  -16.7751  -54.5277 H         1 UNK         0.0800 
@<TRIPOS>BOND
     1    1    2 1    
     2    1  127 1    
     3    1  128 1    
     4    1  129 1    
     5    2    3 2    
     6    2    4 am   BACKBONE|DICT|INTERRES
     7    4    5 1    
     8    4  130 1    
     9    5    6 1    
    10    5   65 1    
    11    5  131 1    
    12    6    7 1    
    13    6  132 1    
    14    6  133 1    
    15    7    8 1    
    16    8    9 1    
    17    8  134 1    
    18    8  135 1    
    19    9   10 ar   
    20    9   14 ar   
    21   10   11 ar   
    22   10  136 1    
    23   11   12 ar   
    24   11  126 1    
    25   12   13 ar   
    26   12  137 1    
    27   13   14 ar   
    28   13   15 1    
    29   14  138 1    
    30   15   16 1    
    31   15  139 1    
    32   15  140 1    
    33   16   17 1    
    34   17   18 1    
    35   17  141 1    
    36   17  142 1    
    37   18   19 1    
    38   18   67 1    
    39   18  143 1    
    40   19   20 am   BACKBONE|DICT|INTERRES
    41   19  144 1    
    42   20   21 2    
    43   20   22 1    
    44   22   23 1    
    45   22   24 1    
    46   22  145 1    
    47   23  146 1    
    48   23  147 1    
    49   23  148 1    
    50   24   25 am   BACKBONE|DICT|INTERRES
    51   24  149 1    
    52   25   26 2    
    53   25   27 1    
    54   27   28 1    
    55   27   29 1    
    56   27  150 1    
    57   28  151 1    
    58   28  152 1    
    59   28  153 1    
    60   29   30 am   BACKBONE|DICT|INTERRES
    61   29  154 1    
    62   30   31 2    
    63   30   32 1    
    64   32   33 1    
    65   32   34 1    
    66   32  155 1    
    67   33  156 1    
    68   33  157 1    
    69   33  158 1    
    70   34   35 am   BACKBONE|DICT|INTERRES
    71   34  159 1    
    72   35   36 2    
    73   35   37 1    
    74   37   38 1    
    75   37   39 1    
    76   37  160 1    
    77   38  161 1    
    78   38  162 1    
    79   38  163 1    
    80   39   40 am   BACKBONE|DICT|INTERRES
    81   39  164 1    
    82   40   41 2    
    83   40   42 1    
    84   42   43 1    
    85   42   44 1    
    86   42  165 1    
    87   43  166 1    
    88   43  167 1    
    89   43  168 1    
    90   44   45 am   BACKBONE|DICT|INTERRES
    91   44  169 1    
    92   45   46 2    
    93   45   47 1    
    94   47   48 1    
    95   47   49 1    
    96   47  170 1    
    97   48  171 1    
    98   48  172 1    
    99   48  173 1    
   100   49   50 am   BACKBONE|DICT|INTERRES
   101   49  174 1    
   102   50   51 2    
   103   50   52 1    
   104   52   53 1    
   105   52   54 1    
   106   52  175 1    
   107   53  176 1    
   108   53  177 1    
   109   53  178 1    
   110   54   55 am   BACKBONE|DICT|INTERRES
   111   54  179 1    
   112   55   56 2    
   113   55   57 1    
   114   57   58 1    
   115   57   59 1    
   116   57  180 1    
   117   58  181 1    
   118   58  182 1    
   119   58  183 1    
   120   59   60 am   BACKBONE|DICT|INTERRES
   121   59  184 1    
   122   60   61 2    
   123   60   62 1    
   124   62   63 1    
   125   62   64 1    
   126   62  185 1    
   127   63  186 1    
   128   63  187 1    
   129   63  188 1    
   130   64   65 am   BACKBONE|DICT|INTERRES
   131   64  189 1    
   132   65   66 2    
   133   67   68 2    
   134   67   69 am   BACKBONE|DICT|INTERRES
   135   69   70 1    
   136   69  190 1    
   137   70   71 1    
   138   70   72 1    
   139   70  191 1    
   140   71  192 1    
   141   71  193 1    
   142   71  194 1    
   143   72   73 2    
   144   72   74 am   BACKBONE|DICT|INTERRES
   145   74   75 1    
   146   74  195 1    
   147   75   76 1    
   148   75   77 1    
   149   75  196 1    
   150   76  197 1    
   151   76  198 1    
   152   76  199 1    
   153   77   78 2    
   154   77   79 am   BACKBONE|DICT|INTERRES
   155   79   80 1    
   156   79  200 1    
   157   80   81 1    
   158   80   82 1    
   159   80  201 1    
   160   81  202 1    
   161   81  203 1    
   162   81  204 1    
   163   82   83 2    
   164   82   84 am   BACKBONE|DICT|INTERRES
   165   84   85 1    
   166   84  205 1    
   167   85   86 1    
   168   85   87 1    
   169   85  206 1    
   170   86  207 1    
   171   86  208 1    
   172   86  209 1    
   173   87   88 2    
   174   87   89 am   BACKBONE|DICT|INTERRES
   175   89   90 1    
   176   89  210 1    
   177   90   91 1    
   178   90   92 1    
   179   90  211 1    
   180   91  212 1    
   181   91  213 1    
   182   91  214 1    
   183   92   93 2    
   184   92   94 am   BACKBONE|DICT|INTERRES
   185   94   95 1    
   186   94  215 1    
   187   95   96 1    
   188   95   97 1    
   189   95  216 1    
   190   96  217 1    
   191   96  218 1    
   192   96  219 1    
   193   97   98 2    
   194   97   99 am   BACKBONE|DICT|INTERRES
   195   99  100 1    
   196   99  220 1    
   197  100  101 1    
   198  100  102 1    
   199  100  221 1    
   200  101  222 1    
   201  101  223 1    
   202  101  224 1    
   203  102  103 2    
   204  102  104 am   BACKBONE|DICT|INTERRES
   205  104  105 1    
   206  104  225 1    
   207  105  106 1    
   208  105  107 1    
   209  105  226 1    
   210  106  227 1    
   211  106  228 1    
   212  106  229 1    
   213  107  108 2    
   214  107  109 am   BACKBONE|DICT|INTERRES
   215  109  110 1    
   216  109  230 1    
   217  110  111 1    
   218  110  112 1    
   219  110  231 1    
   220  111  232 1    
   221  111  233 1    
   222  111  234 1    
   223  112  113 2    
   224  112  114 am   BACKBONE|DICT|INTERRES
   225  114  115 1    
   226  114  235 1    
   227  115  116 1    
   228  115  117 1    
   229  115  236 1    
   230  116  237 1    
   231  116  238 1    
   232  116  239 1    
   233  117  118 2    
   234  117  119 am   BACKBONE|DICT|INTERRES
   235  119  120 1    
   236  119  240 1    
   237  120  121 1    
   238  120  124 1    
   239  120  241 1    
   240  121  122 am   BACKBONE|DICT|INTERRES
   241  121  123 2    
   242  122  242 1    
   243  122  243 1    
   244  124  125 1    
   245  124  244 1    
   246  124  245 1    
   247  125  126 1    
   248  126  246 1    
   249  126  247 1    
@<TRIPOS>SUBSTRUCTURE
     1 UNK         1 GROUP             0       ****    0 ROOT    
