@<TRIPOS>MOLECULE
3R540
247   249    1
SMALL
USER_CHARGES


@<TRIPOS>ATOM
      1 CA         -1.5865  -13.6481  -52.6537 C.3       0 UNK        -0.1800 
      2 C          -1.5623  -12.5029  -51.6447 C.2       0 UNK         0.5000 
      3 O          -1.6499  -11.3448  -52.0476 O.2       0 UNK        -0.5000 
      4 N          -1.4408  -12.7585  -50.3357 N.am      1 UNK        -0.5000 
      5 CA         -1.2913  -14.0681  -49.6866 C.3       1 UNK         0.1400 
      6 C6         -2.5644  -14.5074  -48.9106 C.3       23 UNK        -0.0398 
      7 S7         -4.0666  -14.5792  -49.9367 S.3       23 UNK        -0.2404 
      8 C8         -5.3658  -14.6221  -48.6638 C.3       23 UNK        -0.0205 
      9 C9         -5.8624  -16.0358  -48.3998 C.ar      23 UNK        -0.0193 
     10 C10        -6.9274  -16.5407  -49.1499 C.ar      23 UNK        -0.1150 
     11 C11        -7.4436  -17.8105  -48.8873 C.ar      23 UNK        -0.0193 
     12 C12        -6.8733  -18.5846  -47.8734 C.ar      23 UNK        -0.1150 
     13 C13        -5.8041  -18.1006  -47.1106 C.ar      23 UNK        -0.0193 
     14 C14        -5.3026  -16.8183  -47.3830 C.ar      23 UNK        -0.1150 
     15 C15        -5.2763  -18.9833  -45.9766 C.3       23 UNK        -0.0205 
     16 S16        -3.5987  -18.5905  -45.3702 S.3       23 UNK        -0.2404 
     17 C17        -3.2214  -20.0644  -44.3548 C.3       23 UNK        -0.0398 
     18 CA         -1.8929  -20.7662  -44.7597 C.3       11 UNK         0.1400 
     19 N          -1.4285  -21.7002  -43.7329 N.am      11 UNK        -0.5000 
     20 C          -1.9531  -22.8991  -43.4373 C.2       10 UNK         0.5000 
     21 O          -2.9428  -23.3710  -43.9989 O.2       10 UNK        -0.5000 
     22 CA         -1.2548  -23.7025  -42.3287 C.3       10 UNK         0.1400 
     23 CB          0.0457  -24.3298  -42.8542 C.3       10 UNK        -0.1800 
     24 N          -0.9370  -22.8395  -41.1942 N.am      10 UNK        -0.5000 
     25 C          -1.6033  -22.8088  -40.0329 C.2       9 UNK         0.5000 
     26 O          -2.5235  -23.5763  -39.7477 O.2       9 UNK        -0.5000 
     27 CA         -1.1782  -21.7276  -39.0163 C.3       9 UNK         0.1400 
     28 CB         -0.1419  -22.2922  -38.0327 C.3       9 UNK        -0.1800 
     29 N          -0.6297  -20.5253  -39.6489 N.am      9 UNK        -0.5000 
     30 C          -1.3291  -19.6882  -40.4273 C.2       8 UNK         0.5000 
     31 O          -2.5437  -19.7818  -40.6060 O.2       8 UNK        -0.5000 
     32 CA         -0.5499  -18.5710  -41.1498 C.3       8 UNK         0.1400 
     33 CB         -0.7473  -17.2339  -40.4196 C.3       8 UNK        -0.1800 
     34 N           0.8889  -18.8017  -41.3439 N.am      8 UNK        -0.5000 
     35 C           1.4494  -19.8467  -41.9733 C.2       7 UNK         0.5000 
     36 O           0.8246  -20.8519  -42.3155 O.2       7 UNK        -0.5000 
     37 CA          2.9446  -19.7188  -42.3086 C.3       7 UNK         0.1400 
     38 CB          3.4378  -20.8149  -43.2730 C.3       7 UNK        -0.1800 
     39 N           3.1880  -18.4074  -42.9039 N.am      7 UNK        -0.5000 
     40 C           4.2358  -17.6133  -42.6491 C.2       6 UNK         0.5000 
     41 O           5.1433  -17.9178  -41.8741 O.2       6 UNK        -0.5000 
     42 CA          4.2932  -16.2464  -43.3685 C.3       6 UNK         0.1400 
     43 CB          5.3633  -16.2621  -44.4711 C.3       6 UNK        -0.1800 
     44 N           3.0192  -15.8281  -43.9566 N.am      6 UNK        -0.5000 
     45 C           1.9269  -15.4778  -43.2641 C.2       5 UNK         0.5000 
     46 O           1.8979  -15.3946  -42.0364 O.2       5 UNK        -0.5000 
     47 CA          0.6399  -15.2277  -44.0753 C.3       5 UNK         0.1400 
     48 CB          0.4924  -13.7368  -44.4119 C.3       5 UNK        -0.1800 
     49 N           0.5725  -16.0047  -45.3151 N.am      5 UNK        -0.5000 
     50 C           0.5576  -17.3420  -45.3956 C.2       4 UNK         0.5000 
     51 O           0.5861  -18.0826  -44.4176 O.2       4 UNK        -0.5000 
     52 CA          0.5838  -17.9524  -46.8036 C.3       4 UNK         0.1400 
     53 CB         -0.8015  -17.9152  -47.4655 C.3       4 UNK        -0.1800 
     54 N           1.5319  -17.2405  -47.6535 N.am      4 UNK        -0.5000 
     55 C           2.8566  -17.4321  -47.6508 C.2       3 UNK         0.5000 
     56 O           3.4264  -18.2707  -46.9539 O.2       3 UNK        -0.5000 
     57 CA          3.6823  -16.5307  -48.5881 C.3       3 UNK         0.1400 
     58 CB          3.8921  -17.2319  -49.9377 C.3       3 UNK        -0.1800 
     59 N           3.0586  -15.2248  -48.8207 N.am      3 UNK        -0.5000 
     60 C           2.9473  -14.2658  -47.8912 C.2       2 UNK         0.5000 
     61 O           3.3870  -14.3708  -46.7460 O.2       2 UNK        -0.5000 
     62 CA          2.1662  -12.9997  -48.2956 C.3       2 UNK         0.1400 
     63 CB          3.0845  -12.0109  -49.0290 C.3       2 UNK        -0.1800 
     64 N           0.9737  -13.2544  -49.1158 N.am      2 UNK        -0.5000 
     65 C          -0.0552  -14.0410  -48.7626 C.2       1 UNK         0.5000 
     66 O          -0.0528  -14.7162  -47.7348 O.2       1 UNK        -0.5000 
     67 C          -1.8908  -21.4544  -46.1444 C.2       11 UNK         0.5000 
     68 O          -0.8186  -21.8094  -46.6406 O.2       11 UNK        -0.5000 
     69 N          -3.0769  -21.6793  -46.7227 N.am      12 UNK        -0.5000 
     70 CA         -3.2874  -22.3469  -48.0055 C.3       12 UNK         0.1400 
     71 CB         -4.7703  -22.2403  -48.3880 C.3       12 UNK        -0.1800 
     72 C          -2.8137  -23.8103  -48.0407 C.2       12 UNK         0.5000 
     73 O          -2.4759  -24.2959  -49.1185 O.2       12 UNK        -0.5000 
     74 N          -2.7401  -24.4762  -46.8787 N.am      13 UNK        -0.5000 
     75 CA         -2.1876  -25.8277  -46.7586 C.3       13 UNK         0.1400 
     76 CB         -2.5761  -26.4243  -45.3974 C.3       13 UNK        -0.1800 
     77 C          -0.6594  -25.8808  -46.9700 C.2       13 UNK         0.5000 
     78 O          -0.1418  -26.9472  -47.3040 O.2       13 UNK        -0.5000 
     79 N           0.0289  -24.7446  -46.7861 N.am      14 UNK        -0.5000 
     80 CA          1.4598  -24.5931  -47.0407 C.3       14 UNK         0.1400 
     81 CB          2.1058  -23.8001  -45.8916 C.3       14 UNK        -0.1800 
     82 C           1.7111  -23.8974  -48.3877 C.2       14 UNK         0.5000 
     83 O           2.5049  -24.3930  -49.1881 O.2       14 UNK        -0.5000 
     84 N           1.0521  -22.7514  -48.6048 N.am      15 UNK        -0.5000 
     85 CA          1.3090  -21.8617  -49.7385 C.3       15 UNK         0.1400 
     86 CB          0.8982  -20.4385  -49.3456 C.3       15 UNK        -0.1800 
     87 C           0.6372  -22.2861  -51.0554 C.2       15 UNK         0.5000 
     88 O           1.1294  -21.9001  -52.1172 O.2       15 UNK        -0.5000 
     89 N          -0.4581  -23.0578  -50.9762 N.am      16 UNK        -0.5000 
     90 CA         -1.2436  -23.5894  -52.0951 C.3       16 UNK         0.1400 
     91 CB         -0.4800  -24.7517  -52.7676 C.3       16 UNK        -0.1800 
     92 C          -1.6941  -22.4844  -53.0741 C.2       16 UNK         0.5000 
     93 O          -2.5712  -21.6879  -52.7308 O.2       16 UNK        -0.5000 
     94 N          -1.0731  -22.4361  -54.2602 N.am      17 UNK        -0.5000 
     95 CA         -1.3115  -21.4388  -55.3023 C.3       17 UNK         0.1400 
     96 CB         -0.4668  -21.7868  -56.5369 C.3       17 UNK        -0.1800 
     97 C          -1.0305  -19.9937  -54.8485 C.2       17 UNK         0.5000 
     98 O          -1.7462  -19.0798  -55.2604 O.2       17 UNK        -0.5000 
     99 N          -0.0213  -19.8160  -53.9837 N.am      18 UNK        -0.5000 
    100 CA         0.4089  -18.5138  -53.4724 C.3       18 UNK         0.1400 
    101 CB         1.8599  -18.6121  -52.9795 C.3       18 UNK        -0.1800 
    102 C         -0.5241  -17.9257  -52.3945 C.2       18 UNK         0.5000 
    103 O         -0.3734  -16.7534  -52.0549 O.2       18 UNK        -0.5000 
    104 N         -1.4996  -18.7066  -51.9092 N.am      19 UNK        -0.5000 
    105 CA        -2.5948  -18.2402  -51.0570 C.3       19 UNK         0.1400 
    106 CB        -2.9620  -19.3471  -50.0534 C.3       19 UNK        -0.1800 
    107 C         -3.8002  -17.8275  -51.9225 C.2       19 UNK         0.5000 
    108 O         -4.9082  -18.2998  -51.6835 O.2       19 UNK        -0.5000 
    109 N         -3.5584  -17.0043  -52.9550 N.am      20 UNK        -0.5000 
    110 CA        -4.5428  -16.4954  -53.9224 C.3       20 UNK         0.1400 
    111 CB        -5.4279  -15.4175  -53.2637 C.3       20 UNK        -0.1800 
    112 C         -5.3681  -17.6097  -54.6082 C.2       20 UNK         0.5000 
    113 O         -6.5728  -17.4546  -54.8153 O.2       20 UNK        -0.5000 
    114 N         -4.6912  -18.7226  -54.9266 N.am      21 UNK        -0.5000 
    115 CA        -5.2236  -19.9598  -55.5047 C.3       21 UNK         0.1400 
    116 CB        -5.8323  -19.7074  -56.9005 C.3       21 UNK        -0.1800 
    117 C         -6.1635  -20.7679  -54.5808 C.2       21 UNK         0.5000 
    118 O         -6.8251  -21.6860  -55.0698 O.2       21 UNK        -0.5000 
    119 N         -6.2036  -20.4596  -53.2760 N.am      22 UNK        -0.5000 
    120 CA        -7.0070  -21.1997  -52.2853 C.3       22 UNK         0.1400 
    121 C         -6.4432  -22.6009  -51.9126 C.2       22 UNK         0.5000 
    122 N         -5.1711  -22.9015  -52.1432 N.am      22 UNK        -0.7600 
    123 O         -7.1829  -23.4413  -51.4083 O.2       22 UNK        -0.5000 
    124 C124       -7.2822  -20.3724  -51.0050 C.3       23 UNK        -0.0398 
    125 S125       -8.2275  -18.8512  -51.3489 S.3       23 UNK        -0.2404 
    126 C126       -8.6522  -18.3180  -49.6626 C.3       23 UNK        -0.0205 
    127 H127       -2.2994  -14.4178  -52.3620 H         1 UNK         0.0600 
    128 H128       -0.5978  -14.0981  -52.7418 H         1 UNK         0.0600 
    129 H129       -1.8798  -13.2852  -53.6388 H         1 UNK         0.0600 
    130 H130       -1.4329  -11.9743  -49.6984 H         1 UNK         0.3000 
    131 H131       -1.0710  -14.8391  -50.4230 H         1 UNK         0.0600 
    132 H132       -2.4304  -15.4985  -48.4782 H         1 UNK         0.0800 
    133 H133       -2.7418  -13.8273  -48.0759 H         1 UNK         0.0800 
    134 H134       -5.0173  -14.1637  -47.7375 H         1 UNK         0.0800 
    135 H135       -6.1974  -14.0029  -49.0036 H         1 UNK         0.0800 
    136 H136       -7.3681  -15.9376  -49.9314 H         1 UNK         0.1150 
    137 H137       -7.2806  -19.5633  -47.6616 H         1 UNK         0.1150 
    138 H138       -4.4922  -16.4119  -46.7958 H         1 UNK         0.1150 
    139 H139       -5.9697  -18.9154  -45.1376 H         1 UNK         0.0800 
    140 H140       -5.2961  -20.0205  -46.3083 H         1 UNK         0.0800 
    141 H141       -3.1383  -19.7146  -43.3251 H         1 UNK         0.0800 
    142 H142       -4.0586  -20.7636  -44.3496 H         1 UNK         0.0800 
    143 H143       -1.1221  -19.9984  -44.8130 H         1 UNK         0.0600 
    144 H144       -0.5821  -21.4133  -43.2444 H         1 UNK         0.3000 
    145 H145       -1.9248  -24.5097  -42.0258 H         1 UNK         0.0600 
    146 H146        0.4994  -24.9758  -42.1027 H         1 UNK         0.0600 
    147 H147       -0.1344  -24.9387  -43.7401 H         1 UNK         0.0600 
    148 H148        0.7783  -23.5677  -43.1217 H         1 UNK         0.0600 
    149 H149       -0.2200  -22.1394  -41.3585 H         1 UNK         0.3000 
    150 H150       -2.0663  -21.4378  -38.4505 H         1 UNK         0.0600 
    151 H151       -0.5283  -23.1761  -37.5233 H         1 UNK         0.0600 
    152 H152        0.1129  -21.5616  -37.2647 H         1 UNK         0.0600 
    153 H153        0.7788  -22.5824  -38.5407 H         1 UNK         0.0600 
    154 H154        0.3631  -20.3709  -39.5538 H         1 UNK         0.3000 
    155 H155       -0.9909  -18.4793  -42.1445 H         1 UNK         0.0600 
    156 H156       -1.8058  -17.0268  -40.2551 H         1 UNK         0.0600 
    157 H157       -0.3474  -16.4034  -40.9997 H         1 UNK         0.0600 
    158 H158       -0.2565  -17.2325  -39.4456 H         1 UNK         0.0600 
    159 H159        1.4884  -18.0212  -41.1158 H         1 UNK         0.3000 
    160 H160        3.4854  -19.8144  -41.3650 H         1 UNK         0.0600 
    161 H161        2.9084  -20.7755  -44.2264 H         1 UNK         0.0600 
    162 H162        3.2852  -21.8092  -42.8513 H         1 UNK         0.0600 
    163 H163        4.5032  -20.7092  -43.4778 H         1 UNK         0.0600 
    164 H164        2.4573  -18.0798  -43.5280 H         1 UNK         0.3000 
    165 H165        4.5813  -15.5004  -42.6250 H         1 UNK         0.0600 
    166 H166        5.1304  -16.9926  -45.2461 H         1 UNK         0.0600 
    167 H167        5.4547  -15.2856  -44.9474 H         1 UNK         0.0600 
    168 H168        6.3423  -16.5172  -44.0637 H         1 UNK         0.0600 
    169 H169        2.9688  -15.8138  -44.9671 H         1 UNK         0.3000 
    170 H170       -0.2058  -15.5263  -43.4526 H         1 UNK         0.0600 
    171 H171       -0.4418  -13.5415  -44.9388 H         1 UNK         0.0600 
    172 H172        0.4895  -13.1297  -43.5058 H         1 UNK         0.0600 
    173 H173        1.3110  -13.3858  -45.0409 H         1 UNK         0.0600 
    174 H174        0.4969  -15.4736  -46.1800 H         1 UNK         0.3000 
    175 H175        0.8963  -18.9947  -46.7153 H         1 UNK         0.0600 
    176 H176       -0.7288  -17.9148  -48.5526 H         1 UNK         0.0600 
    177 H177       -1.3813  -18.7912  -47.1853 H         1 UNK         0.0600 
    178 H178       -1.3760  -17.0378  -47.1704 H         1 UNK         0.0600 
    179 H179        1.1559  -16.4761  -48.1969 H         1 UNK         0.3000 
    180 H180        4.6582  -16.3700  -48.1247 H         1 UNK         0.0600 
    181 H181        2.9411  -17.4299  -50.4320 H         1 UNK         0.0600 
    182 H182        4.3982  -18.1893  -49.8066 H         1 UNK         0.0600 
    183 H183        4.5045  -16.6293  -50.6087 H         1 UNK         0.0600 
    184 H184        2.6670  -15.0587  -49.7362 H         1 UNK         0.3000 
    185 H185        1.8270  -12.5234  -47.3737 H         1 UNK         0.0600 
    186 H186        2.5756  -11.0656  -49.2183 H         1 UNK         0.0600 
    187 H187        3.9717  -11.7868  -48.4350 H         1 UNK         0.0600 
    188 H188        3.4222  -12.4086  -49.9868 H         1 UNK         0.0600 
    189 H189        0.8983  -12.7301  -49.9756 H         1 UNK         0.3000 
    190 H190       -3.9089  -21.3987  -46.2284 H         1 UNK         0.3000 
    191 H191       -2.7000  -21.8175  -48.7560 H         1 UNK         0.0600 
    192 H192       -4.9701  -22.7663  -49.3209 H         1 UNK         0.0600 
    193 H193       -5.0671  -21.2018  -48.5337 H         1 UNK         0.0600 
    194 H194       -5.4166  -22.6746  -47.6246 H         1 UNK         0.0600 
    195 H195       -3.0112  -24.0129  -46.0178 H         1 UNK         0.3000 
    196 H196       -2.6425  -26.4479  -47.5341 H         1 UNK         0.0600 
    197 H197       -2.2355  -27.4570  -45.3134 H         1 UNK         0.0600 
    198 H198       -3.6577  -26.4273  -45.2620 H         1 UNK         0.0600 
    199 H199       -2.1373  -25.8690  -44.5701 H         1 UNK         0.0600 
    200 H200       -0.4775  -23.8996  -46.5526 H         1 UNK         0.3000 
    201 H201        1.9474  -25.5696  -47.0793 H         1 UNK         0.0600 
    202 H202        2.0903  -24.3760  -44.9673 H         1 UNK         0.0600 
    203 H203        1.5965  -22.8532  -45.7075 H         1 UNK         0.0600 
    204 H204        3.1507  -23.5741  -46.1086 H         1 UNK         0.0600 
    205 H205        0.4175  -22.4030  -47.8901 H         1 UNK         0.3000 
    206 H206        2.3839  -21.8470  -49.9329 H         1 UNK         0.0600 
    207 H207        1.6091  -20.0318  -48.6290 H         1 UNK         0.0600 
    208 H208        0.8785  -19.7619  -50.1985 H         1 UNK         0.0600 
    209 H209       -0.0890  -20.4209  -48.8885 H         1 UNK         0.0600 
    210 H210       -0.7985  -23.3223  -50.0604 H         1 UNK         0.3000 
    211 H211       -2.1601  -24.0025  -51.6743 H         1 UNK         0.0600 
    212 H212        0.4892  -24.4410  -53.1593 H         1 UNK         0.0600 
    213 H213       -1.0546  -25.1785  -53.5907 H         1 UNK         0.0600 
    214 H214       -0.2998  -25.5561  -52.0540 H         1 UNK         0.0600 
    215 H215       -0.3424  -23.1092  -54.4400 H         1 UNK         0.3000 
    216 H216       -2.3610  -21.5075  -55.5846 H         1 UNK         0.0600 
    217 H217        0.6005  -21.7741  -56.3110 H         1 UNK         0.0600 
    218 H218       -0.7176  -22.7757  -56.9214 H         1 UNK         0.0600 
    219 H219       -0.6405  -21.0727  -57.3433 H         1 UNK         0.0600 
    220 H220        0.4724  -20.6284  -53.6271 H         1 UNK         0.3000 
    221 H221        0.3990  -17.8077  -54.3055 H         1 UNK         0.0600 
    222 H222        2.5201  -18.9619  -53.7732 H         1 UNK         0.0600 
    223 H223        2.2288  -17.6358  -52.6642 H         1 UNK         0.0600 
    224 H224        1.9635  -19.2956  -52.1386 H         1 UNK         0.0600 
    225 H225       -1.5908  -19.6480  -52.2699 H         1 UNK         0.3000 
    226 H226       -2.2857  -17.3617  -50.4873 H         1 UNK         0.0600 
    227 H227       -3.3467  -20.2355  -50.5556 H         1 UNK         0.0600 
    228 H228       -2.1015  -19.6451  -49.4617 H         1 UNK         0.0600 
    229 H229       -3.7287  -19.0045  -49.3566 H         1 UNK         0.0600 
    230 H230       -2.6060  -16.6962  -53.0921 H         1 UNK         0.3000 
    231 H231       -3.9724  -16.0123  -54.7168 H         1 UNK         0.0600 
    232 H232       -6.1202  -14.9793  -53.9832 H         1 UNK         0.0600 
    233 H233       -4.8238  -14.6028  -52.8659 H         1 UNK         0.0600 
    234 H234       -6.0198  -15.8283  -52.4446 H         1 UNK         0.0600 
    235 H235       -3.6918  -18.7317  -54.7491 H         1 UNK         0.3000 
    236 H236       -4.3588  -20.6015  -55.6540 H         1 UNK         0.0600 
    237 H237       -5.1440  -19.1510  -57.5366 H         1 UNK         0.0600 
    238 H238       -6.0507  -20.6473  -57.4087 H         1 UNK         0.0600 
    239 H239       -6.7655  -19.1470  -56.8423 H         1 UNK         0.0600 
    240 H240       -5.6722  -19.6715  -52.9181 H         1 UNK         0.3000 
    241 H241       -7.9786  -21.3939  -52.7442 H         1 UNK         0.0600 
    242 H242       -4.5164  -22.2185  -52.5059 H         1 UNK         0.3800 
    243 H243       -4.8443  -23.8214  -51.8993 H         1 UNK         0.3800 
    244 H244       -7.8537  -20.9620  -50.2859 H         1 UNK         0.0800 
    245 H245       -6.3472  -20.1093  -50.5086 H         1 UNK         0.0800 
    246 H246       -9.1379  -19.1384  -49.1319 H         1 UNK         0.0800 
    247 H247       -9.3937  -17.5205  -49.7266 H         1 UNK         0.0800 
@<TRIPOS>BOND
     1    1    2 1    
     2    1  127 1    
     3    1  128 1    
     4    1  129 1    
     5    2    3 2    
     6    2    4 am   BACKBONE|DICT|INTERRES
     7    4    5 1    
     8    4  130 1    
     9    5    6 1    
    10    5   65 1    
    11    5  131 1    
    12    6    7 1    
    13    6  132 1    
    14    6  133 1    
    15    7    8 1    
    16    8    9 1    
    17    8  134 1    
    18    8  135 1    
    19    9   10 ar   
    20    9   14 ar   
    21   10   11 ar   
    22   10  136 1    
    23   11   12 ar   
    24   11  126 1    
    25   12   13 ar   
    26   12  137 1    
    27   13   14 ar   
    28   13   15 1    
    29   14  138 1    
    30   15   16 1    
    31   15  139 1    
    32   15  140 1    
    33   16   17 1    
    34   17   18 1    
    35   17  141 1    
    36   17  142 1    
    37   18   19 1    
    38   18   67 1    
    39   18  143 1    
    40   19   20 am   BACKBONE|DICT|INTERRES
    41   19  144 1    
    42   20   21 2    
    43   20   22 1    
    44   22   23 1    
    45   22   24 1    
    46   22  145 1    
    47   23  146 1    
    48   23  147 1    
    49   23  148 1    
    50   24   25 am   BACKBONE|DICT|INTERRES
    51   24  149 1    
    52   25   26 2    
    53   25   27 1    
    54   27   28 1    
    55   27   29 1    
    56   27  150 1    
    57   28  151 1    
    58   28  152 1    
    59   28  153 1    
    60   29   30 am   BACKBONE|DICT|INTERRES
    61   29  154 1    
    62   30   31 2    
    63   30   32 1    
    64   32   33 1    
    65   32   34 1    
    66   32  155 1    
    67   33  156 1    
    68   33  157 1    
    69   33  158 1    
    70   34   35 am   BACKBONE|DICT|INTERRES
    71   34  159 1    
    72   35   36 2    
    73   35   37 1    
    74   37   38 1    
    75   37   39 1    
    76   37  160 1    
    77   38  161 1    
    78   38  162 1    
    79   38  163 1    
    80   39   40 am   BACKBONE|DICT|INTERRES
    81   39  164 1    
    82   40   41 2    
    83   40   42 1    
    84   42   43 1    
    85   42   44 1    
    86   42  165 1    
    87   43  166 1    
    88   43  167 1    
    89   43  168 1    
    90   44   45 am   BACKBONE|DICT|INTERRES
    91   44  169 1    
    92   45   46 2    
    93   45   47 1    
    94   47   48 1    
    95   47   49 1    
    96   47  170 1    
    97   48  171 1    
    98   48  172 1    
    99   48  173 1    
   100   49   50 am   BACKBONE|DICT|INTERRES
   101   49  174 1    
   102   50   51 2    
   103   50   52 1    
   104   52   53 1    
   105   52   54 1    
   106   52  175 1    
   107   53  176 1    
   108   53  177 1    
   109   53  178 1    
   110   54   55 am   BACKBONE|DICT|INTERRES
   111   54  179 1    
   112   55   56 2    
   113   55   57 1    
   114   57   58 1    
   115   57   59 1    
   116   57  180 1    
   117   58  181 1    
   118   58  182 1    
   119   58  183 1    
   120   59   60 am   BACKBONE|DICT|INTERRES
   121   59  184 1    
   122   60   61 2    
   123   60   62 1    
   124   62   63 1    
   125   62   64 1    
   126   62  185 1    
   127   63  186 1    
   128   63  187 1    
   129   63  188 1    
   130   64   65 am   BACKBONE|DICT|INTERRES
   131   64  189 1    
   132   65   66 2    
   133   67   68 2    
   134   67   69 am   BACKBONE|DICT|INTERRES
   135   69   70 1    
   136   69  190 1    
   137   70   71 1    
   138   70   72 1    
   139   70  191 1    
   140   71  192 1    
   141   71  193 1    
   142   71  194 1    
   143   72   73 2    
   144   72   74 am   BACKBONE|DICT|INTERRES
   145   74   75 1    
   146   74  195 1    
   147   75   76 1    
   148   75   77 1    
   149   75  196 1    
   150   76  197 1    
   151   76  198 1    
   152   76  199 1    
   153   77   78 2    
   154   77   79 am   BACKBONE|DICT|INTERRES
   155   79   80 1    
   156   79  200 1    
   157   80   81 1    
   158   80   82 1    
   159   80  201 1    
   160   81  202 1    
   161   81  203 1    
   162   81  204 1    
   163   82   83 2    
   164   82   84 am   BACKBONE|DICT|INTERRES
   165   84   85 1    
   166   84  205 1    
   167   85   86 1    
   168   85   87 1    
   169   85  206 1    
   170   86  207 1    
   171   86  208 1    
   172   86  209 1    
   173   87   88 2    
   174   87   89 am   BACKBONE|DICT|INTERRES
   175   89   90 1    
   176   89  210 1    
   177   90   91 1    
   178   90   92 1    
   179   90  211 1    
   180   91  212 1    
   181   91  213 1    
   182   91  214 1    
   183   92   93 2    
   184   92   94 am   BACKBONE|DICT|INTERRES
   185   94   95 1    
   186   94  215 1    
   187   95   96 1    
   188   95   97 1    
   189   95  216 1    
   190   96  217 1    
   191   96  218 1    
   192   96  219 1    
   193   97   98 2    
   194   97   99 am   BACKBONE|DICT|INTERRES
   195   99  100 1    
   196   99  220 1    
   197  100  101 1    
   198  100  102 1    
   199  100  221 1    
   200  101  222 1    
   201  101  223 1    
   202  101  224 1    
   203  102  103 2    
   204  102  104 am   BACKBONE|DICT|INTERRES
   205  104  105 1    
   206  104  225 1    
   207  105  106 1    
   208  105  107 1    
   209  105  226 1    
   210  106  227 1    
   211  106  228 1    
   212  106  229 1    
   213  107  108 2    
   214  107  109 am   BACKBONE|DICT|INTERRES
   215  109  110 1    
   216  109  230 1    
   217  110  111 1    
   218  110  112 1    
   219  110  231 1    
   220  111  232 1    
   221  111  233 1    
   222  111  234 1    
   223  112  113 2    
   224  112  114 am   BACKBONE|DICT|INTERRES
   225  114  115 1    
   226  114  235 1    
   227  115  116 1    
   228  115  117 1    
   229  115  236 1    
   230  116  237 1    
   231  116  238 1    
   232  116  239 1    
   233  117  118 2    
   234  117  119 am   BACKBONE|DICT|INTERRES
   235  119  120 1    
   236  119  240 1    
   237  120  121 1    
   238  120  124 1    
   239  120  241 1    
   240  121  122 am   BACKBONE|DICT|INTERRES
   241  121  123 2    
   242  122  242 1    
   243  122  243 1    
   244  124  125 1    
   245  124  244 1    
   246  124  245 1    
   247  125  126 1    
   248  126  246 1    
   249  126  247 1    
@<TRIPOS>SUBSTRUCTURE
     1 UNK         1 GROUP             0       ****    0 ROOT    
