@<TRIPOS>MOLECULE
3R540
247   249    1
SMALL
USER_CHARGES


@<TRIPOS>ATOM
      1 CA          6.6725  -12.9541  -48.3651 C.3       0 UNK        -0.1800 
      2 C           5.5380  -13.6571  -47.6329 C.2       0 UNK         0.5000 
      3 O           4.6637  -12.9830  -47.0916 O.2       0 UNK        -0.5000 
      4 N           5.5734  -14.9990  -47.6173 N.am      1 UNK        -0.5000 
      5 CA          4.6117  -15.9349  -47.0119 C.3       1 UNK         0.1400 
      6 C6          3.4389  -16.3327  -47.9493 C.3       23 UNK        -0.0398 
      7 S7          2.2886  -15.0087  -48.4662 S.3       23 UNK        -0.2404 
      8 C8          1.7179  -15.6466  -50.0745 C.3       23 UNK        -0.0205 
      9 C9          0.9423  -16.9502  -49.9364 C.ar      23 UNK        -0.0193 
     10 C10        -0.4140  -16.9294  -49.6008 C.ar      23 UNK        -0.1150 
     11 C11        -1.1390  -18.1201  -49.4861 C.ar      23 UNK        -0.0193 
     12 C12        -0.4892  -19.3407  -49.6908 C.ar      23 UNK        -0.1150 
     13 C13         0.8632  -19.3754  -50.0434 C.ar      23 UNK        -0.0193 
     14 C14         1.5718  -18.1770  -50.1683 C.ar      23 UNK        -0.1150 
     15 C15         1.5476  -20.7077  -50.3187 C.3       23 UNK        -0.0205 
     16 S16         2.9088  -21.0689  -49.1588 S.3       23 UNK        -0.2404 
     17 C17         2.0749  -21.0268  -47.5374 C.3       23 UNK        -0.0398 
     18 CA          1.5930  -22.4171  -47.0587 C.3       11 UNK         0.1400 
     19 N           1.5204  -22.4890  -45.5982 N.am      11 UNK        -0.5000 
     20 C           1.3528  -23.6143  -44.8911 C.2       10 UNK         0.5000 
     21 O           1.2737  -24.7344  -45.3948 O.2       10 UNK        -0.5000 
     22 CA          1.2051  -23.4480  -43.3676 C.3       10 UNK         0.1400 
     23 CB          2.5832  -23.3677  -42.6945 C.3       10 UNK        -0.1800 
     24 N           0.4189  -22.2647  -43.0103 N.am      10 UNK        -0.5000 
     25 C          -0.8963  -22.1420  -43.2385 C.2       9 UNK         0.5000 
     26 O          -1.5861  -23.0279  -43.7417 O.2       9 UNK        -0.5000 
     27 CA         -1.5391  -20.7875  -42.8877 C.3       9 UNK         0.1400 
     28 CB         -1.9020  -20.7264  -41.3968 C.3       9 UNK        -0.1800 
     29 N          -0.7101  -19.6290  -43.2301 N.am      9 UNK        -0.5000 
     30 C          -0.2761  -19.3142  -44.4565 C.2       8 UNK         0.5000 
     31 O          -0.4511  -20.0483  -45.4291 O.2       8 UNK        -0.5000 
     32 CA          0.4797  -17.9775  -44.6454 C.3       8 UNK         0.1400 
     33 CB          0.3814  -17.5017  -46.1047 C.3       8 UNK        -0.1800 
     34 N           0.0276  -16.8782  -43.7892 N.am      8 UNK        -0.5000 
     35 C           0.1624  -16.7542  -42.4628 C.2       7 UNK         0.5000 
     36 O           0.6573  -17.6213  -41.7425 O.2       7 UNK        -0.5000 
     37 CA         -0.3669  -15.4546  -41.8315 C.3       7 UNK         0.1400 
     38 CB          0.7635  -14.4206  -41.7080 C.3       7 UNK        -0.1800 
     39 N          -1.4610  -14.8782  -42.6158 N.am      7 UNK        -0.5000 
     40 C          -2.7582  -15.1678  -42.4446 C.2       6 UNK         0.5000 
     41 O          -3.1782  -15.9199  -41.5646 O.2       6 UNK        -0.5000 
     42 CA         -3.7617  -14.5051  -43.4113 C.3       6 UNK         0.1400 
     43 CB         -4.2866  -13.1889  -42.8174 C.3       6 UNK        -0.1800 
     44 N          -3.2000  -14.2361  -44.7361 N.am      6 UNK        -0.5000 
     45 C          -2.9339  -15.1748  -45.6549 C.2       5 UNK         0.5000 
     46 O          -3.1968  -16.3679  -45.5071 O.2       5 UNK        -0.5000 
     47 CA         -2.2329  -14.7110  -46.9498 C.3       5 UNK         0.1400 
     48 CB         -3.2706  -14.4371  -48.0490 C.3       5 UNK        -0.1800 
     49 N          -1.3634  -13.5359  -46.8142 N.am      5 UNK        -0.5000 
     50 C          -0.3605  -13.3985  -45.9369 C.2       4 UNK         0.5000 
     51 O          -0.0954  -14.2326  -45.0680 O.2       4 UNK        -0.5000 
     52 CA          0.4308  -12.0844  -45.9942 C.3       4 UNK         0.1400 
     53 CB         -0.4783  -10.8962  -45.6103 C.3       4 UNK        -0.1800 
     54 N           1.5483  -12.1951  -45.0627 N.am      4 UNK        -0.5000 
     55 C           2.5429  -11.3172  -44.8932 C.2       3 UNK         0.5000 
     56 O           2.6827  -10.2939  -45.5643 O.2       3 UNK        -0.5000 
     57 CA          3.5372  -11.6218  -43.7646 C.3       3 UNK         0.1400 
     58 CB          2.9533  -11.1707  -42.4097 C.3       3 UNK        -0.1800 
     59 N           3.8931  -13.0403  -43.7475 N.am      3 UNK        -0.5000 
     60 C           4.8947  -13.5835  -43.0484 C.2       2 UNK         0.5000 
     61 O           5.6051  -12.9502  -42.2665 O.2       2 UNK        -0.5000 
     62 CA          5.1952  -15.0767  -43.2822 C.3       2 UNK         0.1400 
     63 CB          4.2625  -15.9829  -42.4533 C.3       2 UNK        -0.1800 
     64 N           5.2278  -15.4621  -44.6997 N.am      2 UNK        -0.5000 
     65 C           4.2087  -15.5673  -45.5647 C.2       1 UNK         0.5000 
     66 O           3.0355  -15.3504  -45.2633 O.2       1 UNK        -0.5000 
     67 C           0.2402  -22.7953  -47.6909 C.2       11 UNK         0.5000 
     68 O           0.2025  -23.6239  -48.5983 O.2       11 UNK        -0.5000 
     69 N          -0.8443  -22.2162  -47.1575 N.am      12 UNK        -0.5000 
     70 CA         -2.2269  -22.4728  -47.5539 C.3       12 UNK         0.1400 
     71 CB         -3.1480  -21.4898  -46.8159 C.3       12 UNK        -0.1800 
     72 C          -2.6802  -23.9229  -47.3061 C.2       12 UNK         0.5000 
     73 O          -3.5357  -24.4127  -48.0419 O.2       12 UNK        -0.5000 
     74 N          -2.1097  -24.5817  -46.2890 N.am      13 UNK        -0.5000 
     75 CA         -2.3147  -26.0017  -46.0135 C.3       13 UNK         0.1400 
     76 CB         -1.9258  -26.3059  -44.5586 C.3       13 UNK        -0.1800 
     77 C          -1.5300  -26.8970  -46.9900 C.2       13 UNK         0.5000 
     78 O          -2.0754  -27.8938  -47.4647 O.2       13 UNK        -0.5000 
     79 N          -0.2694  -26.5327  -47.2680 N.am      14 UNK        -0.5000 
     80 CA          0.6302  -27.2591  -48.1668 C.3       14 UNK         0.1400 
     81 CB          2.0619  -26.7267  -47.9982 C.3       14 UNK        -0.1800 
     82 C           0.1911  -27.1901  -49.6409 C.2       14 UNK         0.5000 
     83 O           0.1602  -28.2196  -50.3167 O.2       14 UNK        -0.5000 
     84 N          -0.1534  -25.9841  -50.1012 N.am      15 UNK        -0.5000 
     85 CA         -0.6904  -25.6960  -51.4233 C.3       15 UNK         0.1400 
     86 CB          0.2753  -24.7537  -52.1637 C.3       15 UNK        -0.1800 
     87 C          -2.0616  -25.0508  -51.2025 C.2       15 UNK         0.5000 
     88 O          -2.1115  -23.8593  -50.8970 O.2       15 UNK        -0.5000 
     89 N          -3.1181  -25.8720  -51.3143 N.am      16 UNK        -0.5000 
     90 CA         -4.5351  -25.6340  -50.9955 C.3       16 UNK         0.1400 
     91 CB         -5.3769  -26.6958  -51.7246 C.3       16 UNK        -0.1800 
     92 C          -5.0553  -24.2116  -51.2896 C.2       16 UNK         0.5000 
     93 O          -5.5591  -23.9493  -52.3845 O.2       16 UNK        -0.5000 
     94 N          -4.8697  -23.3131  -50.3128 N.am      17 UNK        -0.5000 
     95 CA         -5.1549  -21.8750  -50.3511 C.3       17 UNK         0.1400 
     96 CB         -6.6716  -21.6393  -50.2042 C.3       17 UNK        -0.1800 
     97 C          -4.5375  -21.1525  -51.5705 C.2       17 UNK         0.5000 
     98 O          -5.1805  -20.2772  -52.1474 O.2       17 UNK        -0.5000 
     99 N          -3.3215  -21.5637  -51.9627 N.am      18 UNK        -0.5000 
    100 CA        -2.5867  -21.1407  -53.1617 C.3       18 UNK         0.1400 
    101 CB        -2.1417  -19.6690  -53.0504 C.3       18 UNK        -0.1800 
    102 C         -3.3642  -21.4340  -54.4630 C.2       18 UNK         0.5000 
    103 O         -3.4469  -20.5774  -55.3434 O.2       18 UNK        -0.5000 
    104 N         -3.9518  -22.6378  -54.5366 N.am      19 UNK        -0.5000 
    105 CA        -4.8786  -23.1072  -55.5732 C.3       19 UNK         0.1400 
    106 CB        -4.1879  -23.2031  -56.9501 C.3       19 UNK        -0.1800 
    107 C         -6.1737  -22.2689  -55.5859 C.2       19 UNK         0.5000 
    108 O         -6.6036  -21.7910  -56.6368 O.2       19 UNK        -0.5000 
    109 N         -6.7435  -22.0906  -54.3856 N.am      20 UNK        -0.5000 
    110 CA        -7.9525  -21.3288  -54.0488 C.3       20 UNK         0.1400 
    111 CB        -9.1853  -21.8918  -54.7853 C.3       20 UNK        -0.1800 
    112 C         -7.8411  -19.7953  -54.2024 C.2       20 UNK         0.5000 
    113 O         -8.8232  -19.1016  -53.9316 O.2       20 UNK        -0.5000 
    114 N         -6.6681  -19.2711  -54.5858 N.am      21 UNK        -0.5000 
    115 CA        -6.4068  -17.8390  -54.7601 C.3       21 UNK         0.1400 
    116 CB        -5.0290  -17.6454  -55.4084 C.3       21 UNK        -0.1800 
    117 C         -6.5114  -17.0236  -53.4556 C.2       21 UNK         0.5000 
    118 O         -6.9146  -15.8605  -53.5040 O.2       21 UNK        -0.5000 
    119 N         -6.1790  -17.6488  -52.3200 N.am      22 UNK        -0.5000 
    120 CA        -6.3400  -17.0872  -50.9686 C.3       22 UNK         0.1400 
    121 C         -7.7823  -17.2359  -50.3964 C.2       22 UNK         0.5000 
    122 N         -8.7349  -17.8346  -51.1038 N.am      22 UNK        -0.7600 
    123 O         -8.0500  -16.7867  -49.2855 O.2       22 UNK        -0.5000 
    124 C124       -5.2832  -17.6418  -49.9756 C.3       23 UNK        -0.0398 
    125 S125       -3.5728  -17.3367  -50.5264 S.3       23 UNK        -0.2404 
    126 C126       -2.6263  -18.0874  -49.1658 C.3       23 UNK        -0.0205 
    127 H127        7.3821  -13.6622  -48.7937 H         1 UNK         0.0600 
    128 H128        7.2143  -12.3027  -47.6793 H         1 UNK         0.0600 
    129 H129        6.2730  -12.3421  -49.1738 H         1 UNK         0.0600 
    130 H130        6.3487  -15.4485  -48.0837 H         1 UNK         0.3000 
    131 H131        5.1878  -16.8538  -46.8896 H         1 UNK         0.0600 
    132 H132        3.8659  -16.7735  -48.8503 H         1 UNK         0.0800 
    133 H133        2.8566  -17.1316  -47.4921 H         1 UNK         0.0800 
    134 H134        1.0830  -14.8943  -50.5444 H         1 UNK         0.0800 
    135 H135        2.5736  -15.7775  -50.7384 H         1 UNK         0.0800 
    136 H136       -0.9104  -15.9823  -49.4495 H         1 UNK         0.1150 
    137 H137       -1.0442  -20.2643  -49.6060 H         1 UNK         0.1150 
    138 H138        2.6160  -18.2034  -50.4455 H         1 UNK         0.1150 
    139 H139        0.8275  -21.5266  -50.2977 H         1 UNK         0.0800 
    140 H140        1.9500  -20.6906  -51.3323 H         1 UNK         0.0800 
    141 H141        1.2636  -20.3000  -47.5403 H         1 UNK         0.0800 
    142 H142        2.8111  -20.6325  -46.8357 H         1 UNK         0.0800 
    143 H143        2.3258  -23.1637  -47.3733 H         1 UNK         0.0600 
    144 H144        1.5042  -21.6095  -45.1046 H         1 UNK         0.3000 
    145 H145        0.6893  -24.3313  -42.9847 H         1 UNK         0.0600 
    146 H146        2.4893  -23.3235  -41.6093 H         1 UNK         0.0600 
    147 H147        3.1844  -24.2464  -42.9321 H         1 UNK         0.0600 
    148 H148        3.1422  -22.4895  -43.0196 H         1 UNK         0.0600 
    149 H149        0.9119  -21.4896  -42.5916 H         1 UNK         0.3000 
    150 H150       -2.4626  -20.7067  -43.4644 H         1 UNK         0.0600 
    151 H151       -2.4496  -19.8133  -41.1623 H         1 UNK         0.0600 
    152 H152       -2.5366  -21.5673  -41.1137 H         1 UNK         0.0600 
    153 H153       -1.0138  -20.7562  -40.7645 H         1 UNK         0.0600 
    154 H154       -0.4594  -18.9985  -42.4752 H         1 UNK         0.3000 
    155 H155        1.5307  -18.1623  -44.4169 H         1 UNK         0.0600 
    156 H156       -0.6567  -17.4432  -46.4302 H         1 UNK         0.0600 
    157 H157        0.8907  -18.1845  -46.7821 H         1 UNK         0.0600 
    158 H158        0.8293  -16.5185  -46.2407 H         1 UNK         0.0600 
    159 H159       -0.3326  -16.0715  -44.2860 H         1 UNK         0.3000 
    160 H160       -0.7207  -15.6891  -40.8254 H         1 UNK         0.0600 
    161 H161        1.2019  -14.1823  -42.6772 H         1 UNK         0.0600 
    162 H162        1.5655  -14.7949  -41.0707 H         1 UNK         0.0600 
    163 H163        0.4024  -13.4930  -41.2640 H         1 UNK         0.0600 
    164 H164       -1.1861  -14.3140  -43.4118 H         1 UNK         0.3000 
    165 H165       -4.6072  -15.1866  -43.5281 H         1 UNK         0.0600 
    166 H166       -5.0523  -12.7460  -43.4546 H         1 UNK         0.0600 
    167 H167       -4.7368  -13.3546  -41.8377 H         1 UNK         0.0600 
    168 H168       -3.4879  -12.4567  -42.6920 H         1 UNK         0.0600 
    169 H169       -2.9574  -13.2789  -44.9438 H         1 UNK         0.3000 
    170 H170       -1.5995  -15.5342  -47.2773 H         1 UNK         0.0600 
    171 H171       -3.9517  -15.2802  -48.1667 H         1 UNK         0.0600 
    172 H172       -3.8762  -13.5596  -47.8196 H         1 UNK         0.0600 
    173 H173       -2.7914  -14.2735  -49.0144 H         1 UNK         0.0600 
    174 H174       -1.5255  -12.7919  -47.4772 H         1 UNK         0.3000 
    175 H175        0.8212  -11.9552  -47.0054 H         1 UNK         0.0600 
    176 H176       -0.8601  -10.9980  -44.5936 H         1 UNK         0.0600 
    177 H177        0.0507   -9.9457  -45.6723 H         1 UNK         0.0600 
    178 H178       -1.3372  -10.8180  -46.2774 H         1 UNK         0.0600 
    179 H179        1.5122  -13.0418  -44.5080 H         1 UNK         0.3000 
    180 H180        4.4443  -11.0481  -43.9652 H         1 UNK         0.0600 
    181 H181        2.0844  -11.7657  -42.1291 H         1 UNK         0.0600 
    182 H182        2.6358  -10.1280  -42.4507 H         1 UNK         0.0600 
    183 H183        3.6849  -11.2481  -41.6061 H         1 UNK         0.0600 
    184 H184        3.4167  -13.6382  -44.4184 H         1 UNK         0.3000 
    185 H185        6.2091  -15.2464  -42.9163 H         1 UNK         0.0600 
    186 H186        4.3345  -15.7447  -41.3915 H         1 UNK         0.0600 
    187 H187        3.2168  -15.8701  -42.7375 H         1 UNK         0.0600 
    188 H188        4.5279  -17.0335  -42.5697 H         1 UNK         0.0600 
    189 H189        6.1567  -15.6082  -45.0699 H         1 UNK         0.3000 
    190 H190       -0.7112  -21.5143  -46.4308 H         1 UNK         0.3000 
    191 H191       -2.3031  -22.2813  -48.6259 H         1 UNK         0.0600 
    192 H192       -2.8722  -20.4560  -47.0223 H         1 UNK         0.0600 
    193 H193       -4.1881  -21.6205  -47.1155 H         1 UNK         0.0600 
    194 H194       -3.0995  -21.6344  -45.7363 H         1 UNK         0.0600 
    195 H195       -1.4848  -24.0785  -45.6718 H         1 UNK         0.3000 
    196 H196       -3.3766  -26.2291  -46.1299 H         1 UNK         0.0600 
    197 H197       -2.0840  -27.3593  -44.3244 H         1 UNK         0.0600 
    198 H198       -2.5281  -25.7236  -43.8611 H         1 UNK         0.0600 
    199 H199       -0.8775  -26.0796  -44.3629 H         1 UNK         0.0600 
    200 H200        0.1183  -25.7180  -46.8051 H         1 UNK         0.3000 
    201 H201        0.6254  -28.3095  -47.8684 H         1 UNK         0.0600 
    202 H202        2.4121  -26.8578  -46.9742 H         1 UNK         0.0600 
    203 H203        2.1291  -25.6654  -48.2399 H         1 UNK         0.0600 
    204 H204        2.7564  -27.2577  -48.6503 H         1 UNK         0.0600 
    205 H205       -0.1060  -25.1819  -49.4727 H         1 UNK         0.3000 
    206 H206       -0.8118  -26.6054  -52.0153 H         1 UNK         0.0600 
    207 H207        1.2359  -25.2379  -52.3388 H         1 UNK         0.0600 
    208 H208       -0.1284  -24.4654  -53.1349 H         1 UNK         0.0600 
    209 H209        0.4637  -23.8391  -51.5993 H         1 UNK         0.0600 
    210 H210       -2.9134  -26.8271  -51.5692 H         1 UNK         0.3000 
    211 H211       -4.6557  -25.8124  -49.9264 H         1 UNK         0.0600 
    212 H212       -5.2407  -26.6443  -52.8057 H         1 UNK         0.0600 
    213 H213       -6.4401  -26.5610  -51.5211 H         1 UNK         0.0600 
    214 H214       -5.1121  -27.7025  -51.4007 H         1 UNK         0.0600 
    215 H215       -4.3916  -23.6470  -49.4776 H         1 UNK         0.3000 
    216 H216       -4.6690  -21.4368  -49.4798 H         1 UNK         0.0600 
    217 H217       -6.9239  -20.5789  -50.2329 H         1 UNK         0.0600 
    218 H218       -7.0337  -22.0290  -49.2530 H         1 UNK         0.0600 
    219 H219       -7.2318  -22.1346  -50.9954 H         1 UNK         0.0600 
    220 H220       -2.8946  -22.3337  -51.4477 H         1 UNK         0.3000 
    221 H221       -1.6854  -21.7542  -53.2003 H         1 UNK         0.0600 
    222 H222       -2.9922  -18.9900  -53.0037 H         1 UNK         0.0600 
    223 H223       -1.5385  -19.5068  -52.1609 H         1 UNK         0.0600 
    224 H224       -1.5341  -19.3749  -53.9066 H         1 UNK         0.0600 
    225 H225       -3.8931  -23.2348  -53.7220 H         1 UNK         0.3000 
    226 H226       -5.1722  -24.1178  -55.2852 H         1 UNK         0.0600 
    227 H227       -3.2806  -23.8043  -56.8945 H         1 UNK         0.0600 
    228 H228       -4.8459  -23.6749  -57.6806 H         1 UNK         0.0600 
    229 H229       -3.9178  -22.2230  -57.3437 H         1 UNK         0.0600 
    230 H230       -6.2929  -22.5464  -53.5968 H         1 UNK         0.3000 
    231 H231       -8.1148  -21.4980  -52.9854 H         1 UNK         0.0600 
    232 H232       -9.1433  -21.6977  -55.8572 H         1 UNK         0.0600 
    233 H233      -10.1046  -21.4400  -54.4110 H         1 UNK         0.0600 
    234 H234       -9.2737  -22.9686  -54.6409 H         1 UNK         0.0600 
    235 H235       -5.8888  -19.8968  -54.7365 H         1 UNK         0.3000 
    236 H236       -7.1602  -17.4514  -55.4487 H         1 UNK         0.0600 
    237 H237       -4.9564  -18.1838  -56.3536 H         1 UNK         0.0600 
    238 H238       -4.8401  -16.5917  -55.6169 H         1 UNK         0.0600 
    239 H239       -4.2284  -17.9988  -54.7591 H         1 UNK         0.0600 
    240 H240       -5.8398  -18.6088  -52.3649 H         1 UNK         0.3000 
    241 H241       -6.1705  -16.0109  -51.0348 H         1 UNK         0.0600 
    242 H242       -9.6607  -17.9111  -50.7138 H         1 UNK         0.3800 
    243 H243       -8.5580  -18.1829  -52.0377 H         1 UNK         0.3800 
    244 H244       -5.4028  -17.1827  -48.9928 H         1 UNK         0.0800 
    245 H245       -5.4200  -18.7134  -49.8321 H         1 UNK         0.0800 
    246 H246       -2.7922  -17.5309  -48.2431 H         1 UNK         0.0800 
    247 H247       -3.0003  -19.0970  -48.9938 H         1 UNK         0.0800 
@<TRIPOS>BOND
     1    1    2 1    
     2    1  127 1    
     3    1  128 1    
     4    1  129 1    
     5    2    3 2    
     6    2    4 am   BACKBONE|DICT|INTERRES
     7    4    5 1    
     8    4  130 1    
     9    5    6 1    
    10    5   65 1    
    11    5  131 1    
    12    6    7 1    
    13    6  132 1    
    14    6  133 1    
    15    7    8 1    
    16    8    9 1    
    17    8  134 1    
    18    8  135 1    
    19    9   10 ar   
    20    9   14 ar   
    21   10   11 ar   
    22   10  136 1    
    23   11   12 ar   
    24   11  126 1    
    25   12   13 ar   
    26   12  137 1    
    27   13   14 ar   
    28   13   15 1    
    29   14  138 1    
    30   15   16 1    
    31   15  139 1    
    32   15  140 1    
    33   16   17 1    
    34   17   18 1    
    35   17  141 1    
    36   17  142 1    
    37   18   19 1    
    38   18   67 1    
    39   18  143 1    
    40   19   20 am   BACKBONE|DICT|INTERRES
    41   19  144 1    
    42   20   21 2    
    43   20   22 1    
    44   22   23 1    
    45   22   24 1    
    46   22  145 1    
    47   23  146 1    
    48   23  147 1    
    49   23  148 1    
    50   24   25 am   BACKBONE|DICT|INTERRES
    51   24  149 1    
    52   25   26 2    
    53   25   27 1    
    54   27   28 1    
    55   27   29 1    
    56   27  150 1    
    57   28  151 1    
    58   28  152 1    
    59   28  153 1    
    60   29   30 am   BACKBONE|DICT|INTERRES
    61   29  154 1    
    62   30   31 2    
    63   30   32 1    
    64   32   33 1    
    65   32   34 1    
    66   32  155 1    
    67   33  156 1    
    68   33  157 1    
    69   33  158 1    
    70   34   35 am   BACKBONE|DICT|INTERRES
    71   34  159 1    
    72   35   36 2    
    73   35   37 1    
    74   37   38 1    
    75   37   39 1    
    76   37  160 1    
    77   38  161 1    
    78   38  162 1    
    79   38  163 1    
    80   39   40 am   BACKBONE|DICT|INTERRES
    81   39  164 1    
    82   40   41 2    
    83   40   42 1    
    84   42   43 1    
    85   42   44 1    
    86   42  165 1    
    87   43  166 1    
    88   43  167 1    
    89   43  168 1    
    90   44   45 am   BACKBONE|DICT|INTERRES
    91   44  169 1    
    92   45   46 2    
    93   45   47 1    
    94   47   48 1    
    95   47   49 1    
    96   47  170 1    
    97   48  171 1    
    98   48  172 1    
    99   48  173 1    
   100   49   50 am   BACKBONE|DICT|INTERRES
   101   49  174 1    
   102   50   51 2    
   103   50   52 1    
   104   52   53 1    
   105   52   54 1    
   106   52  175 1    
   107   53  176 1    
   108   53  177 1    
   109   53  178 1    
   110   54   55 am   BACKBONE|DICT|INTERRES
   111   54  179 1    
   112   55   56 2    
   113   55   57 1    
   114   57   58 1    
   115   57   59 1    
   116   57  180 1    
   117   58  181 1    
   118   58  182 1    
   119   58  183 1    
   120   59   60 am   BACKBONE|DICT|INTERRES
   121   59  184 1    
   122   60   61 2    
   123   60   62 1    
   124   62   63 1    
   125   62   64 1    
   126   62  185 1    
   127   63  186 1    
   128   63  187 1    
   129   63  188 1    
   130   64   65 am   BACKBONE|DICT|INTERRES
   131   64  189 1    
   132   65   66 2    
   133   67   68 2    
   134   67   69 am   BACKBONE|DICT|INTERRES
   135   69   70 1    
   136   69  190 1    
   137   70   71 1    
   138   70   72 1    
   139   70  191 1    
   140   71  192 1    
   141   71  193 1    
   142   71  194 1    
   143   72   73 2    
   144   72   74 am   BACKBONE|DICT|INTERRES
   145   74   75 1    
   146   74  195 1    
   147   75   76 1    
   148   75   77 1    
   149   75  196 1    
   150   76  197 1    
   151   76  198 1    
   152   76  199 1    
   153   77   78 2    
   154   77   79 am   BACKBONE|DICT|INTERRES
   155   79   80 1    
   156   79  200 1    
   157   80   81 1    
   158   80   82 1    
   159   80  201 1    
   160   81  202 1    
   161   81  203 1    
   162   81  204 1    
   163   82   83 2    
   164   82   84 am   BACKBONE|DICT|INTERRES
   165   84   85 1    
   166   84  205 1    
   167   85   86 1    
   168   85   87 1    
   169   85  206 1    
   170   86  207 1    
   171   86  208 1    
   172   86  209 1    
   173   87   88 2    
   174   87   89 am   BACKBONE|DICT|INTERRES
   175   89   90 1    
   176   89  210 1    
   177   90   91 1    
   178   90   92 1    
   179   90  211 1    
   180   91  212 1    
   181   91  213 1    
   182   91  214 1    
   183   92   93 2    
   184   92   94 am   BACKBONE|DICT|INTERRES
   185   94   95 1    
   186   94  215 1    
   187   95   96 1    
   188   95   97 1    
   189   95  216 1    
   190   96  217 1    
   191   96  218 1    
   192   96  219 1    
   193   97   98 2    
   194   97   99 am   BACKBONE|DICT|INTERRES
   195   99  100 1    
   196   99  220 1    
   197  100  101 1    
   198  100  102 1    
   199  100  221 1    
   200  101  222 1    
   201  101  223 1    
   202  101  224 1    
   203  102  103 2    
   204  102  104 am   BACKBONE|DICT|INTERRES
   205  104  105 1    
   206  104  225 1    
   207  105  106 1    
   208  105  107 1    
   209  105  226 1    
   210  106  227 1    
   211  106  228 1    
   212  106  229 1    
   213  107  108 2    
   214  107  109 am   BACKBONE|DICT|INTERRES
   215  109  110 1    
   216  109  230 1    
   217  110  111 1    
   218  110  112 1    
   219  110  231 1    
   220  111  232 1    
   221  111  233 1    
   222  111  234 1    
   223  112  113 2    
   224  112  114 am   BACKBONE|DICT|INTERRES
   225  114  115 1    
   226  114  235 1    
   227  115  116 1    
   228  115  117 1    
   229  115  236 1    
   230  116  237 1    
   231  116  238 1    
   232  116  239 1    
   233  117  118 2    
   234  117  119 am   BACKBONE|DICT|INTERRES
   235  119  120 1    
   236  119  240 1    
   237  120  121 1    
   238  120  124 1    
   239  120  241 1    
   240  121  122 am   BACKBONE|DICT|INTERRES
   241  121  123 2    
   242  122  242 1    
   243  122  243 1    
   244  124  125 1    
   245  124  244 1    
   246  124  245 1    
   247  125  126 1    
   248  126  246 1    
   249  126  247 1    
@<TRIPOS>SUBSTRUCTURE
     1 UNK         1 GROUP             0       ****    0 ROOT    
