@<TRIPOS>MOLECULE
3R540
247   249    1
SMALL
USER_CHARGES


@<TRIPOS>ATOM
      1 CA         -3.9608  -16.5397  -50.4698 C.3       0 UNK        -0.1800 
      2 C          -2.8323  -15.5198  -50.5028 C.2       0 UNK         0.5000 
      3 O          -2.8783  -14.5815  -51.2985 O.2       0 UNK        -0.5000 
      4 N          -1.8220  -15.6998  -49.6440 N.am      1 UNK        -0.5000 
      5 CA         -0.7036  -14.7694  -49.4734 C.3       1 UNK         0.1400 
      6 C6          0.4969  -15.4582  -48.7813 C.3       23 UNK        -0.0398 
      7 S7          2.0921  -14.6517  -49.1708 S.3       23 UNK        -0.2404 
      8 C8          2.6093  -15.4888  -50.7105 C.3       23 UNK        -0.0205 
      9 C9          2.6289  -17.0034  -50.5698 C.ar      23 UNK        -0.0193 
     10 C10         1.7148  -17.7873  -51.2829 C.ar      23 UNK        -0.1150 
     11 C11         1.6611  -19.1682  -51.0796 C.ar      23 UNK        -0.0193 
     12 C12         2.5401  -19.7649  -50.1740 C.ar      23 UNK        -0.1150 
     13 C13         3.4515  -18.9915  -49.4521 C.ar      23 UNK        -0.0193 
     14 C14         3.5093  -17.6132  -49.6710 C.ar      23 UNK        -0.1150 
     15 C15         4.3047  -19.6387  -48.3726 C.3       23 UNK        -0.0205 
     16 S16         3.7422  -19.2229  -46.6827 S.3       23 UNK        -0.2404 
     17 C17         1.9188  -19.3011  -46.7916 C.3       23 UNK        -0.0398 
     18 CA          1.3684  -20.7440  -46.8395 C.3       11 UNK         0.1400 
     19 N           1.6851  -21.4944  -45.6236 N.am      11 UNK        -0.5000 
     20 C           1.3939  -22.7819  -45.3999 C.2       10 UNK         0.5000 
     21 O           0.8523  -23.5116  -46.2307 O.2       10 UNK        -0.5000 
     22 CA          1.7057  -23.3309  -43.9931 C.3       10 UNK         0.1400 
     23 CB          2.8833  -22.6050  -43.3072 C.3       10 UNK        -0.1800 
     24 N           0.5392  -23.3244  -43.1000 N.am      10 UNK        -0.5000 
     25 C          -0.2711  -22.2905  -42.8229 C.2       9 UNK         0.5000 
     26 O          -0.2404  -21.2133  -43.4158 O.2       9 UNK        -0.5000 
     27 CA         -1.2925  -22.4551  -41.6821 C.3       9 UNK         0.1400 
     28 CB         -1.4528  -23.9013  -41.1605 C.3       9 UNK        -0.1800 
     29 N          -0.9863  -21.5166  -40.5970 N.am      9 UNK        -0.5000 
     30 C           0.1219  -21.4899  -39.8396 C.2       8 UNK         0.5000 
     31 O           1.0099  -22.3432  -39.8888 O.2       8 UNK        -0.5000 
     32 CA          0.2519  -20.2984  -38.8735 C.3       8 UNK         0.1400 
     33 CB          1.6569  -20.1778  -38.2543 C.3       8 UNK        -0.1800 
     34 N          -0.0615  -19.0527  -39.5703 N.am      8 UNK        -0.5000 
     35 C          -0.9410  -18.1287  -39.1611 C.2       7 UNK         0.5000 
     36 O          -1.6270  -18.2481  -38.1452 O.2       7 UNK        -0.5000 
     37 CA         -1.0822  -16.8450  -40.0090 C.3       7 UNK         0.1400 
     38 CB         -0.4191  -15.6565  -39.2952 C.3       7 UNK        -0.1800 
     39 N          -0.5135  -16.9551  -41.3529 N.am      7 UNK        -0.5000 
     40 C          -1.0263  -17.6915  -42.3470 C.2       6 UNK         0.5000 
     41 O          -2.0887  -18.3064  -42.2563 O.2       6 UNK        -0.5000 
     42 CA         -0.2029  -17.7761  -43.6493 C.3       6 UNK         0.1400 
     43 CB         -0.7586  -16.8078  -44.7042 C.3       6 UNK        -0.1800 
     44 N           1.2394  -17.5407  -43.4948 N.am      6 UNK        -0.5000 
     45 C           2.0736  -18.2295  -42.6983 C.2       5 UNK         0.5000 
     46 O           1.6942  -19.0998  -41.9156 O.2       5 UNK        -0.5000 
     47 CA          3.5796  -17.9019  -42.7721 C.3       5 UNK         0.1400 
     48 CB          4.4223  -19.1812  -42.9109 C.3       5 UNK        -0.1800 
     49 N           3.9257  -16.9886  -43.8647 N.am      5 UNK        -0.5000 
     50 C           3.8955  -15.6528  -43.7828 C.2       4 UNK         0.5000 
     51 O           3.5471  -15.0483  -42.7660 O.2       4 UNK        -0.5000 
     52 CA          4.3439  -14.8536  -45.0275 C.3       4 UNK         0.1400 
     53 CB          4.3253  -15.6636  -46.3434 C.3       4 UNK        -0.1800 
     54 N           3.5932  -13.6038  -45.1800 N.am      4 UNK        -0.5000 
     55 C           2.2721  -13.4730  -45.3659 C.2       3 UNK         0.5000 
     56 O           1.4978  -14.4252  -45.4752 O.2       3 UNK        -0.5000 
     57 CA          1.7126  -12.0422  -45.4545 C.3       3 UNK         0.1400 
     58 CB          2.7786  -10.9256  -45.3791 C.3       3 UNK        -0.1800 
     59 N           0.9493  -11.9231  -46.6913 N.am      3 UNK        -0.5000 
     60 C          -0.0502  -11.0606  -46.9116 C.2       2 UNK         0.5000 
     61 O          -0.4443  -10.2445  -46.0772 O.2       2 UNK        -0.5000 
     62 CA         -0.7222  -11.1027  -48.2997 C.3       2 UNK         0.1400 
     63 CB         -0.1955   -9.9612  -49.1836 C.3       2 UNK        -0.1800 
     64 N          -0.5184  -12.3729  -48.9999 N.am      2 UNK        -0.5000 
     65 C          -1.1490  -13.5136  -48.6949 C.2       1 UNK         0.5000 
     66 O          -2.0147  -13.6041  -47.8205 O.2       1 UNK        -0.5000 
     67 C          -0.1419  -20.7248  -47.1589 C.2       11 UNK         0.5000 
     68 O          -0.5016  -20.7739  -48.3329 O.2       11 UNK        -0.5000 
     69 N          -1.0019  -20.6981  -46.1292 N.am      12 UNK        -0.5000 
     70 CA         -2.4583  -20.7527  -46.2860 C.3       12 UNK         0.1400 
     71 CB         -3.1396  -20.3168  -44.9824 C.3       12 UNK        -0.1800 
     72 C          -2.9575  -22.1442  -46.7176 C.2       12 UNK         0.5000 
     73 O          -3.9459  -22.2357  -47.4485 O.2       12 UNK        -0.5000 
     74 N          -2.2516  -23.1990  -46.2854 N.am      13 UNK        -0.5000 
     75 CA         -2.5082  -24.5790  -46.6938 C.3       13 UNK         0.1400 
     76 CB         -1.8533  -25.5523  -45.7015 C.3       13 UNK        -0.1800 
     77 C          -2.0276  -24.8271  -48.1335 C.2       13 UNK         0.5000 
     78 O          -2.7575  -25.4340  -48.9164 O.2       13 UNK        -0.5000 
     79 N          -0.8462  -24.2919  -48.4782 N.am      14 UNK        -0.5000 
     80 CA         -0.2891  -24.2878  -49.8355 C.3       14 UNK         0.1400 
     81 CB          1.1344  -23.7140  -49.7993 C.3       14 UNK        -0.1800 
     82 C          -1.1630  -23.5071  -50.8374 C.2       14 UNK         0.5000 
     83 O          -1.3139  -23.9337  -51.9820 O.2       14 UNK        -0.5000 
     84 N          -1.7639  -22.4053  -50.3671 N.am      15 UNK        -0.5000 
     85 CA         -2.7403  -21.5929  -51.0913 C.3       15 UNK         0.1400 
     86 CB         -2.9101  -20.2510  -50.3598 C.3       15 UNK        -0.1800 
     87 C          -4.1158  -22.2665  -51.2491 C.2       15 UNK         0.5000 
     88 O          -4.9507  -21.7291  -51.9809 O.2       15 UNK        -0.5000 
     89 N          -4.3455  -23.3838  -50.5433 N.am      16 UNK        -0.5000 
     90 CA         -5.5930  -24.1464  -50.4624 C.3       16 UNK         0.1400 
     91 CB         -5.9090  -24.8118  -51.8184 C.3       16 UNK        -0.1800 
     92 C          -6.7536  -23.2903  -49.9194 C.2       16 UNK         0.5000 
     93 O          -7.8404  -23.2879  -50.4963 O.2       16 UNK        -0.5000 
     94 N          -6.4778  -22.5229  -48.8524 N.am      17 UNK        -0.5000 
     95 CA         -7.3700  -21.5285  -48.2412 C.3       17 UNK         0.1400 
     96 CB         -8.5754  -22.2118  -47.5624 C.3       17 UNK        -0.1800 
     97 C          -7.7780  -20.4160  -49.2338 C.2       17 UNK         0.5000 
     98 O          -8.9264  -19.9708  -49.2369 O.2       17 UNK        -0.5000 
     99 N          -6.8092  -20.0136  -50.0696 N.am      18 UNK        -0.5000 
    100 CA        -6.8868  -19.0235  -51.1489 C.3       18 UNK         0.1400 
    101 CB        -7.3842  -17.6571  -50.6328 C.3       18 UNK        -0.1800 
    102 C         -7.6572  -19.4956  -52.3997 C.2       18 UNK         0.5000 
    103 O         -7.9059  -18.6766  -53.2856 O.2       18 UNK        -0.5000 
    104 N         -7.9952  -20.7914  -52.4899 N.am      19 UNK        -0.5000 
    105 CA        -8.6261  -21.3812  -53.6741 C.3       19 UNK         0.1400 
    106 CB        -9.2627  -22.7310  -53.3133 C.3       19 UNK        -0.1800 
    107 C         -7.6390  -21.5472  -54.8447 C.2       19 UNK         0.5000 
    108 O         -8.0417  -21.3897  -55.9981 O.2       19 UNK        -0.5000 
    109 N         -6.3725  -21.8506  -54.5295 N.am      20 UNK        -0.5000 
    110 CA        -5.2792  -21.9610  -55.4959 C.3       20 UNK         0.1400 
    111 CB        -4.4379  -23.2062  -55.1720 C.3       20 UNK        -0.1800 
    112 C         -4.4010  -20.7001  -55.4756 C.2       20 UNK         0.5000 
    113 O         -3.9409  -20.2608  -56.5309 O.2       20 UNK        -0.5000 
    114 N         -4.1697  -20.1535  -54.2703 N.am      21 UNK        -0.5000 
    115 CA        -3.4229  -18.9223  -53.9708 C.3       21 UNK         0.1400 
    116 CB        -4.2093  -17.6937  -54.4698 C.3       21 UNK        -0.1800 
    117 C         -1.9524  -18.9122  -54.4496 C.2       21 UNK         0.5000 
    118 O         -1.3498  -17.8413  -54.5282 O.2       21 UNK        -0.5000 
    119 N         -1.4032  -20.0957  -54.7609 N.am      22 UNK        -0.5000 
    120 CA        -0.1045  -20.3006  -55.4292 C.3       22 UNK         0.1400 
    121 C         -0.0379  -19.7056  -56.8722 C.2       22 UNK         0.5000 
    122 N         -1.1619  -19.5163  -57.5565 N.am      22 UNK        -0.7600 
    123 O          1.0402  -19.4410  -57.3977 O.2       22 UNK        -0.5000 
    124 C124        1.1140  -19.9203  -54.5375 C.3       23 UNK        -0.0398 
    125 S125        1.2660  -21.0355  -53.1013 S.3       23 UNK        -0.2404 
    126 C126        0.5978  -20.0138  -51.7571 C.3       23 UNK        -0.0205 
    127 H127       -4.8914  -16.0452  -50.1937 H         1 UNK         0.0600 
    128 H128       -4.0918  -16.9884  -51.4535 H         1 UNK         0.0600 
    129 H129       -3.7714  -17.3356  -49.7494 H         1 UNK         0.0600 
    130 H130       -1.8643  -16.4623  -48.9842 H         1 UNK         0.3000 
    131 H131       -0.3916  -14.4604  -50.4739 H         1 UNK         0.0600 
    132 H132        0.3714  -15.4753  -47.6971 H         1 UNK         0.0800 
    133 H133        0.5486  -16.5076  -49.0676 H         1 UNK         0.0800 
    134 H134        3.6067  -15.1423  -50.9841 H         1 UNK         0.0800 
    135 H135        1.9453  -15.1836  -51.5205 H         1 UNK         0.0800 
    136 H136        1.0156  -17.3188  -51.9617 H         1 UNK         0.1150 
    137 H137        2.4806  -20.8292  -50.0007 H         1 UNK         0.1150 
    138 H138        4.1943  -17.0069  -49.0951 H         1 UNK         0.1150 
    139 H139        4.3047  -20.7239  -48.4849 H         1 UNK         0.0800 
    140 H140        5.3416  -19.3209  -48.4898 H         1 UNK         0.0800 
    141 H141        1.5172  -18.7817  -45.9228 H         1 UNK         0.0800 
    142 H142        1.5816  -18.7166  -47.6486 H         1 UNK         0.0800 
    143 H143        1.8551  -21.2652  -47.6646 H         1 UNK         0.0600 
    144 H144        2.0912  -20.9654  -44.8665 H         1 UNK         0.3000 
    145 H145        1.9937  -24.3743  -44.1296 H         1 UNK         0.0600 
    146 H146        3.1874  -23.1318  -42.4026 H         1 UNK         0.0600 
    147 H147        3.7561  -22.5546  -43.9597 H         1 UNK         0.0600 
    148 H148        2.6222  -21.5878  -43.0143 H         1 UNK         0.0600 
    149 H149        0.4079  -24.1692  -42.5624 H         1 UNK         0.3000 
    150 H150       -2.2565  -22.1482  -42.0893 H         1 UNK         0.0600 
    151 H151       -1.7601  -24.5736  -41.9626 H         1 UNK         0.0600 
    152 H152       -2.2230  -23.9509  -40.3908 H         1 UNK         0.0600 
    153 H153       -0.5337  -24.2982  -40.7292 H         1 UNK         0.0600 
    154 H154       -1.6203  -20.7340  -40.5143 H         1 UNK         0.3000 
    155 H155       -0.4604  -20.4791  -38.0662 H         1 UNK         0.0600 
    156 H156        1.9188  -21.0756  -37.6932 H         1 UNK         0.0600 
    157 H157        1.7112  -19.3368  -37.5628 H         1 UNK         0.0600 
    158 H158        2.4193  -20.0311  -39.0208 H         1 UNK         0.0600 
    159 H159        0.4444  -18.9099  -40.4414 H         1 UNK         0.3000 
    160 H160       -2.1493  -16.6341  -40.1055 H         1 UNK         0.0600 
    161 H161        0.6551  -15.8062  -39.1792 H         1 UNK         0.0600 
    162 H162       -0.5720  -14.7288  -39.8471 H         1 UNK         0.0600 
    163 H163       -0.8399  -15.5127  -38.2992 H         1 UNK         0.0600 
    164 H164        0.3659  -16.4864  -41.5139 H         1 UNK         0.3000 
    165 H165       -0.3226  -18.7859  -44.0373 H         1 UNK         0.0600 
    166 H166       -0.2450  -16.9225  -45.6587 H         1 UNK         0.0600 
    167 H167       -1.8190  -16.9885  -44.8841 H         1 UNK         0.0600 
    168 H168       -0.6525  -15.7691  -44.3892 H         1 UNK         0.0600 
    169 H169        1.6337  -16.8098  -44.0708 H         1 UNK         0.3000 
    170 H170        3.8459  -17.4375  -41.8204 H         1 UNK         0.0600 
    171 H171        4.2684  -19.8474  -42.0609 H         1 UNK         0.0600 
    172 H172        4.1689  -19.7380  -43.8123 H         1 UNK         0.0600 
    173 H173        5.4870  -18.9505  -42.9478 H         1 UNK         0.0600 
    174 H174        4.1994  -17.4182  -44.7380 H         1 UNK         0.3000 
    175 H175        5.3777  -14.5617  -44.8383 H         1 UNK         0.0600 
    176 H176        3.3429  -16.0904  -46.5497 H         1 UNK         0.0600 
    177 H177        4.5936  -15.0350  -47.1925 H         1 UNK         0.0600 
    178 H178        5.0475  -16.4798  -46.3178 H         1 UNK         0.0600 
    179 H179        4.1367  -12.7590  -45.0772 H         1 UNK         0.3000 
    180 H180        1.0328  -11.9287  -44.6076 H         1 UNK         0.0600 
    181 H181        3.3452  -10.9781  -44.4486 H         1 UNK         0.0600 
    182 H182        3.4827  -10.9809  -46.2103 H         1 UNK         0.0600 
    183 H183        2.3160   -9.9389  -45.4076 H         1 UNK         0.0600 
    184 H184        1.1763  -12.5999  -47.4071 H         1 UNK         0.3000 
    185 H185       -1.7940  -10.9528  -48.1523 H         1 UNK         0.0600 
    186 H186       -0.3574   -8.9925  -48.7087 H         1 UNK         0.0600 
    187 H187        0.8743  -10.0589  -49.3727 H         1 UNK         0.0600 
    188 H188       -0.7071   -9.9386  -50.1461 H         1 UNK         0.0600 
    189 H189        0.1861  -12.3781  -49.7241 H         1 UNK         0.3000 
    190 H190       -0.6412  -20.7290  -45.1777 H         1 UNK         0.3000 
    191 H191       -2.7448  -20.0404  -47.0615 H         1 UNK         0.0600 
    192 H192       -4.2253  -20.3262  -45.0870 H         1 UNK         0.0600 
    193 H193       -2.8510  -19.3029  -44.7086 H         1 UNK         0.0600 
    194 H194       -2.8853  -20.9740  -44.1515 H         1 UNK         0.0600 
    195 H195       -1.4142  -23.0346  -45.7456 H         1 UNK         0.3000 
    196 H196       -3.5865  -24.7515  -46.6665 H         1 UNK         0.0600 
    197 H197       -2.0933  -26.5848  -45.9583 H         1 UNK         0.0600 
    198 H198       -2.2100  -25.3790  -44.6861 H         1 UNK         0.0600 
    199 H199       -0.7674  -25.4645  -45.6938 H         1 UNK         0.0600 
    200 H200       -0.2847  -23.8554  -47.7523 H         1 UNK         0.3000 
    201 H201       -0.2340  -25.3233  -50.1774 H         1 UNK         0.0600 
    202 H202        1.7783  -24.2927  -49.1369 H         1 UNK         0.0600 
    203 H203        1.1374  -22.6822  -49.4518 H         1 UNK         0.0600 
    204 H204        1.5873  -23.7265  -50.7916 H         1 UNK         0.0600 
    205 H205       -1.5056  -22.0733  -49.4432 H         1 UNK         0.3000 
    206 H206       -2.3538  -21.3991  -52.0934 H         1 UNK         0.0600 
    207 H207       -1.9862  -19.6740  -50.3561 H         1 UNK         0.0600 
    208 H208       -3.6753  -19.6320  -50.8232 H         1 UNK         0.0600 
    209 H209       -3.2130  -20.3990  -49.3249 H         1 UNK         0.0600 
    210 H210       -3.5906  -23.7463  -49.9743 H         1 UNK         0.3000 
    211 H211       -5.4280  -24.9399  -49.7325 H         1 UNK         0.0600 
    212 H212       -6.1240  -24.0774  -52.5941 H         1 UNK         0.0600 
    213 H213       -6.7775  -25.4664  -51.7393 H         1 UNK         0.0600 
    214 H214       -5.0728  -25.4217  -52.1602 H         1 UNK         0.0600 
    215 H215       -5.5439  -22.5674  -48.4494 H         1 UNK         0.3000 
    216 H216       -6.7878  -21.0384  -47.4595 H         1 UNK         0.0600 
    217 H217       -8.2490  -22.9840  -46.8659 H         1 UNK         0.0600 
    218 H218       -9.2431  -22.6755  -48.2890 H         1 UNK         0.0600 
    219 H219       -9.1632  -21.4904  -46.9937 H         1 UNK         0.0600 
    220 H220       -5.9274  -20.5008  -50.0052 H         1 UNK         0.3000 
    221 H221       -5.8593  -18.8826  -51.4843 H         1 UNK         0.0600 
    222 H222       -8.4555  -17.6649  -50.4309 H         1 UNK         0.0600 
    223 H223       -6.8733  -17.3690  -49.7145 H         1 UNK         0.0600 
    224 H224       -7.2003  -16.8729  -51.3681 H         1 UNK         0.0600 
    225 H225       -7.7735  -21.4199  -51.7274 H         1 UNK         0.3000 
    226 H226       -9.4264  -20.7148  -54.0031 H         1 UNK         0.0600 
    227 H227       -9.9475  -22.6342  -52.4706 H         1 UNK         0.0600 
    228 H228       -9.8335  -23.1273  -54.1539 H         1 UNK         0.0600 
    229 H229       -8.5109  -23.4759  -53.0523 H         1 UNK         0.0600 
    230 H230       -6.1210  -21.9315  -53.5497 H         1 UNK         0.3000 
    231 H231       -5.6732  -22.0769  -56.5077 H         1 UNK         0.0600 
    232 H232       -3.9902  -23.1532  -54.1794 H         1 UNK         0.0600 
    233 H233       -5.0451  -24.1105  -55.2139 H         1 UNK         0.0600 
    234 H234       -3.6268  -23.3265  -55.8913 H         1 UNK         0.0600 
    235 H235       -4.5643  -20.6295  -53.4649 H         1 UNK         0.3000 
    236 H236       -3.3721  -18.8513  -52.8871 H         1 UNK         0.0600 
    237 H237       -5.2316  -17.7001  -54.0913 H         1 UNK         0.0600 
    238 H238       -3.7479  -16.7647  -54.1324 H         1 UNK         0.0600 
    239 H239       -4.2554  -17.6602  -55.5587 H         1 UNK         0.0600 
    240 H240       -1.9775  -20.9195  -54.6701 H         1 UNK         0.3000 
    241 H241       -0.0416  -21.3756  -55.6019 H         1 UNK         0.0600 
    242 H242       -1.1136  -19.1429  -58.4911 H         1 UNK         0.3800 
    243 H243       -2.0657  -19.7449  -57.1556 H         1 UNK         0.3800 
    244 H244        1.0646  -18.8805  -54.2134 H         1 UNK         0.0800 
    245 H245        2.0460  -20.0140  -55.0966 H         1 UNK         0.0800 
    246 H246       -0.2220  -19.3947  -52.1206 H         1 UNK         0.0800 
    247 H247        0.1679  -20.6765  -51.0086 H         1 UNK         0.0800 
@<TRIPOS>BOND
     1    1    2 1    
     2    1  127 1    
     3    1  128 1    
     4    1  129 1    
     5    2    3 2    
     6    2    4 am   BACKBONE|DICT|INTERRES
     7    4    5 1    
     8    4  130 1    
     9    5    6 1    
    10    5   65 1    
    11    5  131 1    
    12    6    7 1    
    13    6  132 1    
    14    6  133 1    
    15    7    8 1    
    16    8    9 1    
    17    8  134 1    
    18    8  135 1    
    19    9   10 ar   
    20    9   14 ar   
    21   10   11 ar   
    22   10  136 1    
    23   11   12 ar   
    24   11  126 1    
    25   12   13 ar   
    26   12  137 1    
    27   13   14 ar   
    28   13   15 1    
    29   14  138 1    
    30   15   16 1    
    31   15  139 1    
    32   15  140 1    
    33   16   17 1    
    34   17   18 1    
    35   17  141 1    
    36   17  142 1    
    37   18   19 1    
    38   18   67 1    
    39   18  143 1    
    40   19   20 am   BACKBONE|DICT|INTERRES
    41   19  144 1    
    42   20   21 2    
    43   20   22 1    
    44   22   23 1    
    45   22   24 1    
    46   22  145 1    
    47   23  146 1    
    48   23  147 1    
    49   23  148 1    
    50   24   25 am   BACKBONE|DICT|INTERRES
    51   24  149 1    
    52   25   26 2    
    53   25   27 1    
    54   27   28 1    
    55   27   29 1    
    56   27  150 1    
    57   28  151 1    
    58   28  152 1    
    59   28  153 1    
    60   29   30 am   BACKBONE|DICT|INTERRES
    61   29  154 1    
    62   30   31 2    
    63   30   32 1    
    64   32   33 1    
    65   32   34 1    
    66   32  155 1    
    67   33  156 1    
    68   33  157 1    
    69   33  158 1    
    70   34   35 am   BACKBONE|DICT|INTERRES
    71   34  159 1    
    72   35   36 2    
    73   35   37 1    
    74   37   38 1    
    75   37   39 1    
    76   37  160 1    
    77   38  161 1    
    78   38  162 1    
    79   38  163 1    
    80   39   40 am   BACKBONE|DICT|INTERRES
    81   39  164 1    
    82   40   41 2    
    83   40   42 1    
    84   42   43 1    
    85   42   44 1    
    86   42  165 1    
    87   43  166 1    
    88   43  167 1    
    89   43  168 1    
    90   44   45 am   BACKBONE|DICT|INTERRES
    91   44  169 1    
    92   45   46 2    
    93   45   47 1    
    94   47   48 1    
    95   47   49 1    
    96   47  170 1    
    97   48  171 1    
    98   48  172 1    
    99   48  173 1    
   100   49   50 am   BACKBONE|DICT|INTERRES
   101   49  174 1    
   102   50   51 2    
   103   50   52 1    
   104   52   53 1    
   105   52   54 1    
   106   52  175 1    
   107   53  176 1    
   108   53  177 1    
   109   53  178 1    
   110   54   55 am   BACKBONE|DICT|INTERRES
   111   54  179 1    
   112   55   56 2    
   113   55   57 1    
   114   57   58 1    
   115   57   59 1    
   116   57  180 1    
   117   58  181 1    
   118   58  182 1    
   119   58  183 1    
   120   59   60 am   BACKBONE|DICT|INTERRES
   121   59  184 1    
   122   60   61 2    
   123   60   62 1    
   124   62   63 1    
   125   62   64 1    
   126   62  185 1    
   127   63  186 1    
   128   63  187 1    
   129   63  188 1    
   130   64   65 am   BACKBONE|DICT|INTERRES
   131   64  189 1    
   132   65   66 2    
   133   67   68 2    
   134   67   69 am   BACKBONE|DICT|INTERRES
   135   69   70 1    
   136   69  190 1    
   137   70   71 1    
   138   70   72 1    
   139   70  191 1    
   140   71  192 1    
   141   71  193 1    
   142   71  194 1    
   143   72   73 2    
   144   72   74 am   BACKBONE|DICT|INTERRES
   145   74   75 1    
   146   74  195 1    
   147   75   76 1    
   148   75   77 1    
   149   75  196 1    
   150   76  197 1    
   151   76  198 1    
   152   76  199 1    
   153   77   78 2    
   154   77   79 am   BACKBONE|DICT|INTERRES
   155   79   80 1    
   156   79  200 1    
   157   80   81 1    
   158   80   82 1    
   159   80  201 1    
   160   81  202 1    
   161   81  203 1    
   162   81  204 1    
   163   82   83 2    
   164   82   84 am   BACKBONE|DICT|INTERRES
   165   84   85 1    
   166   84  205 1    
   167   85   86 1    
   168   85   87 1    
   169   85  206 1    
   170   86  207 1    
   171   86  208 1    
   172   86  209 1    
   173   87   88 2    
   174   87   89 am   BACKBONE|DICT|INTERRES
   175   89   90 1    
   176   89  210 1    
   177   90   91 1    
   178   90   92 1    
   179   90  211 1    
   180   91  212 1    
   181   91  213 1    
   182   91  214 1    
   183   92   93 2    
   184   92   94 am   BACKBONE|DICT|INTERRES
   185   94   95 1    
   186   94  215 1    
   187   95   96 1    
   188   95   97 1    
   189   95  216 1    
   190   96  217 1    
   191   96  218 1    
   192   96  219 1    
   193   97   98 2    
   194   97   99 am   BACKBONE|DICT|INTERRES
   195   99  100 1    
   196   99  220 1    
   197  100  101 1    
   198  100  102 1    
   199  100  221 1    
   200  101  222 1    
   201  101  223 1    
   202  101  224 1    
   203  102  103 2    
   204  102  104 am   BACKBONE|DICT|INTERRES
   205  104  105 1    
   206  104  225 1    
   207  105  106 1    
   208  105  107 1    
   209  105  226 1    
   210  106  227 1    
   211  106  228 1    
   212  106  229 1    
   213  107  108 2    
   214  107  109 am   BACKBONE|DICT|INTERRES
   215  109  110 1    
   216  109  230 1    
   217  110  111 1    
   218  110  112 1    
   219  110  231 1    
   220  111  232 1    
   221  111  233 1    
   222  111  234 1    
   223  112  113 2    
   224  112  114 am   BACKBONE|DICT|INTERRES
   225  114  115 1    
   226  114  235 1    
   227  115  116 1    
   228  115  117 1    
   229  115  236 1    
   230  116  237 1    
   231  116  238 1    
   232  116  239 1    
   233  117  118 2    
   234  117  119 am   BACKBONE|DICT|INTERRES
   235  119  120 1    
   236  119  240 1    
   237  120  121 1    
   238  120  124 1    
   239  120  241 1    
   240  121  122 am   BACKBONE|DICT|INTERRES
   241  121  123 2    
   242  122  242 1    
   243  122  243 1    
   244  124  125 1    
   245  124  244 1    
   246  124  245 1    
   247  125  126 1    
   248  126  246 1    
   249  126  247 1    
@<TRIPOS>SUBSTRUCTURE
     1 UNK         1 GROUP             0       ****    0 ROOT    
