@<TRIPOS>MOLECULE
3R540
247   249    1
SMALL
USER_CHARGES


@<TRIPOS>ATOM
      1 CA          8.2838  -11.2595  -50.8489 C.3       0 UNK        -0.1800 
      2 C           7.7573  -11.5255  -49.4456 C.2       0 UNK         0.5000 
      3 O           8.5381  -11.5668  -48.4943 O.2       0 UNK        -0.5000 
      4 N           6.4406  -11.7020  -49.3125 N.am      1 UNK        -0.5000 
      5 CA          5.7383  -11.9673  -48.0588 C.3       1 UNK         0.1400 
      6 C6          5.9114  -13.4291  -47.5607 C.3       23 UNK        -0.0398 
      7 S7          5.4143  -14.7064  -48.7728 S.3       23 UNK        -0.2404 
      8 C8          4.0217  -15.4826  -47.9037 C.3       23 UNK        -0.0205 
      9 C9          3.2110  -16.3649  -48.8361 C.ar      23 UNK        -0.0193 
     10 C10         2.0460  -15.8678  -49.4258 C.ar      23 UNK        -0.1150 
     11 C11         1.2686  -16.6821  -50.2516 C.ar      23 UNK        -0.0193 
     12 C12         1.6810  -17.9911  -50.5146 C.ar      23 UNK        -0.1150 
     13 C13         2.8538  -18.4945  -49.9454 C.ar      23 UNK        -0.0193 
     14 C14         3.6109  -17.6792  -49.0980 C.ar      23 UNK        -0.1150 
     15 C15         3.3140  -19.9091  -50.2666 C.3       23 UNK        -0.0205 
     16 S16         2.8854  -21.0934  -48.9538 S.3       23 UNK        -0.2404 
     17 C17         1.0705  -21.1742  -49.1080 C.3       23 UNK        -0.0398 
     18 CA          0.4659  -22.3168  -48.2591 C.3       11 UNK         0.1400 
     19 N           0.6519  -22.1181  -46.8162 N.am      11 UNK        -0.5000 
     20 C           0.4162  -23.0568  -45.8888 C.2       10 UNK         0.5000 
     21 O           0.0721  -24.2058  -46.1626 O.2       10 UNK        -0.5000 
     22 CA          0.5274  -22.6396  -44.4097 C.3       10 UNK         0.1400 
     23 CB          1.9834  -22.6907  -43.9239 C.3       10 UNK        -0.1800 
     24 N          -0.0436  -21.3167  -44.1529 N.am      10 UNK        -0.5000 
     25 C          -1.3446  -21.0193  -44.2846 C.2       9 UNK         0.5000 
     26 O          -2.2053  -21.8502  -44.5702 O.2       9 UNK        -0.5000 
     27 CA         -1.7488  -19.5406  -44.1320 C.3       9 UNK         0.1400 
     28 CB         -1.9387  -19.1664  -42.6551 C.3       9 UNK        -0.1800 
     29 N          -0.7878  -18.6310  -44.7543 N.am      9 UNK        -0.5000 
     30 C          -0.4996  -18.6124  -46.0637 C.2       8 UNK         0.5000 
     31 O          -1.0647  -19.3158  -46.9001 O.2       8 UNK        -0.5000 
     32 CA          0.6556  -17.6979  -46.4987 C.3       8 UNK         0.1400 
     33 CB          0.1662  -16.2554  -46.6629 C.3       8 UNK        -0.1800 
     34 N           1.7713  -17.7371  -45.5527 N.am      8 UNK        -0.5000 
     35 C           2.5432  -18.8141  -45.3511 C.2       7 UNK         0.5000 
     36 O           2.4013  -19.8733  -45.9567 O.2       7 UNK        -0.5000 
     37 CA          3.6101  -18.7126  -44.2458 C.3       7 UNK         0.1400 
     38 CB          4.8689  -17.9985  -44.7595 C.3       7 UNK        -0.1800 
     39 N           3.1141  -18.0225  -43.0557 N.am      7 UNK        -0.5000 
     40 C           2.1377  -18.4833  -42.2609 C.2       6 UNK         0.5000 
     41 O           1.6097  -19.5862  -42.3981 O.2       6 UNK        -0.5000 
     42 CA          1.6296  -17.5228  -41.1670 C.3       6 UNK         0.1400 
     43 CB          2.4333  -17.7053  -39.8713 C.3       6 UNK        -0.1800 
     44 N           1.6782  -16.1146  -41.5772 N.am      6 UNK        -0.5000 
     45 C           0.9813  -15.6014  -42.6003 C.2       5 UNK         0.5000 
     46 O           0.1937  -16.2617  -43.2811 O.2       5 UNK        -0.5000 
     47 CA          1.2911  -14.1372  -42.9659 C.3       5 UNK         0.1400 
     48 CB          2.6111  -14.0630  -43.7519 C.3       5 UNK        -0.1800 
     49 N           0.2329  -13.5070  -43.7593 N.am      5 UNK        -0.5000 
     50 C          -0.9867  -13.1982  -43.2909 C.2       4 UNK         0.5000 
     51 O          -1.3364  -13.4163  -42.1295 O.2       4 UNK        -0.5000 
     52 CA         -1.9777  -12.4936  -44.2431 C.3       4 UNK         0.1400 
     53 CB         -2.3404  -11.0983  -43.7068 C.3       4 UNK        -0.1800 
     54 N          -1.4541  -12.3366  -45.5999 N.am      4 UNK        -0.5000 
     55 C          -1.6631  -13.1819  -46.6171 C.2       3 UNK         0.5000 
     56 O          -2.3962  -14.1675  -46.5420 O.2       3 UNK        -0.5000 
     57 CA         -0.9294  -12.8823  -47.9445 C.3       3 UNK         0.1400 
     58 CB         -1.9249  -12.4720  -49.0407 C.3       3 UNK        -0.1800 
     59 N           0.1120  -11.8527  -47.8365 N.am      3 UNK        -0.5000 
     60 C           1.2692  -12.0109  -47.1825 C.2       2 UNK         0.5000 
     61 O           1.5710  -13.0398  -46.5781 O.2       2 UNK        -0.5000 
     62 CA          2.1990  -10.7896  -47.1138 C.3       2 UNK         0.1400 
     63 CB          1.9284   -9.9979  -45.8244 C.3       2 UNK        -0.1800 
     64 N           3.6046  -11.1920  -47.1346 N.am      2 UNK        -0.5000 
     65 C           4.2651  -11.5567  -48.2398 C.2       1 UNK         0.5000 
     66 O           3.7639  -11.5515  -49.3686 O.2       1 UNK        -0.5000 
     67 C          -1.0159  -22.5577  -48.6220 C.2       11 UNK         0.5000 
     68 O          -1.3009  -23.4377  -49.4339 O.2       11 UNK        -0.5000 
     69 N          -1.9378  -21.8175  -47.9902 N.am      12 UNK        -0.5000 
     70 CA         -3.3830  -22.0145  -48.1244 C.3       12 UNK         0.1400 
     71 CB         -4.1292  -20.8504  -47.4577 C.3       12 UNK        -0.1800 
     72 C          -3.8487  -23.3692  -47.5549 C.2       12 UNK         0.5000 
     73 O          -4.6818  -24.0327  -48.1710 O.2       12 UNK        -0.5000 
     74 N          -3.2748  -23.7855  -46.4168 N.am      13 UNK        -0.5000 
     75 CA         -3.5025  -25.0967  -45.8054 C.3       13 UNK         0.1400 
     76 CB         -2.8901  -25.1333  -44.3980 C.3       13 UNK        -0.1800 
     77 C          -2.9703  -26.2556  -46.6692 C.2       13 UNK         0.5000 
     78 O          -3.6381  -27.2842  -46.7731 O.2       13 UNK        -0.5000 
     79 N          -1.8152  -26.0585  -47.3216 N.am      14 UNK        -0.5000 
     80 CA         -1.2466  -26.9839  -48.3077 C.3       14 UNK         0.1400 
     81 CB          0.1862  -26.5545  -48.6565 C.3       14 UNK        -0.1800 
     82 C          -2.1119  -27.1098  -49.5791 C.2       14 UNK         0.5000 
     83 O          -2.1605  -28.1848  -50.1768 O.2       14 UNK        -0.5000 
     84 N          -2.8283  -26.0326  -49.9293 N.am      15 UNK        -0.5000 
     85 CA         -3.8666  -25.9900  -50.9624 C.3       15 UNK         0.1400 
     86 CB         -3.9555  -24.5578  -51.5214 C.3       15 UNK        -0.1800 
     87 C          -5.2421  -26.4899  -50.4586 C.2       15 UNK         0.5000 
     88 O          -6.2446  -26.2921  -51.1466 O.2       15 UNK        -0.5000 
     89 N          -5.2834  -27.1051  -49.2649 N.am      16 UNK        -0.5000 
     90 CA         -6.4433  -27.7031  -48.5913 C.3       16 UNK         0.1400 
     91 CB         -6.9622  -28.9160  -49.3915 C.3       16 UNK        -0.1800 
     92 C          -7.5630  -26.6959  -48.2557 C.2       16 UNK         0.5000 
     93 O          -8.7167  -27.0985  -48.0987 O.2       16 UNK        -0.5000 
     94 N          -7.2097  -25.4034  -48.1799 N.am      17 UNK        -0.5000 
     95 CA         -8.0888  -24.2399  -48.0293 C.3       17 UNK         0.1400 
     96 CB         -8.7967  -24.2542  -46.6591 C.3       17 UNK        -0.1800 
     97 C          -9.0700  -24.0376  -49.2069 C.2       17 UNK         0.5000 
     98 O         -10.0150  -23.2572  -49.0795 O.2       17 UNK        -0.5000 
     99 N          -8.8256  -24.7102  -50.3427 N.am      18 UNK        -0.5000 
    100 CA        -9.5979  -24.5642  -51.5790 C.3       18 UNK         0.1400 
    101 CB        -9.3893  -25.8111  -52.4519 C.3       18 UNK        -0.1800 
    102 C         -9.2150  -23.2885  -52.3530 C.2       18 UNK         0.5000 
    103 O         -9.9976  -22.8157  -53.1782 O.2       18 UNK        -0.5000 
    104 N         -8.0274  -22.7514  -52.0594 N.am      19 UNK        -0.5000 
    105 CA        -7.4966  -21.4932  -52.5551 C.3       19 UNK         0.1400 
    106 CB        -6.7285  -21.7391  -53.8658 C.3       19 UNK        -0.1800 
    107 C         -6.5755  -20.9122  -51.4742 C.2       19 UNK         0.5000 
    108 O         -6.1214  -21.6433  -50.5900 O.2       19 UNK        -0.5000 
    109 N         -6.2813  -19.6136  -51.5914 N.am      20 UNK        -0.5000 
    110 CA        -5.3508  -18.8834  -50.7250 C.3       20 UNK         0.1400 
    111 CB        -5.7954  -17.4118  -50.6647 C.3       20 UNK        -0.1800 
    112 C         -3.8830  -18.9973  -51.1917 C.2       20 UNK         0.5000 
    113 O         -3.0307  -18.2749  -50.6753 O.2       20 UNK        -0.5000 
    114 N         -3.6215  -19.8535  -52.1920 N.am      21 UNK        -0.5000 
    115 CA        -2.3683  -20.0858  -52.9228 C.3       21 UNK         0.1400 
    116 CB        -1.2255  -20.5161  -51.9847 C.3       21 UNK        -0.1800 
    117 C         -1.9627  -18.9088  -53.8322 C.2       21 UNK         0.5000 
    118 O         -1.6668  -19.1263  -55.0078 O.2       21 UNK        -0.5000 
    119 N         -1.9971  -17.6890  -53.2905 N.am      22 UNK        -0.5000 
    120 CA        -1.8867  -16.4262  -54.0306 C.3       22 UNK         0.1400 
    121 C         -3.2187  -16.0766  -54.7493 C.2       22 UNK         0.5000 
    122 N         -3.1539  -15.4465  -55.9141 N.am      22 UNK        -0.7600 
    123 O         -4.3099  -16.3363  -54.2458 O.2       22 UNK        -0.5000 
    124 C124       -1.4468  -15.2660  -53.1032 C.3       23 UNK        -0.0398 
    125 S125        0.2655  -15.4793  -52.5141 S.3       23 UNK        -0.2404 
    126 C126       -0.0211  -16.1553  -50.8532 C.3       23 UNK        -0.0205 
    127 H127        8.7887  -10.2941  -50.8841 H         1 UNK         0.0600 
    128 H128        7.4817  -11.2511  -51.5875 H         1 UNK         0.0600 
    129 H129        8.9995  -12.0308  -51.1334 H         1 UNK         0.0600 
    130 H130        5.8229  -11.6388  -50.1128 H         1 UNK         0.3000 
    131 H131        6.1561  -11.3006  -47.3011 H         1 UNK         0.0600 
    132 H132        5.3734  -13.5749  -46.6225 H         1 UNK         0.0800 
    133 H133        6.9599  -13.6034  -47.3168 H         1 UNK         0.0800 
    134 H134        4.4004  -16.0732  -47.0706 H         1 UNK         0.0800 
    135 H135        3.3826  -14.7116  -47.4725 H         1 UNK         0.0800 
    136 H136        1.7355  -14.8515  -49.2260 H         1 UNK         0.1150 
    137 H137        1.0910  -18.6150  -51.1700 H         1 UNK         0.1150 
    138 H138        4.5139  -18.0659  -48.6469 H         1 UNK         0.1150 
    139 H139        2.8923  -20.2463  -51.2147 H         1 UNK         0.0800 
    140 H140        4.3968  -19.9129  -50.4000 H         1 UNK         0.0800 
    141 H141        0.8383  -21.3225  -50.1634 H         1 UNK         0.0800 
    142 H142        0.6428  -20.2117  -48.8244 H         1 UNK         0.0800 
    143 H143        0.9978  -23.2334  -48.5234 H         1 UNK         0.0600 
    144 H144        1.0079  -21.2136  -46.5221 H         1 UNK         0.3000 
    145 H145       -0.0420  -23.3615  -43.8210 H         1 UNK         0.0600 
    146 H146        2.3995  -23.6907  -44.0510 H         1 UNK         0.0600 
    147 H147        2.6215  -22.0004  -44.4739 H         1 UNK         0.0600 
    148 H148        2.0546  -22.4402  -42.8653 H         1 UNK         0.0600 
    149 H149        0.5987  -20.5889  -43.8585 H         1 UNK         0.3000 
    150 H150       -2.7054  -19.4041  -44.6404 H         1 UNK         0.0600 
    151 H151       -2.2422  -18.1248  -42.5471 H         1 UNK         0.0600 
    152 H152       -1.0247  -19.3101  -42.0801 H         1 UNK         0.0600 
    153 H153       -2.7131  -19.7819  -42.1959 H         1 UNK         0.0600 
    154 H154       -0.3117  -17.9717  -44.1460 H         1 UNK         0.3000 
    155 H155        1.0213  -18.0494  -47.4653 H         1 UNK         0.0600 
    156 H156       -0.5432  -16.1852  -47.4879 H         1 UNK         0.0600 
    157 H157        0.9907  -15.5787  -46.8769 H         1 UNK         0.0600 
    158 H158       -0.3369  -15.8884  -45.7692 H         1 UNK         0.0600 
    159 H159        1.8938  -16.9274  -44.9649 H         1 UNK         0.3000 
    160 H160        3.8872  -19.7298  -43.9606 H         1 UNK         0.0600 
    161 H161        5.2167  -18.4376  -45.6958 H         1 UNK         0.0600 
    162 H162        5.6845  -18.0789  -44.0408 H         1 UNK         0.0600 
    163 H163        4.6864  -16.9388  -44.9366 H         1 UNK         0.0600 
    164 H164        3.5020  -17.1122  -42.8601 H         1 UNK         0.3000 
    165 H165        0.5876  -17.7762  -40.9618 H         1 UNK         0.0600 
    166 H166        2.0319  -17.0878  -39.0677 H         1 UNK         0.0600 
    167 H167        2.3960  -18.7416  -39.5325 H         1 UNK         0.0600 
    168 H168        3.4830  -17.4417  -40.0065 H         1 UNK         0.0600 
    169 H169        2.3104  -15.5178  -41.0631 H         1 UNK         0.3000 
    170 H170        1.4035  -13.5685  -42.0405 H         1 UNK         0.0600 
    171 H171        2.8523  -13.0347  -44.0220 H         1 UNK         0.0600 
    172 H172        3.4461  -14.4441  -43.1631 H         1 UNK         0.0600 
    173 H173        2.5656  -14.6470  -44.6721 H         1 UNK         0.0600 
    174 H174        0.4461  -13.3385  -44.7345 H         1 UNK         0.3000 
    175 H175       -2.8887  -13.0952  -44.2649 H         1 UNK         0.0600 
    176 H176       -1.4634  -10.4535  -43.6364 H         1 UNK         0.0600 
    177 H177       -3.0686  -10.6056  -44.3514 H         1 UNK         0.0600 
    178 H178       -2.7825  -11.1614  -42.7117 H         1 UNK         0.0600 
    179 H179       -0.8474  -11.5466  -45.7585 H         1 UNK         0.3000 
    180 H180       -0.4491  -13.8102  -48.2589 H         1 UNK         0.0600 
    181 H181       -1.4238  -12.3441  -50.0005 H         1 UNK         0.0600 
    182 H182       -2.4301  -11.5371  -48.7956 H         1 UNK         0.0600 
    183 H183       -2.6928  -13.2346  -49.1783 H         1 UNK         0.0600 
    184 H184       -0.0805  -10.9716  -48.2915 H         1 UNK         0.3000 
    185 H185        2.0017  -10.1404  -47.9697 H         1 UNK         0.0600 
    186 H186        2.0972  -10.6053  -44.9339 H         1 UNK         0.0600 
    187 H187        2.5720   -9.1205  -45.7584 H         1 UNK         0.0600 
    188 H188        0.8971   -9.6444  -45.7897 H         1 UNK         0.0600 
    189 H189        4.0654  -11.2469  -46.2382 H         1 UNK         0.3000 
    190 H190       -1.6300  -21.0597  -47.3857 H         1 UNK         0.3000 
    191 H191       -3.6232  -22.0004  -49.1897 H         1 UNK         0.0600 
    192 H192       -3.9582  -20.8234  -46.3817 H         1 UNK         0.0600 
    193 H193       -5.2045  -20.9374  -47.6191 H         1 UNK         0.0600 
    194 H194       -3.8119  -19.8922  -47.8697 H         1 UNK         0.0600 
    195 H195       -2.6537  -23.1523  -45.9211 H         1 UNK         0.3000 
    196 H196       -4.5817  -25.2308  -45.7049 H         1 UNK         0.0600 
    197 H197       -3.0920  -26.0877  -43.9103 H         1 UNK         0.0600 
    198 H198       -3.3081  -24.3499  -43.7656 H         1 UNK         0.0600 
    199 H199       -1.8089  -25.0015  -44.4236 H         1 UNK         0.0600 
    200 H200       -1.2799  -25.2184  -47.1209 H         1 UNK         0.3000 
    201 H201       -1.1980  -27.9718  -47.8449 H         1 UNK         0.0600 
    202 H202        0.8116  -26.5052  -47.7650 H         1 UNK         0.0600 
    203 H203        0.2107  -25.5771  -49.1368 H         1 UNK         0.0600 
    204 H204        0.6498  -27.2662  -49.3407 H         1 UNK         0.0600 
    205 H205       -2.6864  -25.1763  -49.4070 H         1 UNK         0.3000 
    206 H206       -3.5721  -26.6482  -51.7818 H         1 UNK         0.0600 
    207 H207       -4.6434  -24.5063  -52.3661 H         1 UNK         0.0600 
    208 H208       -4.3097  -23.8511  -50.7717 H         1 UNK         0.0600 
    209 H209       -2.9842  -24.2095  -51.8732 H         1 UNK         0.0600 
    210 H210       -4.4210  -27.1667  -48.7380 H         1 UNK         0.3000 
    211 H211       -6.0803  -28.0746  -47.6326 H         1 UNK         0.0600 
    212 H212       -7.4149  -28.6139  -50.3365 H         1 UNK         0.0600 
    213 H213       -7.7180  -29.4644  -48.8282 H         1 UNK         0.0600 
    214 H214       -6.1562  -29.6155  -49.6136 H         1 UNK         0.0600 
    215 H215       -6.2288  -25.1673  -48.3129 H         1 UNK         0.3000 
    216 H216       -7.4294  -23.3708  -48.0462 H         1 UNK         0.0600 
    217 H217       -9.3174  -23.3134  -46.4779 H         1 UNK         0.0600 
    218 H218       -8.0809  -24.3877  -45.8479 H         1 UNK         0.0600 
    219 H219       -9.5356  -25.0528  -46.5913 H         1 UNK         0.0600 
    220 H220       -8.0181  -25.3222  -50.3871 H         1 UNK         0.3000 
    221 H221      -10.6584  -24.4979  -51.3272 H         1 UNK         0.0600 
    222 H222       -8.3536  -25.9048  -52.7799 H         1 UNK         0.0600 
    223 H223       -9.6541  -26.7206  -51.9122 H         1 UNK         0.0600 
    224 H224      -10.0126  -25.7689  -53.3459 H         1 UNK         0.0600 
    225 H225       -7.4653  -23.1748  -51.3316 H         1 UNK         0.3000 
    226 H226       -8.3147  -20.7908  -52.7281 H         1 UNK         0.0600 
    227 H227       -7.3797  -22.1651  -54.6292 H         1 UNK         0.0600 
    228 H228       -6.3253  -20.8094  -54.2687 H         1 UNK         0.0600 
    229 H229       -5.8941  -22.4263  -53.7191 H         1 UNK         0.0600 
    230 H230       -6.6857  -19.0847  -52.3516 H         1 UNK         0.3000 
    231 H231       -5.4025  -19.2923  -49.7145 H         1 UNK         0.0600 
    232 H232       -5.7218  -16.9298  -51.6406 H         1 UNK         0.0600 
    233 H233       -6.8268  -17.3246  -50.3228 H         1 UNK         0.0600 
    234 H234       -5.1777  -16.8414  -49.9697 H         1 UNK         0.0600 
    235 H235       -4.4129  -20.3679  -52.5477 H         1 UNK         0.3000 
    236 H236       -2.5709  -20.9294  -53.5847 H         1 UNK         0.0600 
    237 H237       -0.9771  -19.7457  -51.2557 H         1 UNK         0.0600 
    238 H238       -1.4943  -21.4195  -51.4379 H         1 UNK         0.0600 
    239 H239       -0.3189  -20.7350  -52.5500 H         1 UNK         0.0600 
    240 H240       -2.2943  -17.6235  -52.3223 H         1 UNK         0.3000 
    241 H241       -1.1214  -16.5523  -54.7994 H         1 UNK         0.0600 
    242 H242       -4.0110  -15.2012  -56.3853 H         1 UNK         0.3800 
    243 H243       -2.2713  -15.2165  -56.3451 H         1 UNK         0.3800 
    244 H244       -1.4818  -14.3154  -53.6385 H         1 UNK         0.0800 
    245 H245       -2.1274  -15.1612  -52.2562 H         1 UNK         0.0800 
    246 H246       -0.7505  -16.9632  -50.8998 H         1 UNK         0.0800 
    247 H247       -0.4554  -15.3844  -50.2154 H         1 UNK         0.0800 
@<TRIPOS>BOND
     1    1    2 1    
     2    1  127 1    
     3    1  128 1    
     4    1  129 1    
     5    2    3 2    
     6    2    4 am   BACKBONE|DICT|INTERRES
     7    4    5 1    
     8    4  130 1    
     9    5    6 1    
    10    5   65 1    
    11    5  131 1    
    12    6    7 1    
    13    6  132 1    
    14    6  133 1    
    15    7    8 1    
    16    8    9 1    
    17    8  134 1    
    18    8  135 1    
    19    9   10 ar   
    20    9   14 ar   
    21   10   11 ar   
    22   10  136 1    
    23   11   12 ar   
    24   11  126 1    
    25   12   13 ar   
    26   12  137 1    
    27   13   14 ar   
    28   13   15 1    
    29   14  138 1    
    30   15   16 1    
    31   15  139 1    
    32   15  140 1    
    33   16   17 1    
    34   17   18 1    
    35   17  141 1    
    36   17  142 1    
    37   18   19 1    
    38   18   67 1    
    39   18  143 1    
    40   19   20 am   BACKBONE|DICT|INTERRES
    41   19  144 1    
    42   20   21 2    
    43   20   22 1    
    44   22   23 1    
    45   22   24 1    
    46   22  145 1    
    47   23  146 1    
    48   23  147 1    
    49   23  148 1    
    50   24   25 am   BACKBONE|DICT|INTERRES
    51   24  149 1    
    52   25   26 2    
    53   25   27 1    
    54   27   28 1    
    55   27   29 1    
    56   27  150 1    
    57   28  151 1    
    58   28  152 1    
    59   28  153 1    
    60   29   30 am   BACKBONE|DICT|INTERRES
    61   29  154 1    
    62   30   31 2    
    63   30   32 1    
    64   32   33 1    
    65   32   34 1    
    66   32  155 1    
    67   33  156 1    
    68   33  157 1    
    69   33  158 1    
    70   34   35 am   BACKBONE|DICT|INTERRES
    71   34  159 1    
    72   35   36 2    
    73   35   37 1    
    74   37   38 1    
    75   37   39 1    
    76   37  160 1    
    77   38  161 1    
    78   38  162 1    
    79   38  163 1    
    80   39   40 am   BACKBONE|DICT|INTERRES
    81   39  164 1    
    82   40   41 2    
    83   40   42 1    
    84   42   43 1    
    85   42   44 1    
    86   42  165 1    
    87   43  166 1    
    88   43  167 1    
    89   43  168 1    
    90   44   45 am   BACKBONE|DICT|INTERRES
    91   44  169 1    
    92   45   46 2    
    93   45   47 1    
    94   47   48 1    
    95   47   49 1    
    96   47  170 1    
    97   48  171 1    
    98   48  172 1    
    99   48  173 1    
   100   49   50 am   BACKBONE|DICT|INTERRES
   101   49  174 1    
   102   50   51 2    
   103   50   52 1    
   104   52   53 1    
   105   52   54 1    
   106   52  175 1    
   107   53  176 1    
   108   53  177 1    
   109   53  178 1    
   110   54   55 am   BACKBONE|DICT|INTERRES
   111   54  179 1    
   112   55   56 2    
   113   55   57 1    
   114   57   58 1    
   115   57   59 1    
   116   57  180 1    
   117   58  181 1    
   118   58  182 1    
   119   58  183 1    
   120   59   60 am   BACKBONE|DICT|INTERRES
   121   59  184 1    
   122   60   61 2    
   123   60   62 1    
   124   62   63 1    
   125   62   64 1    
   126   62  185 1    
   127   63  186 1    
   128   63  187 1    
   129   63  188 1    
   130   64   65 am   BACKBONE|DICT|INTERRES
   131   64  189 1    
   132   65   66 2    
   133   67   68 2    
   134   67   69 am   BACKBONE|DICT|INTERRES
   135   69   70 1    
   136   69  190 1    
   137   70   71 1    
   138   70   72 1    
   139   70  191 1    
   140   71  192 1    
   141   71  193 1    
   142   71  194 1    
   143   72   73 2    
   144   72   74 am   BACKBONE|DICT|INTERRES
   145   74   75 1    
   146   74  195 1    
   147   75   76 1    
   148   75   77 1    
   149   75  196 1    
   150   76  197 1    
   151   76  198 1    
   152   76  199 1    
   153   77   78 2    
   154   77   79 am   BACKBONE|DICT|INTERRES
   155   79   80 1    
   156   79  200 1    
   157   80   81 1    
   158   80   82 1    
   159   80  201 1    
   160   81  202 1    
   161   81  203 1    
   162   81  204 1    
   163   82   83 2    
   164   82   84 am   BACKBONE|DICT|INTERRES
   165   84   85 1    
   166   84  205 1    
   167   85   86 1    
   168   85   87 1    
   169   85  206 1    
   170   86  207 1    
   171   86  208 1    
   172   86  209 1    
   173   87   88 2    
   174   87   89 am   BACKBONE|DICT|INTERRES
   175   89   90 1    
   176   89  210 1    
   177   90   91 1    
   178   90   92 1    
   179   90  211 1    
   180   91  212 1    
   181   91  213 1    
   182   91  214 1    
   183   92   93 2    
   184   92   94 am   BACKBONE|DICT|INTERRES
   185   94   95 1    
   186   94  215 1    
   187   95   96 1    
   188   95   97 1    
   189   95  216 1    
   190   96  217 1    
   191   96  218 1    
   192   96  219 1    
   193   97   98 2    
   194   97   99 am   BACKBONE|DICT|INTERRES
   195   99  100 1    
   196   99  220 1    
   197  100  101 1    
   198  100  102 1    
   199  100  221 1    
   200  101  222 1    
   201  101  223 1    
   202  101  224 1    
   203  102  103 2    
   204  102  104 am   BACKBONE|DICT|INTERRES
   205  104  105 1    
   206  104  225 1    
   207  105  106 1    
   208  105  107 1    
   209  105  226 1    
   210  106  227 1    
   211  106  228 1    
   212  106  229 1    
   213  107  108 2    
   214  107  109 am   BACKBONE|DICT|INTERRES
   215  109  110 1    
   216  109  230 1    
   217  110  111 1    
   218  110  112 1    
   219  110  231 1    
   220  111  232 1    
   221  111  233 1    
   222  111  234 1    
   223  112  113 2    
   224  112  114 am   BACKBONE|DICT|INTERRES
   225  114  115 1    
   226  114  235 1    
   227  115  116 1    
   228  115  117 1    
   229  115  236 1    
   230  116  237 1    
   231  116  238 1    
   232  116  239 1    
   233  117  118 2    
   234  117  119 am   BACKBONE|DICT|INTERRES
   235  119  120 1    
   236  119  240 1    
   237  120  121 1    
   238  120  124 1    
   239  120  241 1    
   240  121  122 am   BACKBONE|DICT|INTERRES
   241  121  123 2    
   242  122  242 1    
   243  122  243 1    
   244  124  125 1    
   245  124  244 1    
   246  124  245 1    
   247  125  126 1    
   248  126  246 1    
   249  126  247 1    
@<TRIPOS>SUBSTRUCTURE
     1 UNK         1 GROUP             0       ****    0 ROOT    
