@<TRIPOS>MOLECULE
3R540
247   249    1
SMALL
USER_CHARGES


@<TRIPOS>ATOM
      1 CA         -2.6688  -18.2076  -47.0260 C.3       0 UNK        -0.1800 
      2 C          -2.0312  -16.8767  -46.6600 C.2       0 UNK         0.5000 
      3 O          -0.8079  -16.7971  -46.5767 O.2       0 UNK        -0.5000 
      4 N          -2.8398  -15.8233  -46.4691 N.am      1 UNK        -0.5000 
      5 CA         -2.3512  -14.4466  -46.2947 C.3       1 UNK         0.1400 
      6 C6         -3.4230  -13.4784  -45.7372 C.3       23 UNK        -0.0398 
      7 S7         -3.8890  -13.8581  -44.0145 S.3       23 UNK        -0.2404 
      8 C8         -5.6752  -14.1758  -44.1660 C.3       23 UNK        -0.0205 
      9 C9         -5.9416  -15.4805  -44.8952 C.ar      23 UNK        -0.0193 
     10 C10        -6.3630  -15.4780  -46.2275 C.ar      23 UNK        -0.1150 
     11 C11        -6.5539  -16.6823  -46.9090 C.ar      23 UNK        -0.0193 
     12 C12        -6.3329  -17.8932  -46.2478 C.ar      23 UNK        -0.1150 
     13 C13        -5.9125  -17.9056  -44.9154 C.ar      23 UNK        -0.0193 
     14 C14        -5.7338  -16.6961  -44.2401 C.ar      23 UNK        -0.1150 
     15 C15        -5.6199  -19.2205  -44.2142 C.3       23 UNK        -0.0205 
     16 S16        -3.8489  -19.3672  -43.8262 S.3       23 UNK        -0.2404 
     17 C17        -3.7256  -21.1329  -43.4061 C.3       23 UNK        -0.0398 
     18 CA         -2.9054  -21.9252  -44.4506 C.3       11 UNK         0.1400 
     19 N          -1.5401  -21.4041  -44.6393 N.am      11 UNK        -0.5000 
     20 C          -0.6442  -21.8763  -45.5204 C.2       10 UNK         0.5000 
     21 O          -0.8757  -22.8102  -46.2865 O.2       10 UNK        -0.5000 
     22 CA          0.7519  -21.2364  -45.5338 C.3       10 UNK         0.1400 
     23 CB          0.7678  -19.9741  -46.4066 C.3       10 UNK        -0.1800 
     24 N           1.2031  -20.9264  -44.1788 N.am      10 UNK        -0.5000 
     25 C           1.7185  -21.8426  -43.3438 C.2       9 UNK         0.5000 
     26 O           1.9624  -23.0034  -43.6735 O.2       9 UNK        -0.5000 
     27 CA          1.9741  -21.4087  -41.8858 C.3       9 UNK         0.1400 
     28 CB          3.4026  -20.8683  -41.7255 C.3       9 UNK        -0.1800 
     29 N           1.0261  -20.4034  -41.4038 N.am      9 UNK        -0.5000 
     30 C          -0.2977  -20.5836  -41.2999 C.2       8 UNK         0.5000 
     31 O          -0.8560  -21.6588  -41.5215 O.2       8 UNK        -0.5000 
     32 CA         -1.1493  -19.3489  -40.9373 C.3       8 UNK         0.1400 
     33 CB         -1.4891  -19.3599  -39.4399 C.3       8 UNK        -0.1800 
     34 N          -0.5557  -18.0510  -41.2833 N.am      8 UNK        -0.5000 
     35 C          -0.1267  -17.6661  -42.4944 C.2       7 UNK         0.5000 
     36 O          -0.1221  -18.4012  -43.4859 O.2       7 UNK        -0.5000 
     37 CA          0.4424  -16.2410  -42.5843 C.3       7 UNK         0.1400 
     38 CB          1.6631  -16.0779  -41.6525 C.3       7 UNK        -0.1800 
     39 N           0.8369  -15.9571  -43.9596 N.am      7 UNK        -0.5000 
     40 C           1.1334  -14.7516  -44.4598 C.2       6 UNK         0.5000 
     41 O           0.9764  -13.7004  -43.8351 O.2       6 UNK        -0.5000 
     42 CA          1.7412  -14.7298  -45.8811 C.3       6 UNK         0.1400 
     43 CB          2.3857  -13.3763  -46.2451 C.3       6 UNK        -0.1800 
     44 N           2.6900  -15.8255  -46.1091 N.am      6 UNK        -0.5000 
     45 C           3.7984  -16.1011  -45.4009 C.2       5 UNK         0.5000 
     46 O           4.2001  -15.4219  -44.4554 O.2       5 UNK        -0.5000 
     47 CA          4.5935  -17.3617  -45.7951 C.3       5 UNK         0.1400 
     48 CB          4.2783  -18.5095  -44.8217 C.3       5 UNK        -0.1800 
     49 N           4.3378  -17.8122  -47.1642 N.am      5 UNK        -0.5000 
     50 C           4.7595  -17.1790  -48.2672 C.2       4 UNK         0.5000 
     51 O           5.4536  -16.1608  -48.2465 O.2       4 UNK        -0.5000 
     52 CA          4.3379  -17.7699  -49.6294 C.3       4 UNK         0.1400 
     53 CB          3.5845  -19.1136  -49.5369 C.3       4 UNK        -0.1800 
     54 N           3.5632  -16.8163  -50.4285 N.am      4 UNK        -0.5000 
     55 C           2.4275  -16.1944  -50.0760 C.2       3 UNK         0.5000 
     56 O           1.8923  -16.3229  -48.9728 O.2       3 UNK        -0.5000 
     57 CA          1.8339  -15.2493  -51.1453 C.3       3 UNK         0.1400 
     58 CB          1.6057  -15.9680  -52.4938 C.3       3 UNK        -0.1800 
     59 N           0.6164  -14.5401  -50.7291 N.am      3 UNK        -0.5000 
     60 C          -0.5811  -15.0641  -50.4293 C.2       2 UNK         0.5000 
     61 O          -0.8529  -16.2661  -50.4583 O.2       2 UNK        -0.5000 
     62 CA         -1.6850  -14.0556  -50.0710 C.3       2 UNK         0.1400 
     63 CB         -2.8230  -14.0944  -51.1027 C.3       2 UNK        -0.1800 
     64 N          -2.2253  -14.3763  -48.7558 N.am      2 UNK        -0.5000 
     65 C          -1.7560  -13.8807  -47.6033 C.2       1 UNK         0.5000 
     66 O          -0.8854  -13.0122  -47.5409 O.2       1 UNK        -0.5000 
     67 C          -2.9110  -23.4223  -44.0865 C.2       11 UNK         0.5000 
     68 O          -3.6986  -24.1838  -44.6491 O.2       11 UNK        -0.5000 
     69 N          -1.9771  -23.8224  -43.2122 N.am      12 UNK        -0.5000 
     70 CA         -1.7142  -25.2083  -42.8150 C.3       12 UNK         0.1400 
     71 CB         -0.6545  -25.2016  -41.7025 C.3       12 UNK        -0.1800 
     72 C          -1.2713  -26.1293  -43.9738 C.2       12 UNK         0.5000 
     73 O          -1.3816  -27.3493  -43.8490 O.2       12 UNK        -0.5000 
     74 N          -0.7963  -25.5349  -45.0750 N.am      13 UNK        -0.5000 
     75 CA         -0.3730  -26.2003  -46.3035 C.3       13 UNK         0.1400 
     76 CB          1.0695  -25.7612  -46.6135 C.3       13 UNK        -0.1800 
     77 C          -1.3356  -25.8978  -47.4720 C.2       13 UNK         0.5000 
     78 O          -0.9242  -25.9969  -48.6277 O.2       13 UNK        -0.5000 
     79 N          -2.5895  -25.5229  -47.1673 N.am      14 UNK        -0.5000 
     80 CA         -3.6683  -25.1943  -48.1100 C.3       14 UNK         0.1400 
     81 CB         -4.0876  -26.4380  -48.9220 C.3       14 UNK        -0.1800 
     82 C          -3.3189  -23.9832  -48.9990 C.2       14 UNK         0.5000 
     83 O          -3.3391  -24.0766  -50.2283 O.2       14 UNK        -0.5000 
     84 N          -2.9496  -22.8778  -48.3370 N.am      15 UNK        -0.5000 
     85 CA         -2.4315  -21.6307  -48.9126 C.3       15 UNK         0.1400 
     86 CB         -3.5189  -20.8941  -49.7227 C.3       15 UNK        -0.1800 
     87 C          -1.1278  -21.8676  -49.7014 C.2       15 UNK         0.5000 
     88 O          -0.9619  -21.3353  -50.7991 O.2       15 UNK        -0.5000 
     89 N          -0.2529  -22.7071  -49.1247 N.am      16 UNK        -0.5000 
     90 CA          1.0046  -23.2145  -49.6819 C.3       16 UNK         0.1400 
     91 CB          2.0654  -22.1007  -49.6932 C.3       16 UNK        -0.1800 
     92 C           0.8055  -23.8964  -51.0517 C.2       16 UNK         0.5000 
     93 O           1.4695  -23.5452  -52.0281 O.2       16 UNK        -0.5000 
     94 N          -0.1426  -24.8445  -51.0839 N.am      17 UNK        -0.5000 
     95 CA         -0.6460  -25.5687  -52.2539 C.3       17 UNK         0.1400 
     96 CB          0.4296  -26.5273  -52.8057 C.3       17 UNK        -0.1800 
     97 C          -1.2292  -24.6202  -53.3231 C.2       17 UNK         0.5000 
     98 O          -0.9334  -24.7693  -54.5104 O.2       17 UNK        -0.5000 
     99 N          -2.0418  -23.6568  -52.8625 N.am      18 UNK        -0.5000 
    100 CA        -2.6635  -22.5713  -53.6258 C.3       18 UNK         0.1400 
    101 CB        -3.7683  -23.1237  -54.5496 C.3       18 UNK        -0.1800 
    102 C         -1.6273  -21.7020  -54.3701 C.2       18 UNK         0.5000 
    103 O         -1.6629  -21.6007  -55.5984 O.2       18 UNK        -0.5000 
    104 N         -0.7133  -21.0902  -53.6035 N.am      19 UNK        -0.5000 
    105 CA         0.3413  -20.1958  -54.0957 C.3       19 UNK         0.1400 
    106 CB         1.3239  -19.8967  -52.9527 C.3       19 UNK        -0.1800 
    107 C         -0.1887  -18.8824  -54.7078 C.2       19 UNK         0.5000 
    108 O          0.5109  -18.2580  -55.5065 O.2       19 UNK        -0.5000 
    109 N         -1.4143  -18.5009  -54.3392 N.am      20 UNK        -0.5000 
    110 CA        -2.1803  -17.3946  -54.8933 C.3       20 UNK         0.1400 
    111 CB        -1.8861  -16.1140  -54.0953 C.3       20 UNK        -0.1800 
    112 C         -3.6693  -17.7626  -54.8311 C.2       20 UNK         0.5000 
    113 O         -4.0392  -18.7185  -54.1419 O.2       20 UNK        -0.5000 
    114 N         -4.5003  -16.9839  -55.5367 N.am      21 UNK        -0.5000 
    115 CA        -5.9599  -17.1286  -55.5566 C.3       21 UNK         0.1400 
    116 CB        -6.5411  -16.2276  -56.6571 C.3       21 UNK        -0.1800 
    117 C         -6.6211  -16.8187  -54.1984 C.2       21 UNK         0.5000 
    118 O         -7.6643  -17.3949  -53.8887 O.2       21 UNK        -0.5000 
    119 N         -5.9872  -15.9370  -53.4108 N.am      22 UNK        -0.5000 
    120 CA        -6.3629  -15.5841  -52.0306 C.3       22 UNK         0.1400 
    121 C         -7.6879  -14.7688  -51.8970 C.2       22 UNK         0.5000 
    122 N         -8.1959  -14.1613  -52.9627 N.am      22 UNK        -0.7600 
    123 O         -8.2547  -14.6550  -50.8148 O.2       22 UNK        -0.5000 
    124 C124       -6.2805  -16.8164  -51.0801 C.3       23 UNK        -0.0398 
    125 S125       -5.5397  -16.4413  -49.4549 S.3       23 UNK        -0.2404 
    126 C126       -6.9767  -16.6768  -48.3660 C.3       23 UNK        -0.0205 
    127 H127       -2.3494  -18.9840  -46.3323 H         1 UNK         0.0600 
    128 H128       -2.3570  -18.4969  -48.0292 H         1 UNK         0.0600 
    129 H129       -3.7550  -18.1565  -47.0124 H         1 UNK         0.0600 
    130 H130       -3.8432  -15.9463  -46.4911 H         1 UNK         0.3000 
    131 H131       -1.5358  -14.4762  -45.5705 H         1 UNK         0.0600 
    132 H132       -3.0449  -12.4541  -45.7330 H         1 UNK         0.0800 
    133 H133       -4.3036  -13.4660  -46.3803 H         1 UNK         0.0800 
    134 H134       -6.1120  -14.2248  -43.1675 H         1 UNK         0.0800 
    135 H135       -6.1583  -13.3375  -44.6704 H         1 UNK         0.0800 
    136 H136       -6.5242  -14.5415  -46.7431 H         1 UNK         0.1150 
    137 H137       -6.4648  -18.8251  -46.7796 H         1 UNK         0.1150 
    138 H138       -5.3946  -16.7012  -43.2135 H         1 UNK         0.1150 
    139 H139       -6.2023  -19.2833  -43.2940 H         1 UNK         0.0800 
    140 H140       -5.9260  -20.0606  -44.8398 H         1 UNK         0.0800 
    141 H141       -4.7307  -21.5493  -43.3162 H         1 UNK         0.0800 
    142 H142       -3.2840  -21.2209  -42.4139 H         1 UNK         0.0800 
    143 H143       -3.4140  -21.8287  -45.4120 H         1 UNK         0.0600 
    144 H144       -1.2773  -20.6205  -44.0578 H         1 UNK         0.3000 
    145 H145        1.4396  -21.9553  -45.9849 H         1 UNK         0.0600 
    146 H146        0.1388  -19.1895  -45.9896 H         1 UNK         0.0600 
    147 H147        1.7758  -19.5759  -46.5082 H         1 UNK         0.0600 
    148 H148        0.4034  -20.1849  -47.4128 H         1 UNK         0.0600 
    149 H149        0.9715  -20.0032  -43.8252 H         1 UNK         0.3000 
    150 H150        1.8691  -22.2953  -41.2569 H         1 UNK         0.0600 
    151 H151        4.1377  -21.5939  -42.0764 H         1 UNK         0.0600 
    152 H152        3.6293  -20.6570  -40.6804 H         1 UNK         0.0600 
    153 H153        3.5502  -19.9496  -42.2933 H         1 UNK         0.0600 
    154 H154        1.3985  -19.4882  -41.2005 H         1 UNK         0.3000 
    155 H155       -2.0829  -19.4266  -41.4924 H         1 UNK         0.0600 
    156 H156       -1.9613  -20.3005  -39.1524 H         1 UNK         0.0600 
    157 H157       -2.1849  -18.5599  -39.1865 H         1 UNK         0.0600 
    158 H158       -0.5969  -19.2387  -38.8244 H         1 UNK         0.0600 
    159 H159       -0.5037  -17.3841  -40.5270 H         1 UNK         0.3000 
    160 H160       -0.3457  -15.5447  -42.2913 H         1 UNK         0.0600 
    161 H161        2.0690  -15.0674  -41.6974 H         1 UNK         0.0600 
    162 H162        2.4650  -16.7665  -41.9228 H         1 UNK         0.0600 
    163 H163        1.4043  -16.2646  -40.6100 H         1 UNK         0.0600 
    164 H164        0.8778  -16.7708  -44.5621 H         1 UNK         0.3000 
    165 H165        0.9199  -14.8918  -46.5774 H         1 UNK         0.0600 
    166 H166        3.1990  -13.1177  -45.5666 H         1 UNK         0.0600 
    167 H167        2.7848  -13.3934  -47.2593 H         1 UNK         0.0600 
    168 H168        1.6515  -12.5711  -46.2007 H         1 UNK         0.0600 
    169 H169        2.4640  -16.4153  -46.9027 H         1 UNK         0.3000 
    170 H170        5.6557  -17.1231  -45.7083 H         1 UNK         0.0600 
    171 H171        3.2161  -18.7542  -44.8134 H         1 UNK         0.0600 
    172 H172        4.8323  -19.4133  -45.0760 H         1 UNK         0.0600 
    173 H173        4.5552  -18.2363  -43.8027 H         1 UNK         0.0600 
    174 H174        3.7677  -18.6372  -47.2725 H         1 UNK         0.3000 
    175 H175        5.2640  -17.9519  -50.1764 H         1 UNK         0.0600 
    176 H176        2.6231  -19.0160  -49.0309 H         1 UNK         0.0600 
    177 H177        3.3905  -19.5083  -50.5341 H         1 UNK         0.0600 
    178 H178        4.1724  -19.8647  -49.0077 H         1 UNK         0.0600 
    179 H179        3.9562  -16.6045  -51.3343 H         1 UNK         0.3000 
    180 H180        2.5830  -14.4730  -51.3081 H         1 UNK         0.0600 
    181 H181        0.8886  -16.7845  -52.4049 H         1 UNK         0.0600 
    182 H182        2.5289  -16.3906  -52.8905 H         1 UNK         0.0600 
    183 H183        1.2323  -15.2728  -53.2449 H         1 UNK         0.0600 
    184 H184        0.7255  -13.5406  -50.6328 H         1 UNK         0.3000 
    185 H185       -1.2722  -13.0444  -50.0676 H         1 UNK         0.0600 
    186 H186       -3.6176  -13.3955  -50.8407 H         1 UNK         0.0600 
    187 H187       -2.4594  -13.8190  -52.0932 H         1 UNK         0.0600 
    188 H188       -3.2619  -15.0898  -51.1772 H         1 UNK         0.0600 
    189 H189       -2.8911  -15.1349  -48.7204 H         1 UNK         0.3000 
    190 H190       -1.4010  -23.1118  -42.7696 H         1 UNK         0.3000 
    191 H191       -2.6403  -25.6190  -42.4082 H         1 UNK         0.0600 
    192 H192        0.2880  -24.7770  -42.0510 H         1 UNK         0.0600 
    193 H193       -0.9868  -24.6170  -40.8443 H         1 UNK         0.0600 
    194 H194       -0.4499  -26.2125  -41.3478 H         1 UNK         0.0600 
    195 H195       -0.7741  -24.5226  -45.1078 H         1 UNK         0.3000 
    196 H196       -0.3753  -27.2838  -46.1728 H         1 UNK         0.0600 
    197 H197        1.7431  -26.0372  -45.8021 H         1 UNK         0.0600 
    198 H198        1.1399  -24.6815  -46.7457 H         1 UNK         0.0600 
    199 H199        1.4471  -26.2357  -47.5200 H         1 UNK         0.0600 
    200 H200       -2.8266  -25.4153  -46.1879 H         1 UNK         0.3000 
    201 H201       -4.5253  -24.8948  -47.5048 H         1 UNK         0.0600 
    202 H202       -4.9573  -26.2208  -49.5431 H         1 UNK         0.0600 
    203 H203       -4.3564  -27.2649  -48.2648 H         1 UNK         0.0600 
    204 H204       -3.2932  -26.7815  -49.5852 H         1 UNK         0.0600 
    205 H205       -2.8608  -22.9531  -47.3330 H         1 UNK         0.3000 
    206 H206       -2.1625  -20.9912  -48.0719 H         1 UNK         0.0600 
    207 H207       -4.3989  -20.6982  -49.1101 H         1 UNK         0.0600 
    208 H208       -3.8378  -21.4662  -50.5935 H         1 UNK         0.0600 
    209 H209       -3.1550  -19.9303  -50.0811 H         1 UNK         0.0600 
    210 H210       -0.5031  -23.0660  -48.2090 H         1 UNK         0.3000 
    211 H211        1.3578  -23.9945  -49.0079 H         1 UNK         0.0600 
    212 H212        2.2515  -21.7296  -48.6856 H         1 UNK         0.0600 
    213 H213        3.0158  -22.4608  -50.0884 H         1 UNK         0.0600 
    214 H214        1.7488  -21.2581  -50.3059 H         1 UNK         0.0600 
    215 H215       -0.5895  -25.0939  -50.2034 H         1 UNK         0.3000 
    216 H216       -1.4790  -26.1770  -51.8981 H         1 UNK         0.0600 
    217 H217        0.0230  -27.1539  -53.6002 H         1 UNK         0.0600 
    218 H218        1.2817  -25.9869  -53.2191 H         1 UNK         0.0600 
    219 H219        0.8004  -27.1926  -52.0260 H         1 UNK         0.0600 
    220 H220       -2.2480  -23.6566  -51.8678 H         1 UNK         0.3000 
    221 H221       -3.1448  -21.9186  -52.8966 H         1 UNK         0.0600 
    222 H222       -3.3651  -23.7833  -55.3185 H         1 UNK         0.0600 
    223 H223       -4.5105  -23.6848  -53.9818 H         1 UNK         0.0600 
    224 H224       -4.2921  -22.3120  -55.0558 H         1 UNK         0.0600 
    225 H225       -0.7503  -21.2298  -52.5939 H         1 UNK         0.3000 
    226 H226        0.8849  -20.7227  -54.8823 H         1 UNK         0.0600 
    227 H227        1.8132  -20.8093  -52.6138 H         1 UNK         0.0600 
    228 H228        2.1086  -19.2108  -53.2744 H         1 UNK         0.0600 
    229 H229        0.8215  -19.4439  -52.0967 H         1 UNK         0.0600 
    230 H230       -1.9455  -19.0998  -53.7200 H         1 UNK         0.3000 
    231 H231       -1.9120  -17.2475  -55.9416 H         1 UNK         0.0600 
    232 H232       -2.4909  -15.2758  -54.4424 H         1 UNK         0.0600 
    233 H233       -0.8428  -15.8213  -54.2012 H         1 UNK         0.0600 
    234 H234       -2.0887  -16.2547  -53.0335 H         1 UNK         0.0600 
    235 H235       -4.1172  -16.2273  -56.0852 H         1 UNK         0.3000 
    236 H236       -6.1927  -18.1661  -55.8058 H         1 UNK         0.0600 
    237 H237       -6.1425  -16.4939  -57.6362 H         1 UNK         0.0600 
    238 H238       -7.6260  -16.3282  -56.7117 H         1 UNK         0.0600 
    239 H239       -6.3174  -15.1754  -56.4776 H         1 UNK         0.0600 
    240 H240       -5.1486  -15.5018  -53.7648 H         1 UNK         0.3000 
    241 H241       -5.5929  -14.8772  -51.7244 H         1 UNK         0.0600 
    242 H242       -7.7445  -14.2349  -53.8601 H         1 UNK         0.3800 
    243 H243       -9.0465  -13.6284  -52.8704 H         1 UNK         0.3800 
    244 H244       -7.2562  -17.2916  -50.9665 H         1 UNK         0.0800 
    245 H245       -5.6410  -17.5854  -51.5166 H         1 UNK         0.0800 
    246 H246       -7.7040  -15.8827  -48.5377 H         1 UNK         0.0800 
    247 H247       -7.4764  -17.6150  -48.6118 H         1 UNK         0.0800 
@<TRIPOS>BOND
     1    1    2 1    
     2    1  127 1    
     3    1  128 1    
     4    1  129 1    
     5    2    3 2    
     6    2    4 am   BACKBONE|DICT|INTERRES
     7    4    5 1    
     8    4  130 1    
     9    5    6 1    
    10    5   65 1    
    11    5  131 1    
    12    6    7 1    
    13    6  132 1    
    14    6  133 1    
    15    7    8 1    
    16    8    9 1    
    17    8  134 1    
    18    8  135 1    
    19    9   10 ar   
    20    9   14 ar   
    21   10   11 ar   
    22   10  136 1    
    23   11   12 ar   
    24   11  126 1    
    25   12   13 ar   
    26   12  137 1    
    27   13   14 ar   
    28   13   15 1    
    29   14  138 1    
    30   15   16 1    
    31   15  139 1    
    32   15  140 1    
    33   16   17 1    
    34   17   18 1    
    35   17  141 1    
    36   17  142 1    
    37   18   19 1    
    38   18   67 1    
    39   18  143 1    
    40   19   20 am   BACKBONE|DICT|INTERRES
    41   19  144 1    
    42   20   21 2    
    43   20   22 1    
    44   22   23 1    
    45   22   24 1    
    46   22  145 1    
    47   23  146 1    
    48   23  147 1    
    49   23  148 1    
    50   24   25 am   BACKBONE|DICT|INTERRES
    51   24  149 1    
    52   25   26 2    
    53   25   27 1    
    54   27   28 1    
    55   27   29 1    
    56   27  150 1    
    57   28  151 1    
    58   28  152 1    
    59   28  153 1    
    60   29   30 am   BACKBONE|DICT|INTERRES
    61   29  154 1    
    62   30   31 2    
    63   30   32 1    
    64   32   33 1    
    65   32   34 1    
    66   32  155 1    
    67   33  156 1    
    68   33  157 1    
    69   33  158 1    
    70   34   35 am   BACKBONE|DICT|INTERRES
    71   34  159 1    
    72   35   36 2    
    73   35   37 1    
    74   37   38 1    
    75   37   39 1    
    76   37  160 1    
    77   38  161 1    
    78   38  162 1    
    79   38  163 1    
    80   39   40 am   BACKBONE|DICT|INTERRES
    81   39  164 1    
    82   40   41 2    
    83   40   42 1    
    84   42   43 1    
    85   42   44 1    
    86   42  165 1    
    87   43  166 1    
    88   43  167 1    
    89   43  168 1    
    90   44   45 am   BACKBONE|DICT|INTERRES
    91   44  169 1    
    92   45   46 2    
    93   45   47 1    
    94   47   48 1    
    95   47   49 1    
    96   47  170 1    
    97   48  171 1    
    98   48  172 1    
    99   48  173 1    
   100   49   50 am   BACKBONE|DICT|INTERRES
   101   49  174 1    
   102   50   51 2    
   103   50   52 1    
   104   52   53 1    
   105   52   54 1    
   106   52  175 1    
   107   53  176 1    
   108   53  177 1    
   109   53  178 1    
   110   54   55 am   BACKBONE|DICT|INTERRES
   111   54  179 1    
   112   55   56 2    
   113   55   57 1    
   114   57   58 1    
   115   57   59 1    
   116   57  180 1    
   117   58  181 1    
   118   58  182 1    
   119   58  183 1    
   120   59   60 am   BACKBONE|DICT|INTERRES
   121   59  184 1    
   122   60   61 2    
   123   60   62 1    
   124   62   63 1    
   125   62   64 1    
   126   62  185 1    
   127   63  186 1    
   128   63  187 1    
   129   63  188 1    
   130   64   65 am   BACKBONE|DICT|INTERRES
   131   64  189 1    
   132   65   66 2    
   133   67   68 2    
   134   67   69 am   BACKBONE|DICT|INTERRES
   135   69   70 1    
   136   69  190 1    
   137   70   71 1    
   138   70   72 1    
   139   70  191 1    
   140   71  192 1    
   141   71  193 1    
   142   71  194 1    
   143   72   73 2    
   144   72   74 am   BACKBONE|DICT|INTERRES
   145   74   75 1    
   146   74  195 1    
   147   75   76 1    
   148   75   77 1    
   149   75  196 1    
   150   76  197 1    
   151   76  198 1    
   152   76  199 1    
   153   77   78 2    
   154   77   79 am   BACKBONE|DICT|INTERRES
   155   79   80 1    
   156   79  200 1    
   157   80   81 1    
   158   80   82 1    
   159   80  201 1    
   160   81  202 1    
   161   81  203 1    
   162   81  204 1    
   163   82   83 2    
   164   82   84 am   BACKBONE|DICT|INTERRES
   165   84   85 1    
   166   84  205 1    
   167   85   86 1    
   168   85   87 1    
   169   85  206 1    
   170   86  207 1    
   171   86  208 1    
   172   86  209 1    
   173   87   88 2    
   174   87   89 am   BACKBONE|DICT|INTERRES
   175   89   90 1    
   176   89  210 1    
   177   90   91 1    
   178   90   92 1    
   179   90  211 1    
   180   91  212 1    
   181   91  213 1    
   182   91  214 1    
   183   92   93 2    
   184   92   94 am   BACKBONE|DICT|INTERRES
   185   94   95 1    
   186   94  215 1    
   187   95   96 1    
   188   95   97 1    
   189   95  216 1    
   190   96  217 1    
   191   96  218 1    
   192   96  219 1    
   193   97   98 2    
   194   97   99 am   BACKBONE|DICT|INTERRES
   195   99  100 1    
   196   99  220 1    
   197  100  101 1    
   198  100  102 1    
   199  100  221 1    
   200  101  222 1    
   201  101  223 1    
   202  101  224 1    
   203  102  103 2    
   204  102  104 am   BACKBONE|DICT|INTERRES
   205  104  105 1    
   206  104  225 1    
   207  105  106 1    
   208  105  107 1    
   209  105  226 1    
   210  106  227 1    
   211  106  228 1    
   212  106  229 1    
   213  107  108 2    
   214  107  109 am   BACKBONE|DICT|INTERRES
   215  109  110 1    
   216  109  230 1    
   217  110  111 1    
   218  110  112 1    
   219  110  231 1    
   220  111  232 1    
   221  111  233 1    
   222  111  234 1    
   223  112  113 2    
   224  112  114 am   BACKBONE|DICT|INTERRES
   225  114  115 1    
   226  114  235 1    
   227  115  116 1    
   228  115  117 1    
   229  115  236 1    
   230  116  237 1    
   231  116  238 1    
   232  116  239 1    
   233  117  118 2    
   234  117  119 am   BACKBONE|DICT|INTERRES
   235  119  120 1    
   236  119  240 1    
   237  120  121 1    
   238  120  124 1    
   239  120  241 1    
   240  121  122 am   BACKBONE|DICT|INTERRES
   241  121  123 2    
   242  122  242 1    
   243  122  243 1    
   244  124  125 1    
   245  124  244 1    
   246  124  245 1    
   247  125  126 1    
   248  126  246 1    
   249  126  247 1    
@<TRIPOS>SUBSTRUCTURE
     1 UNK         1 GROUP             0       ****    0 ROOT    
