@<TRIPOS>MOLECULE
3R540
247   249    1
SMALL
USER_CHARGES


@<TRIPOS>ATOM
      1 CA         -1.8855  -13.4582  -50.6050 C.3       0 UNK        -0.1800 
      2 C          -0.8771  -14.1635  -49.7107 C.2       0 UNK         0.5000 
      3 O          -1.1697  -15.2366  -49.1866 O.2       0 UNK        -0.5000 
      4 N           0.3003  -13.5535  -49.5133 N.am      1 UNK        -0.5000 
      5 CA          1.4573  -14.0937  -48.7749 C.3       1 UNK         0.1400 
      6 C6          2.0983  -15.3265  -49.4687 C.3       23 UNK        -0.0398 
      7 S7          2.6288  -14.9916  -51.1851 S.3       23 UNK        -0.2404 
      8 C8          1.6342  -16.2095  -52.1191 C.3       23 UNK        -0.0205 
      9 C9          1.9451  -17.6877  -51.8567 C.ar      23 UNK        -0.0193 
     10 C10         1.0980  -18.6531  -52.4113 C.ar      23 UNK        -0.1150 
     11 C11         1.3226  -20.0152  -52.1954 C.ar      23 UNK        -0.0193 
     12 C12         2.4149  -20.4174  -51.4246 C.ar      23 UNK        -0.1150 
     13 C13         3.2728  -19.4709  -50.8559 C.ar      23 UNK        -0.0193 
     14 C14         3.0385  -18.1137  -51.0892 C.ar      23 UNK        -0.1150 
     15 C15         4.4612  -19.8851  -49.9912 C.3       23 UNK        -0.0205 
     16 S16         4.1324  -21.2895  -48.8728 S.3       23 UNK        -0.2404 
     17 C17         2.7065  -20.6897  -47.9008 C.3       23 UNK        -0.0398 
     18 CA          1.9868  -21.8644  -47.1977 C.3       11 UNK         0.1400 
     19 N           2.8414  -22.5138  -46.1993 N.am      11 UNK        -0.5000 
     20 C           2.7251  -23.7910  -45.8115 C.2       10 UNK         0.5000 
     21 O           1.8626  -24.5549  -46.2444 O.2       10 UNK        -0.5000 
     22 CA          3.7085  -24.2899  -44.7333 C.3       10 UNK         0.1400 
     23 CB          4.9255  -24.9605  -45.3877 C.3       10 UNK        -0.1800 
     24 N           4.1728  -23.2355  -43.8272 N.am      10 UNK        -0.5000 
     25 C           3.3796  -22.5256  -43.0139 C.2       9 UNK         0.5000 
     26 O           2.1655  -22.7091  -42.9296 O.2       9 UNK        -0.5000 
     27 CA          4.0215  -21.3948  -42.1865 C.3       9 UNK         0.1400 
     28 CB          5.5638  -21.3384  -42.2665 C.3       9 UNK        -0.1800 
     29 N           3.4397  -20.0954  -42.5324 N.am      9 UNK        -0.5000 
     30 C           3.4288  -19.5068  -43.7396 C.2       8 UNK         0.5000 
     31 O           3.9327  -20.0144  -44.7427 O.2       8 UNK        -0.5000 
     32 CA          2.7354  -18.1327  -43.8696 C.3       8 UNK         0.1400 
     33 CB          1.5247  -18.2170  -44.8055 C.3       8 UNK        -0.1800 
     34 N           2.2865  -17.5725  -42.5953 N.am      8 UNK        -0.5000 
     35 C           3.0820  -16.9920  -41.6868 C.2       7 UNK         0.5000 
     36 O           4.2846  -16.7928  -41.8601 O.2       7 UNK        -0.5000 
     37 CA          2.4338  -16.5958  -40.3437 C.3       7 UNK         0.1400 
     38 CB          2.0496  -15.1080  -40.3588 C.3       7 UNK        -0.1800 
     39 N           1.2461  -17.3821  -39.9952 N.am      7 UNK        -0.5000 
     40 C           1.1871  -18.7146  -39.8496 C.2       6 UNK         0.5000 
     41 O           2.1678  -19.4516  -39.9519 O.2       6 UNK        -0.5000 
     42 CA         -0.1991  -19.3362  -39.5764 C.3       6 UNK         0.1400 
     43 CB         -0.2847  -19.8433  -38.1287 C.3       6 UNK        -0.1800 
     44 N          -1.3234  -18.4273  -39.8266 N.am      6 UNK        -0.5000 
     45 C          -1.6852  -17.9560  -41.0273 C.2       5 UNK         0.5000 
     46 O          -1.1056  -18.2441  -42.0765 O.2       5 UNK        -0.5000 
     47 CA         -2.8461  -16.9507  -41.0228 C.3       5 UNK         0.1400 
     48 CB         -2.3559  -15.5772  -40.5328 C.3       5 UNK        -0.1800 
     49 N          -3.3820  -16.7882  -42.3692 N.am      5 UNK        -0.5000 
     50 C          -4.6554  -16.9898  -42.7329 C.2       4 UNK         0.5000 
     51 O          -5.5361  -17.3617  -41.9563 O.2       4 UNK        -0.5000 
     52 CA         -5.0291  -16.7083  -44.2033 C.3       4 UNK         0.1400 
     53 CB         -5.7850  -15.3747  -44.3137 C.3       4 UNK        -0.1800 
     54 N          -3.8625  -16.6509  -45.0809 N.am      4 UNK        -0.5000 
     55 C          -3.1918  -17.7158  -45.5334 C.2       3 UNK         0.5000 
     56 O          -3.6065  -18.8699  -45.4232 O.2       3 UNK        -0.5000 
     57 CA         -1.8536  -17.4584  -46.2547 C.3       3 UNK         0.1400 
     58 CB         -1.9265  -17.9650  -47.7009 C.3       3 UNK        -0.1800 
     59 N          -1.3909  -16.0625  -46.2567 N.am      3 UNK        -0.5000 
     60 C          -1.0203  -15.3577  -45.1737 C.2       2 UNK         0.5000 
     61 O          -1.1448  -15.7824  -44.0256 O.2       2 UNK        -0.5000 
     62 CA         -0.4502  -13.9384  -45.3960 C.3       2 UNK         0.1400 
     63 CB          0.5507  -13.5290  -44.2937 C.3       2 UNK        -0.1800 
     64 N           0.1202  -13.7363  -46.7331 N.am      2 UNK        -0.5000 
     65 C           1.1685  -14.3741  -47.2781 C.2       1 UNK         0.5000 
     66 O           1.8816  -15.1630  -46.6572 O.2       1 UNK        -0.5000 
     67 C           0.6125  -21.4514  -46.6252 C.2       11 UNK         0.5000 
     68 O          -0.2741  -21.1012  -47.4041 O.2       11 UNK        -0.5000 
     69 N           0.4128  -21.5596  -45.2999 N.am      12 UNK        -0.5000 
     70 CA         -0.8885  -21.3765  -44.6448 C.3       12 UNK         0.1400 
     71 CB         -0.6985  -21.3327  -43.1221 C.3       12 UNK        -0.1800 
     72 C          -1.9103  -22.4685  -45.0247 C.2       12 UNK         0.5000 
     73 O          -3.1135  -22.2487  -44.8894 O.2       12 UNK        -0.5000 
     74 N          -1.4218  -23.6099  -45.5364 N.am      13 UNK        -0.5000 
     75 CA         -2.2137  -24.7249  -46.0608 C.3       13 UNK         0.1400 
     76 CB         -1.2683  -25.8845  -46.4075 C.3       13 UNK        -0.1800 
     77 C          -3.0897  -24.3616  -47.2785 C.2       13 UNK         0.5000 
     78 O          -4.0409  -25.0887  -47.5664 O.2       13 UNK        -0.5000 
     79 N          -2.7843  -23.2421  -47.9548 N.am      14 UNK        -0.5000 
     80 CA         -3.6216  -22.6592  -49.0052 C.3       14 UNK         0.1400 
     81 CB         -2.8203  -21.5922  -49.7659 C.3       14 UNK        -0.1800 
     82 C          -4.9475  -22.0736  -48.4731 C.2       14 UNK         0.5000 
     83 O          -5.8811  -21.9243  -49.2602 O.2       14 UNK        -0.5000 
     84 N          -5.0139  -21.7747  -47.1628 N.am      15 UNK        -0.5000 
     85 CA         -6.1870  -21.3211  -46.4073 C.3       15 UNK         0.1400 
     86 CB         -7.1845  -22.4843  -46.2336 C.3       15 UNK        -0.1800 
     87 C          -6.8313  -20.0635  -47.0210 C.2       15 UNK         0.5000 
     88 O          -7.9855  -20.0965  -47.4502 O.2       15 UNK        -0.5000 
     89 N          -6.0290  -18.9951  -47.1093 N.am      16 UNK        -0.5000 
     90 CA         -6.3014  -17.6859  -47.7208 C.3       16 UNK         0.1400 
     91 CB         -7.5590  -17.0260  -47.1213 C.3       16 UNK        -0.1800 
     92 C          -6.3717  -17.6923  -49.2611 C.2       16 UNK         0.5000 
     93 O          -6.0436  -16.6765  -49.8748 O.2       16 UNK        -0.5000 
     94 N          -6.7571  -18.8170  -49.8761 N.am      17 UNK        -0.5000 
     95 CA         -6.9240  -19.0001  -51.3195 C.3       17 UNK         0.1400 
     96 CB         -7.9311  -20.1381  -51.5594 C.3       17 UNK        -0.1800 
     97 C          -5.5855  -19.2233  -52.0566 C.2       17 UNK         0.5000 
     98 O          -5.4819  -20.1088  -52.9071 O.2       17 UNK        -0.5000 
     99 N          -4.5827  -18.3943  -51.7406 N.am      18 UNK        -0.5000 
    100 CA        -3.2318  -18.4095  -52.3066 C.3       18 UNK         0.1400 
    101 CB        -2.4104  -17.2948  -51.6456 C.3       18 UNK        -0.1800 
    102 C         -3.2005  -18.2663  -53.8387 C.2       18 UNK         0.5000 
    103 O         -2.4094  -18.9408  -54.4982 O.2       18 UNK        -0.5000 
    104 N         -4.0951  -17.4235  -54.3721 N.am      19 UNK        -0.5000 
    105 CA        -4.2698  -17.1838  -55.8049 C.3       19 UNK         0.1400 
    106 CB        -5.1430  -15.9347  -55.9974 C.3       19 UNK        -0.1800 
    107 C         -4.8717  -18.3834  -56.5625 C.2       19 UNK         0.5000 
    108 O         -4.6404  -18.5083  -57.7650 O.2       19 UNK        -0.5000 
    109 N         -5.6209  -19.2448  -55.8608 N.am      20 UNK        -0.5000 
    110 CA        -6.1606  -20.4891  -56.4072 C.3       20 UNK         0.1400 
    111 CB        -7.4789  -20.8372  -55.6992 C.3       20 UNK        -0.1800 
    112 C         -5.1447  -21.6334  -56.2617 C.2       20 UNK         0.5000 
    113 O         -4.9733  -22.4152  -57.1971 O.2       20 UNK        -0.5000 
    114 N         -4.4855  -21.7017  -55.0964 N.am      21 UNK        -0.5000 
    115 CA        -3.4969  -22.7211  -54.7495 C.3       21 UNK         0.1400 
    116 CB        -3.1741  -22.6194  -53.2504 C.3       21 UNK        -0.1800 
    117 C         -2.2110  -22.6402  -55.5921 C.2       21 UNK         0.5000 
    118 O         -1.7175  -23.6792  -56.0337 O.2       21 UNK        -0.5000 
    119 N         -1.7000  -21.4198  -55.7972 N.am      22 UNK        -0.5000 
    120 CA        -0.4422  -21.1366  -56.5123 C.3       22 UNK         0.1400 
    121 C         -0.6283  -20.1895  -57.7324 C.2       22 UNK         0.5000 
    122 N         -1.8460  -19.8624  -58.1434 N.am      22 UNK        -0.7600 
    123 O          0.3488  -19.7586  -58.3391 O.2       22 UNK        -0.5000 
    124 C124        0.6614  -20.6221  -55.5494 C.3       23 UNK        -0.0398 
    125 S125        1.0877  -21.8410  -54.2579 S.3       23 UNK        -0.2404 
    126 C126        0.3825  -21.0594  -52.7755 C.3       23 UNK        -0.0205 
    127 H127       -1.5721  -12.4421  -50.8456 H         1 UNK         0.0600 
    128 H128       -2.8556  -13.4071  -50.1105 H         1 UNK         0.0600 
    129 H129       -2.0052  -14.0084  -51.5380 H         1 UNK         0.0600 
    130 H130        0.4649  -12.6632  -49.9623 H         1 UNK         0.3000 
    131 H131        2.2037  -13.2980  -48.7745 H         1 UNK         0.0600 
    132 H132        2.9872  -15.6529  -48.9262 H         1 UNK         0.0800 
    133 H133        1.4085  -16.1721  -49.4491 H         1 UNK         0.0800 
    134 H134        1.7720  -16.0145  -53.1833 H         1 UNK         0.0800 
    135 H135        0.5826  -16.0187  -51.9043 H         1 UNK         0.0800 
    136 H136        0.2588  -18.3453  -53.0179 H         1 UNK         0.1150 
    137 H137        2.5899  -21.4716  -51.2632 H         1 UNK         0.1150 
    138 H138        3.7195  -17.3947  -50.6600 H         1 UNK         0.1150 
    139 H139        5.2915  -20.1484  -50.6475 H         1 UNK         0.0800 
    140 H140        4.8016  -19.0443  -49.3847 H         1 UNK         0.0800 
    141 H141        2.0167  -20.1686  -48.5662 H         1 UNK         0.0800 
    142 H142        3.0591  -19.9497  -47.1839 H         1 UNK         0.0800 
    143 H143        1.7596  -22.6022  -47.9708 H         1 UNK         0.0600 
    144 H144        3.5451  -21.9263  -45.7671 H         1 UNK         0.3000 
    145 H145        3.1851  -25.0381  -44.1344 H         1 UNK         0.0600 
    146 H146        5.5903  -25.3910  -44.6386 H         1 UNK         0.0600 
    147 H147        4.6160  -25.7705  -46.0496 H         1 UNK         0.0600 
    148 H148        5.5026  -24.2521  -45.9837 H         1 UNK         0.0600 
    149 H149        5.1560  -23.0087  -43.8604 H         1 UNK         0.3000 
    150 H150        3.7509  -21.5871  -41.1473 H         1 UNK         0.0600 
    151 H151        6.0103  -22.2764  -41.9339 H         1 UNK         0.0600 
    152 H152        5.9546  -20.5533  -41.6190 H         1 UNK         0.0600 
    153 H153        5.9215  -21.1364  -43.2766 H         1 UNK         0.0600 
    154 H154        2.9665  -19.6304  -41.7648 H         1 UNK         0.3000 
    155 H155        3.4597  -17.4494  -44.3176 H         1 UNK         0.0600 
    156 H156        0.7316  -18.8315  -44.3809 H         1 UNK         0.0600 
    157 H157        1.7907  -18.6334  -45.7756 H         1 UNK         0.0600 
    158 H158        1.1188  -17.2247  -44.9894 H         1 UNK         0.0600 
    159 H159        1.3049  -17.6859  -42.3759 H         1 UNK         0.3000 
    160 H160        3.1778  -16.7553  -39.5608 H         1 UNK         0.0600 
    161 H161        1.2858  -14.8984  -41.1093 H         1 UNK         0.0600 
    162 H162        2.9138  -14.4828  -40.5873 H         1 UNK         0.0600 
    163 H163        1.6663  -14.7880  -39.3898 H         1 UNK         0.0600 
    164 H164        0.3857  -16.8659  -39.8935 H         1 UNK         0.3000 
    165 H165       -0.3038  -20.1930  -40.2451 H         1 UNK         0.0600 
    166 H166       -1.2281  -20.3579  -37.9456 H         1 UNK         0.0600 
    167 H167        0.5161  -20.5522  -37.9138 H         1 UNK         0.0600 
    168 H168       -0.2012  -19.0264  -37.4108 H         1 UNK         0.0600 
    169 H169       -1.8433  -18.1331  -39.0121 H         1 UNK         0.3000 
    170 H170       -3.6133  -17.3211  -40.3401 H         1 UNK         0.0600 
    171 H171       -1.9671  -15.6322  -39.5154 H         1 UNK         0.0600 
    172 H172       -1.5616  -15.1840  -41.1696 H         1 UNK         0.0600 
    173 H173       -3.1682  -14.8502  -40.5282 H         1 UNK         0.0600 
    174 H174       -2.6877  -16.5485  -43.0723 H         1 UNK         0.3000 
    175 H175       -5.6881  -17.5118  -44.5372 H         1 UNK         0.0600 
    176 H176       -5.1875  -14.5423  -43.9396 H         1 UNK         0.0600 
    177 H177       -6.0540  -15.1533  -45.3464 H         1 UNK         0.0600 
    178 H178       -6.7094  -15.4013  -43.7354 H         1 UNK         0.0600 
    179 H179       -3.4526  -15.7409  -45.2289 H         1 UNK         0.3000 
    180 H180       -1.1058  -18.0528  -45.7307 H         1 UNK         0.0600 
    181 H181       -0.9652  -17.8664  -48.2061 H         1 UNK         0.0600 
    182 H182       -2.6729  -17.4171  -48.2767 H         1 UNK         0.0600 
    183 H183       -2.1965  -19.0198  -47.7282 H         1 UNK         0.0600 
    184 H184       -1.2707  -15.6445  -47.1743 H         1 UNK         0.3000 
    185 H185       -1.3032  -13.2620  -45.3289 H         1 UNK         0.0600 
    186 H186        1.3865  -14.2260  -44.2237 H         1 UNK         0.0600 
    187 H187        0.9559  -12.5339  -44.4765 H         1 UNK         0.0600 
    188 H188        0.0676  -13.5064  -43.3161 H         1 UNK         0.0600 
    189 H189       -0.3964  -13.1120  -47.3366 H         1 UNK         0.3000 
    190 H190        1.1694  -21.8864  -44.7103 H         1 UNK         0.3000 
    191 H191       -1.2949  -20.4157  -44.9656 H         1 UNK         0.0600 
    192 H192       -1.6205  -21.0248  -42.6276 H         1 UNK         0.0600 
    193 H193        0.0769  -20.6226  -42.8349 H         1 UNK         0.0600 
    194 H194       -0.4248  -22.3089  -42.7210 H         1 UNK         0.0600 
    195 H195       -0.4183  -23.7066  -45.6114 H         1 UNK         0.3000 
    196 H196       -2.8853  -25.0546  -45.2656 H         1 UNK         0.0600 
    197 H197       -0.5710  -25.6096  -47.1999 H         1 UNK         0.0600 
    198 H198       -0.6845  -26.1928  -45.5398 H         1 UNK         0.0600 
    199 H199       -1.8266  -26.7569  -46.7495 H         1 UNK         0.0600 
    200 H200       -1.9806  -22.6995  -47.6652 H         1 UNK         0.3000 
    201 H201       -3.8797  -23.4505  -49.7122 H         1 UNK         0.0600 
    202 H202       -2.4887  -20.7917  -49.1072 H         1 UNK         0.0600 
    203 H203       -3.4263  -21.1405  -50.5517 H         1 UNK         0.0600 
    204 H204       -1.9381  -22.0223  -50.2402 H         1 UNK         0.0600 
    205 H205       -4.1869  -21.9268  -46.5948 H         1 UNK         0.3000 
    206 H206       -5.8294  -21.0392  -45.4156 H         1 UNK         0.0600 
    207 H207       -6.7105  -23.3380  -45.7490 H         1 UNK         0.0600 
    208 H208       -8.0293  -22.1848  -45.6123 H         1 UNK         0.0600 
    209 H209       -7.5839  -22.8228  -47.1903 H         1 UNK         0.0600 
    210 H210       -5.0996  -19.0942  -46.7104 H         1 UNK         0.3000 
    211 H211       -5.4491  -17.0586  -47.4584 H         1 UNK         0.0600 
    212 H212       -7.6233  -15.9786  -47.4180 H         1 UNK         0.0600 
    213 H213       -7.5502  -17.0572  -46.0327 H         1 UNK         0.0600 
    214 H214       -8.4748  -17.5119  -47.4591 H         1 UNK         0.0600 
    215 H215       -6.9910  -19.6154  -49.2972 H         1 UNK         0.3000 
    216 H216       -7.3601  -18.0880  -51.7317 H         1 UNK         0.0600 
    217 H217       -7.5320  -21.1025  -51.2438 H         1 UNK         0.0600 
    218 H218       -8.1890  -20.2168  -52.6152 H         1 UNK         0.0600 
    219 H219       -8.8596  -19.9658  -51.0147 H         1 UNK         0.0600 
    220 H220       -4.7829  -17.6730  -51.0557 H         1 UNK         0.3000 
    221 H221       -2.7712  -19.3670  -52.0601 H         1 UNK         0.0600 
    222 H222       -2.2176  -17.5186  -50.5977 H         1 UNK         0.0600 
    223 H223       -2.9221  -16.3332  -51.6943 H         1 UNK         0.0600 
    224 H224       -1.4445  -17.1704  -52.1301 H         1 UNK         0.0600 
    225 H225       -4.7072  -16.9175  -53.7491 H         1 UNK         0.3000 
    226 H226       -3.2867  -16.9849  -56.2373 H         1 UNK         0.0600 
    227 H227       -6.1365  -16.0678  -55.5674 H         1 UNK         0.0600 
    228 H228       -4.6887  -15.0599  -55.5317 H         1 UNK         0.0600 
    229 H229       -5.2714  -15.7072  -57.0565 H         1 UNK         0.0600 
    230 H230       -5.7241  -19.1059  -54.8648 H         1 UNK         0.3000 
    231 H231       -6.3788  -20.3595  -57.4695 H         1 UNK         0.0600 
    232 H232       -7.3262  -21.0559  -54.6428 H         1 UNK         0.0600 
    233 H233       -7.9387  -21.7177  -56.1495 H         1 UNK         0.0600 
    234 H234       -8.1967  -20.0203  -55.7743 H         1 UNK         0.0600 
    235 H235       -4.7340  -21.0474  -54.3593 H         1 UNK         0.3000 
    236 H236       -3.9491  -23.6984  -54.9306 H         1 UNK         0.0600 
    237 H237       -4.0637  -22.7887  -52.6432 H         1 UNK         0.0600 
    238 H238       -2.4306  -23.3610  -52.9556 H         1 UNK         0.0600 
    239 H239       -2.7797  -21.6370  -52.9935 H         1 UNK         0.0600 
    240 H240       -2.1507  -20.6100  -55.3789 H         1 UNK         0.3000 
    241 H241       -0.0684  -22.0597  -56.9580 H         1 UNK         0.0600 
    242 H242       -1.9559  -19.2502  -58.9362 H         1 UNK         0.3800 
    243 H243       -2.6636  -20.2181  -57.6753 H         1 UNK         0.3800 
    244 H244        0.3559  -19.6794  -55.0939 H         1 UNK         0.0800 
    245 H245        1.5806  -20.4077  -56.0967 H         1 UNK         0.0800 
    246 H246        0.1927  -21.8302  -52.0271 H         1 UNK         0.0800 
    247 H247       -0.5875  -20.6207  -53.0122 H         1 UNK         0.0800 
@<TRIPOS>BOND
     1    1    2 1    
     2    1  127 1    
     3    1  128 1    
     4    1  129 1    
     5    2    3 2    
     6    2    4 am   BACKBONE|DICT|INTERRES
     7    4    5 1    
     8    4  130 1    
     9    5    6 1    
    10    5   65 1    
    11    5  131 1    
    12    6    7 1    
    13    6  132 1    
    14    6  133 1    
    15    7    8 1    
    16    8    9 1    
    17    8  134 1    
    18    8  135 1    
    19    9   10 ar   
    20    9   14 ar   
    21   10   11 ar   
    22   10  136 1    
    23   11   12 ar   
    24   11  126 1    
    25   12   13 ar   
    26   12  137 1    
    27   13   14 ar   
    28   13   15 1    
    29   14  138 1    
    30   15   16 1    
    31   15  139 1    
    32   15  140 1    
    33   16   17 1    
    34   17   18 1    
    35   17  141 1    
    36   17  142 1    
    37   18   19 1    
    38   18   67 1    
    39   18  143 1    
    40   19   20 am   BACKBONE|DICT|INTERRES
    41   19  144 1    
    42   20   21 2    
    43   20   22 1    
    44   22   23 1    
    45   22   24 1    
    46   22  145 1    
    47   23  146 1    
    48   23  147 1    
    49   23  148 1    
    50   24   25 am   BACKBONE|DICT|INTERRES
    51   24  149 1    
    52   25   26 2    
    53   25   27 1    
    54   27   28 1    
    55   27   29 1    
    56   27  150 1    
    57   28  151 1    
    58   28  152 1    
    59   28  153 1    
    60   29   30 am   BACKBONE|DICT|INTERRES
    61   29  154 1    
    62   30   31 2    
    63   30   32 1    
    64   32   33 1    
    65   32   34 1    
    66   32  155 1    
    67   33  156 1    
    68   33  157 1    
    69   33  158 1    
    70   34   35 am   BACKBONE|DICT|INTERRES
    71   34  159 1    
    72   35   36 2    
    73   35   37 1    
    74   37   38 1    
    75   37   39 1    
    76   37  160 1    
    77   38  161 1    
    78   38  162 1    
    79   38  163 1    
    80   39   40 am   BACKBONE|DICT|INTERRES
    81   39  164 1    
    82   40   41 2    
    83   40   42 1    
    84   42   43 1    
    85   42   44 1    
    86   42  165 1    
    87   43  166 1    
    88   43  167 1    
    89   43  168 1    
    90   44   45 am   BACKBONE|DICT|INTERRES
    91   44  169 1    
    92   45   46 2    
    93   45   47 1    
    94   47   48 1    
    95   47   49 1    
    96   47  170 1    
    97   48  171 1    
    98   48  172 1    
    99   48  173 1    
   100   49   50 am   BACKBONE|DICT|INTERRES
   101   49  174 1    
   102   50   51 2    
   103   50   52 1    
   104   52   53 1    
   105   52   54 1    
   106   52  175 1    
   107   53  176 1    
   108   53  177 1    
   109   53  178 1    
   110   54   55 am   BACKBONE|DICT|INTERRES
   111   54  179 1    
   112   55   56 2    
   113   55   57 1    
   114   57   58 1    
   115   57   59 1    
   116   57  180 1    
   117   58  181 1    
   118   58  182 1    
   119   58  183 1    
   120   59   60 am   BACKBONE|DICT|INTERRES
   121   59  184 1    
   122   60   61 2    
   123   60   62 1    
   124   62   63 1    
   125   62   64 1    
   126   62  185 1    
   127   63  186 1    
   128   63  187 1    
   129   63  188 1    
   130   64   65 am   BACKBONE|DICT|INTERRES
   131   64  189 1    
   132   65   66 2    
   133   67   68 2    
   134   67   69 am   BACKBONE|DICT|INTERRES
   135   69   70 1    
   136   69  190 1    
   137   70   71 1    
   138   70   72 1    
   139   70  191 1    
   140   71  192 1    
   141   71  193 1    
   142   71  194 1    
   143   72   73 2    
   144   72   74 am   BACKBONE|DICT|INTERRES
   145   74   75 1    
   146   74  195 1    
   147   75   76 1    
   148   75   77 1    
   149   75  196 1    
   150   76  197 1    
   151   76  198 1    
   152   76  199 1    
   153   77   78 2    
   154   77   79 am   BACKBONE|DICT|INTERRES
   155   79   80 1    
   156   79  200 1    
   157   80   81 1    
   158   80   82 1    
   159   80  201 1    
   160   81  202 1    
   161   81  203 1    
   162   81  204 1    
   163   82   83 2    
   164   82   84 am   BACKBONE|DICT|INTERRES
   165   84   85 1    
   166   84  205 1    
   167   85   86 1    
   168   85   87 1    
   169   85  206 1    
   170   86  207 1    
   171   86  208 1    
   172   86  209 1    
   173   87   88 2    
   174   87   89 am   BACKBONE|DICT|INTERRES
   175   89   90 1    
   176   89  210 1    
   177   90   91 1    
   178   90   92 1    
   179   90  211 1    
   180   91  212 1    
   181   91  213 1    
   182   91  214 1    
   183   92   93 2    
   184   92   94 am   BACKBONE|DICT|INTERRES
   185   94   95 1    
   186   94  215 1    
   187   95   96 1    
   188   95   97 1    
   189   95  216 1    
   190   96  217 1    
   191   96  218 1    
   192   96  219 1    
   193   97   98 2    
   194   97   99 am   BACKBONE|DICT|INTERRES
   195   99  100 1    
   196   99  220 1    
   197  100  101 1    
   198  100  102 1    
   199  100  221 1    
   200  101  222 1    
   201  101  223 1    
   202  101  224 1    
   203  102  103 2    
   204  102  104 am   BACKBONE|DICT|INTERRES
   205  104  105 1    
   206  104  225 1    
   207  105  106 1    
   208  105  107 1    
   209  105  226 1    
   210  106  227 1    
   211  106  228 1    
   212  106  229 1    
   213  107  108 2    
   214  107  109 am   BACKBONE|DICT|INTERRES
   215  109  110 1    
   216  109  230 1    
   217  110  111 1    
   218  110  112 1    
   219  110  231 1    
   220  111  232 1    
   221  111  233 1    
   222  111  234 1    
   223  112  113 2    
   224  112  114 am   BACKBONE|DICT|INTERRES
   225  114  115 1    
   226  114  235 1    
   227  115  116 1    
   228  115  117 1    
   229  115  236 1    
   230  116  237 1    
   231  116  238 1    
   232  116  239 1    
   233  117  118 2    
   234  117  119 am   BACKBONE|DICT|INTERRES
   235  119  120 1    
   236  119  240 1    
   237  120  121 1    
   238  120  124 1    
   239  120  241 1    
   240  121  122 am   BACKBONE|DICT|INTERRES
   241  121  123 2    
   242  122  242 1    
   243  122  243 1    
   244  124  125 1    
   245  124  244 1    
   246  124  245 1    
   247  125  126 1    
   248  126  246 1    
   249  126  247 1    
@<TRIPOS>SUBSTRUCTURE
     1 UNK         1 GROUP             0       ****    0 ROOT    
