@<TRIPOS>MOLECULE
3R540
247   249    1
SMALL
USER_CHARGES


@<TRIPOS>ATOM
      1 CA          1.1732   -9.8174  -45.8148 C.3       0 UNK        -0.1800 
      2 C           0.9155  -11.2005  -46.3953 C.2       0 UNK         0.5000 
      3 O           1.7845  -11.7517  -47.0699 O.2       0 UNK        -0.5000 
      4 N          -0.2695  -11.7604  -46.1285 N.am      1 UNK        -0.5000 
      5 CA         -0.7005  -13.0829  -46.5976 C.3       1 UNK         0.1400 
      6 C6         -1.4081  -13.0028  -47.9833 C.3       23 UNK        -0.0398 
      7 S7         -0.6909  -14.1276  -49.2277 S.3       23 UNK        -0.2404 
      8 C8         -1.8069  -15.5547  -49.0948 C.3       23 UNK        -0.0205 
      9 C9         -1.6149  -16.5217  -50.2521 C.ar      23 UNK        -0.0193 
     10 C10        -2.2775  -16.3004  -51.4621 C.ar      23 UNK        -0.1150 
     11 C11        -2.1004  -17.1736  -52.5381 C.ar      23 UNK        -0.0193 
     12 C12        -1.2802  -18.2962  -52.3844 C.ar      23 UNK        -0.1150 
     13 C13        -0.6049  -18.5271  -51.1816 C.ar      23 UNK        -0.0193 
     14 C14        -0.7717  -17.6289  -50.1219 C.ar      23 UNK        -0.1150 
     15 C15         0.3465  -19.7117  -51.0597 C.3       23 UNK        -0.0205 
     16 S16        -0.4251  -21.1634  -50.2749 S.3       23 UNK        -0.2404 
     17 C17        -0.0623  -20.8544  -48.5142 C.3       23 UNK        -0.0398 
     18 CA         -1.0521  -21.5029  -47.5184 C.3       11 UNK         0.1400 
     19 N          -0.5812  -21.3521  -46.1387 N.am      11 UNK        -0.5000 
     20 C          -1.1486  -21.9077  -45.0586 C.2       10 UNK         0.5000 
     21 O          -2.1055  -22.6775  -45.1081 O.2       10 UNK        -0.5000 
     22 CA         -0.5890  -21.4882  -43.6874 C.3       10 UNK         0.1400 
     23 CB          0.6895  -22.2696  -43.3509 C.3       10 UNK        -0.1800 
     24 N          -0.3207  -20.0526  -43.6136 N.am      10 UNK        -0.5000 
     25 C          -1.2502  -19.0926  -43.7180 C.2       9 UNK         0.5000 
     26 O          -2.4562  -19.3143  -43.8173 O.2       9 UNK        -0.5000 
     27 CA         -0.7362  -17.6436  -43.7797 C.3       9 UNK         0.1400 
     28 CB         -0.4145  -17.1122  -42.3748 C.3       9 UNK        -0.1800 
     29 N           0.4426  -17.5226  -44.6385 N.am      9 UNK        -0.5000 
     30 C           0.4194  -17.6963  -45.9678 C.2       8 UNK         0.5000 
     31 O          -0.6062  -17.9299  -46.6041 O.2       8 UNK        -0.5000 
     32 CA          1.7715  -17.6692  -46.7028 C.3       8 UNK         0.1400 
     33 CB          2.1334  -16.2484  -47.1465 C.3       8 UNK        -0.1800 
     34 N           2.8522  -18.2267  -45.8900 N.am      8 UNK        -0.5000 
     35 C           2.9788  -19.5369  -45.6355 C.2       7 UNK         0.5000 
     36 O           2.2232  -20.3937  -46.0943 O.2       7 UNK        -0.5000 
     37 CA          4.0969  -19.9541  -44.6622 C.3       7 UNK         0.1400 
     38 CB          5.4267  -20.1312  -45.4090 C.3       7 UNK        -0.1800 
     39 N           4.2809  -19.0084  -43.5594 N.am      7 UNK        -0.5000 
     40 C           3.3417  -18.6956  -42.6565 C.2       6 UNK         0.5000 
     41 O           2.2185  -19.1961  -42.6520 O.2       6 UNK        -0.5000 
     42 CA          3.6946  -17.6392  -41.5936 C.3       6 UNK         0.1400 
     43 CB          5.2023  -17.5826  -41.2650 C.3       6 UNK        -0.1800 
     44 N           3.1989  -16.2986  -41.9237 N.am      6 UNK        -0.5000 
     45 C           3.4847  -15.5582  -43.0081 C.2       5 UNK         0.5000 
     46 O           4.0567  -15.9996  -44.0058 O.2       5 UNK        -0.5000 
     47 CA          3.0823  -14.0647  -42.9807 C.3       5 UNK         0.1400 
     48 CB          1.9893  -13.7686  -44.0138 C.3       5 UNK        -0.1800 
     49 N           2.6310  -13.5866  -41.6715 N.am      5 UNK        -0.5000 
     50 C           3.4089  -13.4465  -40.5878 C.2       4 UNK         0.5000 
     51 O           4.6252  -13.6384  -40.5983 O.2       4 UNK        -0.5000 
     52 CA          2.7237  -13.0524  -39.2620 C.3       4 UNK         0.1400 
     53 CB          3.0944  -11.6129  -38.8723 C.3       4 UNK        -0.1800 
     54 N           1.2628  -13.1736  -39.2621 N.am      4 UNK        -0.5000 
     55 C           0.5531  -14.2980  -39.4325 C.2       3 UNK         0.5000 
     56 O           1.0610  -15.4017  -39.6396 O.2       3 UNK        -0.5000 
     57 CA         -0.9852  -14.1602  -39.4056 C.3       3 UNK         0.1400 
     58 CB         -1.4825  -12.8688  -38.7178 C.3       3 UNK        -0.1800 
     59 N          -1.5901  -14.2781  -40.7378 N.am      3 UNK        -0.5000 
     60 C          -1.2783  -13.5785  -41.8383 C.2       2 UNK         0.5000 
     61 O          -0.3763  -12.7372  -41.8960 O.2       2 UNK        -0.5000 
     62 CA         -2.1225  -13.8705  -43.0881 C.3       2 UNK         0.1400 
     63 CB         -3.5136  -13.2211  -42.9846 C.3       2 UNK        -0.1800 
     64 N          -1.4231  -13.3500  -44.2572 N.am      2 UNK        -0.5000 
     65 C          -1.5426  -13.7973  -45.5142 C.2       1 UNK         0.5000 
     66 O          -2.2857  -14.7270  -45.8258 O.2       1 UNK        -0.5000 
     67 C          -2.4968  -20.9827  -47.6856 C.2       11 UNK         0.5000 
     68 O          -3.3363  -21.7045  -48.2250 O.2       11 UNK        -0.5000 
     69 N          -2.7800  -19.7767  -47.1701 N.am      12 UNK        -0.5000 
     70 CA         -4.1159  -19.1767  -47.1544 C.3       12 UNK         0.1400 
     71 CB         -4.0421  -17.7409  -46.6161 C.3       12 UNK        -0.1800 
     72 C          -5.1375  -20.0061  -46.3553 C.2       12 UNK         0.5000 
     73 O          -6.2342  -20.2568  -46.8560 O.2       12 UNK        -0.5000 
     74 N          -4.7466  -20.4606  -45.1557 N.am      13 UNK        -0.5000 
     75 CA         -5.5485  -21.3281  -44.2866 C.3       13 UNK         0.1400 
     76 CB         -4.8352  -21.4999  -42.9374 C.3       13 UNK        -0.1800 
     77 C          -5.8601  -22.7007  -44.9155 C.2       13 UNK         0.5000 
     78 O          -6.9498  -23.2341  -44.7062 O.2       13 UNK        -0.5000 
     79 N          -4.9168  -23.2227  -45.7091 N.am      14 UNK        -0.5000 
     80 CA         -5.0454  -24.4481  -46.4975 C.3       14 UNK         0.1400 
     81 CB         -3.6406  -25.0269  -46.7356 C.3       14 UNK        -0.1800 
     82 C          -5.8015  -24.2523  -47.8310 C.2       14 UNK         0.5000 
     83 O          -5.8786  -25.2031  -48.6087 O.2       14 UNK        -0.5000 
     84 N          -6.3358  -23.0457  -48.0801 N.am      15 UNK        -0.5000 
     85 CA         -7.0891  -22.6285  -49.2675 C.3       15 UNK         0.1400 
     86 CB         -8.4080  -23.4200  -49.3981 C.3       15 UNK        -0.1800 
     87 C          -6.2264  -22.6524  -50.5449 C.2       15 UNK         0.5000 
     88 O          -6.6102  -23.2570  -51.5474 O.2       15 UNK        -0.5000 
     89 N          -5.0673  -21.9852  -50.4597 N.am      16 UNK        -0.5000 
     90 CA         -4.0076  -21.8828  -51.4683 C.3       16 UNK         0.1400 
     91 CB         -4.5298  -21.3137  -52.8021 C.3       16 UNK        -0.1800 
     92 C          -3.2197  -23.1973  -51.6323 C.2       16 UNK         0.5000 
     93 O          -2.7020  -23.4732  -52.7150 O.2       16 UNK        -0.5000 
     94 N          -3.1311  -23.9769  -50.5436 N.am      17 UNK        -0.5000 
     95 CA         -2.4188  -25.2517  -50.4197 C.3       17 UNK         0.1400 
     96 CB         -0.8986  -24.9891  -50.3343 C.3       17 UNK        -0.1800 
     97 C          -2.8266  -26.2658  -51.5131 C.2       17 UNK         0.5000 
     98 O          -4.0202  -26.4435  -51.7628 O.2       17 UNK        -0.5000 
     99 N          -1.8444  -26.8936  -52.1713 N.am      18 UNK        -0.5000 
    100 CA        -2.0260  -27.8097  -53.2992 C.3       18 UNK         0.1400 
    101 CB        -0.8691  -28.8257  -53.2955 C.3       18 UNK        -0.1800 
    102 C         -2.1459  -27.0443  -54.6364 C.2       18 UNK         0.5000 
    103 O         -1.4459  -27.3701  -55.5969 O.2       18 UNK        -0.5000 
    104 N         -3.0187  -26.0260  -54.6609 N.am      19 UNK        -0.5000 
    105 CA        -3.2662  -25.0831  -55.7577 C.3       19 UNK         0.1400 
    106 CB        -3.9357  -25.7937  -56.9525 C.3       19 UNK        -0.1800 
    107 C         -2.0021  -24.2880  -56.1496 C.2       19 UNK         0.5000 
    108 O         -1.6650  -24.1839  -57.3309 O.2       19 UNK        -0.5000 
    109 N         -1.3175  -23.7494  -55.1347 N.am      20 UNK        -0.5000 
    110 CA        -0.1557  -22.8802  -55.2774 C.3       20 UNK         0.1400 
    111 CB         0.6111  -22.8546  -53.9459 C.3       20 UNK        -0.1800 
    112 C         -0.6101  -21.4653  -55.6662 C.2       20 UNK         0.5000 
    113 O         -1.5385  -20.9432  -55.0456 O.2       20 UNK        -0.5000 
    114 N          0.0533  -20.8744  -56.6702 N.am      21 UNK        -0.5000 
    115 CA        -0.1759  -19.5344  -57.2246 C.3       21 UNK         0.1400 
    116 CB         0.3246  -18.4525  -56.2431 C.3       21 UNK        -0.1800 
    117 C         -1.6345  -19.3160  -57.6823 C.2       21 UNK         0.5000 
    118 O         -1.9633  -19.6253  -58.8284 O.2       21 UNK        -0.5000 
    119 N         -2.4740  -18.8010  -56.7773 N.am      22 UNK        -0.5000 
    120 CA        -3.9262  -18.6515  -56.9407 C.3       22 UNK         0.1400 
    121 C         -4.7239  -19.9874  -56.8666 C.2       22 UNK         0.5000 
    122 N         -4.1679  -21.0645  -56.3254 N.am      22 UNK        -0.7600 
    123 O         -5.8629  -20.0476  -57.3220 O.2       22 UNK        -0.5000 
    124 C124       -4.4966  -17.5858  -55.9668 C.3       23 UNK        -0.0398 
    125 S125       -4.1802  -17.9457  -54.2000 S.3       23 UNK        -0.2404 
    126 C126       -2.7484  -16.8739  -53.8810 C.3       23 UNK        -0.0205 
    127 H127        2.0351   -9.8463  -45.1482 H         1 UNK         0.0600 
    128 H128        0.3180   -9.4484  -45.2483 H         1 UNK         0.0600 
    129 H129        1.3829   -9.1076  -46.6149 H         1 UNK         0.0600 
    130 H130       -0.9552  -11.2455  -45.5928 H         1 UNK         0.3000 
    131 H131        0.1904  -13.7076  -46.6899 H         1 UNK         0.0600 
    132 H132       -1.3096  -11.9995  -48.4001 H         1 UNK         0.0800 
    133 H133       -2.4857  -13.1609  -47.9128 H         1 UNK         0.0800 
    134 H134       -1.6156  -16.0557  -48.1465 H         1 UNK         0.0800 
    135 H135       -2.8446  -15.2193  -49.0675 H         1 UNK         0.0800 
    136 H136       -2.9123  -15.4322  -51.5718 H         1 UNK         0.1150 
    137 H137       -1.1507  -18.9810  -53.2102 H         1 UNK         0.1150 
    138 H138       -0.2385  -17.7768  -49.1965 H         1 UNK         0.1150 
    139 H139        0.6920  -20.0066  -52.0520 H         1 UNK         0.0800 
    140 H140        1.2418  -19.4202  -50.5085 H         1 UNK         0.0800 
    141 H141       -0.0127  -19.7838  -48.3390 H         1 UNK         0.0800 
    142 H142        0.9431  -21.2336  -48.3273 H         1 UNK         0.0800 
    143 H143       -1.0733  -22.5748  -47.7251 H         1 UNK         0.0600 
    144 H144        0.2456  -20.7795  -46.0058 H         1 UNK         0.3000 
    145 H145       -1.3413  -21.7254  -42.9327 H         1 UNK         0.0600 
    146 H146        1.0584  -22.0117  -42.3580 H         1 UNK         0.0600 
    147 H147        0.5034  -23.3442  -43.3613 H         1 UNK         0.0600 
    148 H148        1.4873  -22.0675  -44.0655 H         1 UNK         0.0600 
    149 H149        0.6457  -19.7743  -43.4614 H         1 UNK         0.3000 
    150 H150       -1.5262  -17.0245  -44.2095 H         1 UNK         0.0600 
    151 H151       -1.3219  -17.0341  -41.7759 H         1 UNK         0.0600 
    152 H152        0.0419  -16.1246  -42.4179 H         1 UNK         0.0600 
    153 H153        0.2689  -17.7630  -41.8311 H         1 UNK         0.0600 
    154 H154        1.3344  -17.4197  -44.1783 H         1 UNK         0.3000 
    155 H155        1.6720  -18.2773  -47.6038 H         1 UNK         0.0600 
    156 H156        2.3067  -15.5990  -46.2925 H         1 UNK         0.0600 
    157 H157        1.3338  -15.8088  -47.7431 H         1 UNK         0.0600 
    158 H158        3.0357  -16.2442  -47.7580 H         1 UNK         0.0600 
    159 H159        3.4844  -17.5727  -45.4419 H         1 UNK         0.3000 
    160 H160        3.8158  -20.9171  -44.2310 H         1 UNK         0.0600 
    161 H161        5.7774  -19.1908  -45.8363 H         1 UNK         0.0600 
    162 H162        5.3229  -20.8456  -46.2269 H         1 UNK         0.0600 
    163 H163        6.2044  -20.5097  -44.7454 H         1 UNK         0.0600 
    164 H164        5.1644  -18.5214  -43.5195 H         1 UNK         0.3000 
    165 H165        3.1741  -17.9406  -40.6832 H         1 UNK         0.0600 
    166 H166        5.3867  -16.9302  -40.4112 H         1 UNK         0.0600 
    167 H167        5.5857  -18.5698  -41.0038 H         1 UNK         0.0600 
    168 H168        5.7960  -17.2042  -42.0978 H         1 UNK         0.0600 
    169 H169        2.6526  -15.8573  -41.1935 H         1 UNK         0.3000 
    170 H170        3.9675  -13.4862  -43.2524 H         1 UNK         0.0600 
    171 H171        2.3956  -13.8095  -45.0230 H         1 UNK         0.0600 
    172 H172        1.1665  -14.4806  -43.9495 H         1 UNK         0.0600 
    173 H173        1.5840  -12.7658  -43.8824 H         1 UNK         0.0600 
    174 H174        1.6438  -13.3731  -41.5821 H         1 UNK         0.3000 
    175 H175        3.1085  -13.7253  -38.4933 H         1 UNK         0.0600 
    176 H176        2.7135  -10.8911  -39.5959 H         1 UNK         0.0600 
    177 H177        2.6925  -11.3523  -37.8929 H         1 UNK         0.0600 
    178 H178        4.1767  -11.4859  -38.8205 H         1 UNK         0.0600 
    179 H179        0.7491  -12.3118  -39.1479 H         1 UNK         0.3000 
    180 H180       -1.3520  -15.0050  -38.8206 H         1 UNK         0.0600 
    181 H181       -1.0618  -12.7668  -37.7165 H         1 UNK         0.0600 
    182 H182       -1.2253  -11.9722  -39.2830 H         1 UNK         0.0600 
    183 H183       -2.5669  -12.8835  -38.6073 H         1 UNK         0.0600 
    184 H184       -2.3333  -14.9589  -40.8038 H         1 UNK         0.3000 
    185 H185       -2.2343  -14.9515  -43.1820 H         1 UNK         0.0600 
    186 H186       -4.1188  -13.4418  -43.8640 H         1 UNK         0.0600 
    187 H187       -4.0596  -13.5920  -42.1165 H         1 UNK         0.0600 
    188 H188       -3.4432  -12.1367  -42.8907 H         1 UNK         0.0600 
    189 H189       -0.7392  -12.6372  -44.0366 H         1 UNK         0.3000 
    190 H190       -2.0290  -19.2190  -46.7726 H         1 UNK         0.3000 
    191 H191       -4.4654  -19.1300  -48.1878 H         1 UNK         0.0600 
    192 H192       -5.0300  -17.2797  -46.5902 H         1 UNK         0.0600 
    193 H193       -3.4134  -17.1182  -47.2484 H         1 UNK         0.0600 
    194 H194       -3.6353  -17.7031  -45.6059 H         1 UNK         0.0600 
    195 H195       -3.8389  -20.1734  -44.7970 H         1 UNK         0.3000 
    196 H196       -6.5007  -20.8251  -44.1065 H         1 UNK         0.0600 
    197 H197       -3.8633  -21.9793  -43.0555 H         1 UNK         0.0600 
    198 H198       -4.6765  -20.5379  -42.4498 H         1 UNK         0.0600 
    199 H199       -5.4257  -22.1160  -42.2582 H         1 UNK         0.0600 
    200 H200       -4.0229  -22.7457  -45.7723 H         1 UNK         0.3000 
    201 H201       -5.6123  -25.1778  -45.9161 H         1 UNK         0.0600 
    202 H202       -3.0239  -24.3524  -47.3302 H         1 UNK         0.0600 
    203 H203       -3.6903  -25.9830  -47.2574 H         1 UNK         0.0600 
    204 H204       -3.1244  -25.2048  -45.7922 H         1 UNK         0.0600 
    205 H205       -6.1885  -22.3149  -47.3938 H         1 UNK         0.3000 
    206 H206       -7.3572  -21.5839  -49.1031 H         1 UNK         0.0600 
    207 H207       -8.9969  -23.3573  -48.4831 H         1 UNK         0.0600 
    208 H208       -9.0211  -23.0208  -50.2067 H         1 UNK         0.0600 
    209 H209       -8.2336  -24.4744  -49.6136 H         1 UNK         0.0600 
    210 H210       -4.8038  -21.6155  -49.5513 H         1 UNK         0.3000 
    211 H211       -3.2987  -21.1556  -51.0714 H         1 UNK         0.0600 
    212 H212       -3.6981  -21.0221  -53.4431 H         1 UNK         0.0600 
    213 H213       -5.1411  -20.4260  -52.6427 H         1 UNK         0.0600 
    214 H214       -5.1251  -22.0407  -53.3544 H         1 UNK         0.0600 
    215 H215       -3.6124  -23.6575  -49.7148 H         1 UNK         0.3000 
    216 H216       -2.7345  -25.6919  -49.4745 H         1 UNK         0.0600 
    217 H217       -0.5064  -24.5586  -51.2569 H         1 UNK         0.0600 
    218 H218       -0.3446  -25.9046  -50.1244 H         1 UNK         0.0600 
    219 H219       -0.6710  -24.2924  -49.5276 H         1 UNK         0.0600 
    220 H220       -0.8899  -26.6616  -51.9380 H         1 UNK         0.3000 
    221 H221       -2.9548  -28.3682  -53.1656 H         1 UNK         0.0600 
    222 H222       -0.8263  -29.3706  -52.3523 H         1 UNK         0.0600 
    223 H223        0.0953  -28.3389  -53.4459 H         1 UNK         0.0600 
    224 H224       -0.9931  -29.5645  -54.0884 H         1 UNK         0.0600 
    225 H225       -3.5158  -25.8301  -53.7997 H         1 UNK         0.3000 
    226 H226       -3.9763  -24.3501  -55.3718 H         1 UNK         0.0600 
    227 H227       -3.2701  -26.5203  -57.4190 H         1 UNK         0.0600 
    228 H228       -4.8401  -26.3174  -56.6429 H         1 UNK         0.0600 
    229 H229       -4.2243  -25.0753  -57.7206 H         1 UNK         0.0600 
    230 H230       -1.7330  -23.7854  -54.2045 H         1 UNK         0.3000 
    231 H231        0.5004  -23.2832  -56.0516 H         1 UNK         0.0600 
    232 H232       -0.0083  -22.4703  -53.1340 H         1 UNK         0.0600 
    233 H233        1.4944  -22.2186  -54.0146 H         1 UNK         0.0600 
    234 H234        0.9468  -23.8528  -53.6646 H         1 UNK         0.0600 
    235 H235        0.7759  -21.4064  -57.1346 H         1 UNK         0.3000 
    236 H236        0.4384  -19.4629  -58.1235 H         1 UNK         0.0600 
    237 H237        1.4016  -18.5324  -56.0960 H         1 UNK         0.0600 
    238 H238        0.1256  -17.4508  -56.6263 H         1 UNK         0.0600 
    239 H239       -0.1434  -18.5318  -55.2632 H         1 UNK         0.0600 
    240 H240       -2.1326  -18.6855  -55.8344 H         1 UNK         0.3000 
    241 H241       -4.0926  -18.2720  -57.9506 H         1 UNK         0.0600 
    242 H242       -4.6975  -21.9181  -56.2822 H         1 UNK         0.3800 
    243 H243       -3.2487  -21.0049  -55.8955 H         1 UNK         0.3800 
    244 H244       -5.5739  -17.4814  -56.1067 H         1 UNK         0.0800 
    245 H245       -4.0800  -16.6082  -56.2125 H         1 UNK         0.0800 
    246 H246       -2.0053  -16.9958  -54.6686 H         1 UNK         0.0800 
    247 H247       -3.0692  -15.8320  -53.9271 H         1 UNK         0.0800 
@<TRIPOS>BOND
     1    1    2 1    
     2    1  127 1    
     3    1  128 1    
     4    1  129 1    
     5    2    3 2    
     6    2    4 am   BACKBONE|DICT|INTERRES
     7    4    5 1    
     8    4  130 1    
     9    5    6 1    
    10    5   65 1    
    11    5  131 1    
    12    6    7 1    
    13    6  132 1    
    14    6  133 1    
    15    7    8 1    
    16    8    9 1    
    17    8  134 1    
    18    8  135 1    
    19    9   10 ar   
    20    9   14 ar   
    21   10   11 ar   
    22   10  136 1    
    23   11   12 ar   
    24   11  126 1    
    25   12   13 ar   
    26   12  137 1    
    27   13   14 ar   
    28   13   15 1    
    29   14  138 1    
    30   15   16 1    
    31   15  139 1    
    32   15  140 1    
    33   16   17 1    
    34   17   18 1    
    35   17  141 1    
    36   17  142 1    
    37   18   19 1    
    38   18   67 1    
    39   18  143 1    
    40   19   20 am   BACKBONE|DICT|INTERRES
    41   19  144 1    
    42   20   21 2    
    43   20   22 1    
    44   22   23 1    
    45   22   24 1    
    46   22  145 1    
    47   23  146 1    
    48   23  147 1    
    49   23  148 1    
    50   24   25 am   BACKBONE|DICT|INTERRES
    51   24  149 1    
    52   25   26 2    
    53   25   27 1    
    54   27   28 1    
    55   27   29 1    
    56   27  150 1    
    57   28  151 1    
    58   28  152 1    
    59   28  153 1    
    60   29   30 am   BACKBONE|DICT|INTERRES
    61   29  154 1    
    62   30   31 2    
    63   30   32 1    
    64   32   33 1    
    65   32   34 1    
    66   32  155 1    
    67   33  156 1    
    68   33  157 1    
    69   33  158 1    
    70   34   35 am   BACKBONE|DICT|INTERRES
    71   34  159 1    
    72   35   36 2    
    73   35   37 1    
    74   37   38 1    
    75   37   39 1    
    76   37  160 1    
    77   38  161 1    
    78   38  162 1    
    79   38  163 1    
    80   39   40 am   BACKBONE|DICT|INTERRES
    81   39  164 1    
    82   40   41 2    
    83   40   42 1    
    84   42   43 1    
    85   42   44 1    
    86   42  165 1    
    87   43  166 1    
    88   43  167 1    
    89   43  168 1    
    90   44   45 am   BACKBONE|DICT|INTERRES
    91   44  169 1    
    92   45   46 2    
    93   45   47 1    
    94   47   48 1    
    95   47   49 1    
    96   47  170 1    
    97   48  171 1    
    98   48  172 1    
    99   48  173 1    
   100   49   50 am   BACKBONE|DICT|INTERRES
   101   49  174 1    
   102   50   51 2    
   103   50   52 1    
   104   52   53 1    
   105   52   54 1    
   106   52  175 1    
   107   53  176 1    
   108   53  177 1    
   109   53  178 1    
   110   54   55 am   BACKBONE|DICT|INTERRES
   111   54  179 1    
   112   55   56 2    
   113   55   57 1    
   114   57   58 1    
   115   57   59 1    
   116   57  180 1    
   117   58  181 1    
   118   58  182 1    
   119   58  183 1    
   120   59   60 am   BACKBONE|DICT|INTERRES
   121   59  184 1    
   122   60   61 2    
   123   60   62 1    
   124   62   63 1    
   125   62   64 1    
   126   62  185 1    
   127   63  186 1    
   128   63  187 1    
   129   63  188 1    
   130   64   65 am   BACKBONE|DICT|INTERRES
   131   64  189 1    
   132   65   66 2    
   133   67   68 2    
   134   67   69 am   BACKBONE|DICT|INTERRES
   135   69   70 1    
   136   69  190 1    
   137   70   71 1    
   138   70   72 1    
   139   70  191 1    
   140   71  192 1    
   141   71  193 1    
   142   71  194 1    
   143   72   73 2    
   144   72   74 am   BACKBONE|DICT|INTERRES
   145   74   75 1    
   146   74  195 1    
   147   75   76 1    
   148   75   77 1    
   149   75  196 1    
   150   76  197 1    
   151   76  198 1    
   152   76  199 1    
   153   77   78 2    
   154   77   79 am   BACKBONE|DICT|INTERRES
   155   79   80 1    
   156   79  200 1    
   157   80   81 1    
   158   80   82 1    
   159   80  201 1    
   160   81  202 1    
   161   81  203 1    
   162   81  204 1    
   163   82   83 2    
   164   82   84 am   BACKBONE|DICT|INTERRES
   165   84   85 1    
   166   84  205 1    
   167   85   86 1    
   168   85   87 1    
   169   85  206 1    
   170   86  207 1    
   171   86  208 1    
   172   86  209 1    
   173   87   88 2    
   174   87   89 am   BACKBONE|DICT|INTERRES
   175   89   90 1    
   176   89  210 1    
   177   90   91 1    
   178   90   92 1    
   179   90  211 1    
   180   91  212 1    
   181   91  213 1    
   182   91  214 1    
   183   92   93 2    
   184   92   94 am   BACKBONE|DICT|INTERRES
   185   94   95 1    
   186   94  215 1    
   187   95   96 1    
   188   95   97 1    
   189   95  216 1    
   190   96  217 1    
   191   96  218 1    
   192   96  219 1    
   193   97   98 2    
   194   97   99 am   BACKBONE|DICT|INTERRES
   195   99  100 1    
   196   99  220 1    
   197  100  101 1    
   198  100  102 1    
   199  100  221 1    
   200  101  222 1    
   201  101  223 1    
   202  101  224 1    
   203  102  103 2    
   204  102  104 am   BACKBONE|DICT|INTERRES
   205  104  105 1    
   206  104  225 1    
   207  105  106 1    
   208  105  107 1    
   209  105  226 1    
   210  106  227 1    
   211  106  228 1    
   212  106  229 1    
   213  107  108 2    
   214  107  109 am   BACKBONE|DICT|INTERRES
   215  109  110 1    
   216  109  230 1    
   217  110  111 1    
   218  110  112 1    
   219  110  231 1    
   220  111  232 1    
   221  111  233 1    
   222  111  234 1    
   223  112  113 2    
   224  112  114 am   BACKBONE|DICT|INTERRES
   225  114  115 1    
   226  114  235 1    
   227  115  116 1    
   228  115  117 1    
   229  115  236 1    
   230  116  237 1    
   231  116  238 1    
   232  116  239 1    
   233  117  118 2    
   234  117  119 am   BACKBONE|DICT|INTERRES
   235  119  120 1    
   236  119  240 1    
   237  120  121 1    
   238  120  124 1    
   239  120  241 1    
   240  121  122 am   BACKBONE|DICT|INTERRES
   241  121  123 2    
   242  122  242 1    
   243  122  243 1    
   244  124  125 1    
   245  124  244 1    
   246  124  245 1    
   247  125  126 1    
   248  126  246 1    
   249  126  247 1    
@<TRIPOS>SUBSTRUCTURE
     1 UNK         1 GROUP             0       ****    0 ROOT    
