@<TRIPOS>MOLECULE
3R540
247   249    1
SMALL
USER_CHARGES


@<TRIPOS>ATOM
      1 CA          5.6340  -13.8173  -46.6112 C.3       0 UNK        -0.1800 
      2 C           4.2252  -13.3370  -46.2985 C.2       0 UNK         0.5000 
      3 O           3.9570  -12.9277  -45.1705 O.2       0 UNK        -0.5000 
      4 N           3.3321  -13.3664  -47.2962 N.am      1 UNK        -0.5000 
      5 CA          1.9038  -13.0260  -47.1934 C.3       1 UNK         0.1400 
      6 C6          1.1551  -13.2508  -48.5316 C.3       23 UNK        -0.0398 
      7 S7          1.4903  -14.8687  -49.3121 S.3       23 UNK        -0.2404 
      8 C8         -0.0359  -15.7945  -48.9717 C.3       23 UNK        -0.0205 
      9 C9         -0.2799  -16.8354  -50.0516 C.ar      23 UNK        -0.0193 
     10 C10        -1.0734  -16.5166  -51.1574 C.ar      23 UNK        -0.1150 
     11 C11        -1.2811  -17.4498  -52.1761 C.ar      23 UNK        -0.0193 
     12 C12        -0.6887  -18.7117  -52.0825 C.ar      23 UNK        -0.1150 
     13 C13         0.1062  -19.0434  -50.9812 C.ar      23 UNK        -0.0193 
     14 C14         0.3019  -18.1038  -49.9634 C.ar      23 UNK        -0.1150 
     15 C15         0.7714  -20.4094  -50.9123 C.3       23 UNK        -0.0205 
     16 S16        -0.4068  -21.7079  -50.4317 S.3       23 UNK        -0.2404 
     17 C17        -0.6939  -21.3152  -48.6769 C.3       23 UNK        -0.0398 
     18 CA         -0.6948  -22.5751  -47.7791 C.3       11 UNK         0.1400 
     19 N          -0.2839  -22.2581  -46.4089 N.am      11 UNK        -0.5000 
     20 C          -0.0163  -23.1662  -45.4610 C.2       10 UNK         0.5000 
     21 O          -0.0509  -24.3815  -45.6510 O.2       10 UNK        -0.5000 
     22 CA          0.2905  -22.6288  -44.0521 C.3       10 UNK         0.1400 
     23 CB          1.7617  -22.2033  -43.9427 C.3       10 UNK        -0.1800 
     24 N          -0.5777  -21.5115  -43.6769 N.am      10 UNK        -0.5000 
     25 C          -1.9086  -21.5997  -43.5374 C.2       9 UNK         0.5000 
     26 O          -2.5362  -22.6511  -43.6528 O.2       9 UNK        -0.5000 
     27 CA         -2.6761  -20.2872  -43.2962 C.3       9 UNK         0.1400 
     28 CB         -2.5781  -19.8537  -41.8269 C.3       9 UNK        -0.1800 
     29 N          -2.2175  -19.2040  -44.1671 N.am      9 UNK        -0.5000 
     30 C          -2.2871  -19.2262  -45.5061 C.2       8 UNK         0.5000 
     31 O          -2.7834  -20.1485  -46.1509 O.2       8 UNK        -0.5000 
     32 CA         -1.6448  -18.0469  -46.2525 C.3       8 UNK         0.1400 
     33 CB         -2.6092  -16.8534  -46.3281 C.3       8 UNK        -0.1800 
     34 N          -0.3866  -17.6363  -45.6286 N.am      8 UNK        -0.5000 
     35 C           0.7451  -18.3539  -45.6778 C.2       7 UNK         0.5000 
     36 O           0.8510  -19.4193  -46.2838 O.2       7 UNK        -0.5000 
     37 CA          1.9451  -17.8106  -44.8813 C.3       7 UNK         0.1400 
     38 CB          2.6601  -16.7036  -45.6693 C.3       7 UNK        -0.1800 
     39 N           1.5568  -17.2987  -43.5666 N.am      7 UNK        -0.5000 
     40 C           1.0629  -18.0580  -42.5768 C.2       6 UNK         0.5000 
     41 O           0.9370  -19.2791  -42.6529 O.2       6 UNK        -0.5000 
     42 CA          0.5802  -17.3312  -41.3067 C.3       6 UNK         0.1400 
     43 CB          1.7246  -17.2135  -40.2895 C.3       6 UNK        -0.1800 
     44 N           0.0328  -15.9990  -41.5644 N.am      6 UNK        -0.5000 
     45 C          -0.9777  -15.7055  -42.3963 C.2       5 UNK         0.5000 
     46 O          -1.6142  -16.5576  -43.0162 O.2       5 UNK        -0.5000 
     47 CA         -1.3120  -14.2126  -42.5973 C.3       5 UNK         0.1400 
     48 CB         -2.6555  -13.8702  -41.9362 C.3       5 UNK        -0.1800 
     49 N          -0.2795  -13.3082  -42.0784 N.am      5 UNK        -0.5000 
     50 C           0.9435  -13.1565  -42.6041 C.2       4 UNK         0.5000 
     51 O           1.3305  -13.7371  -43.6201 O.2       4 UNK        -0.5000 
     52 CA          1.9126  -12.2889  -41.7929 C.3       4 UNK         0.1400 
     53 CB          2.6592  -13.1521  -40.7575 C.3       4 UNK        -0.1800 
     54 N           2.8696  -11.6280  -42.6735 N.am      4 UNK        -0.5000 
     55 C           3.5528  -10.5225  -42.3481 C.2       3 UNK         0.5000 
     56 O           3.4460   -9.9479  -41.2635 O.2       3 UNK        -0.5000 
     57 CA          4.5010   -9.9431  -43.4092 C.3       3 UNK         0.1400 
     58 CB          5.8455  -10.6884  -43.4141 C.3       3 UNK        -0.1800 
     59 N           3.9035   -9.9883  -44.7418 N.am      3 UNK        -0.5000 
     60 C           3.0789   -9.0509  -45.2304 C.2       2 UNK         0.5000 
     61 O           2.7585   -8.0359  -44.6104 O.2       2 UNK        -0.5000 
     62 CA          2.5276   -9.2621  -46.6536 C.3       2 UNK         0.1400 
     63 CB          3.3304   -8.4315  -47.6670 C.3       2 UNK        -0.1800 
     64 N           2.5507  -10.6631  -47.0715 N.am      2 UNK        -0.5000 
     65 C           1.6518  -11.5845  -46.6993 C.2       1 UNK         0.5000 
     66 O           0.6674  -11.3373  -46.0021 O.2       1 UNK        -0.5000 
     67 C          -2.0518  -23.3141  -47.8296 C.2       11 UNK         0.5000 
     68 O          -2.2195  -24.2330  -48.6314 O.2       11 UNK        -0.5000 
     69 N          -2.9892  -22.9267  -46.9563 N.am      12 UNK        -0.5000 
     70 CA         -4.2870  -23.5803  -46.8055 C.3       12 UNK         0.1400 
     71 CB         -5.2378  -22.6594  -46.0246 C.3       12 UNK        -0.1800 
     72 C          -4.1720  -24.9514  -46.1154 C.2       12 UNK         0.5000 
     73 O          -4.8459  -25.8943  -46.5280 O.2       12 UNK        -0.5000 
     74 N          -3.3354  -25.0345  -45.0735 N.am      13 UNK        -0.5000 
     75 CA         -3.1660  -26.2249  -44.2449 C.3       13 UNK         0.1400 
     76 CB         -2.5523  -25.8236  -42.8937 C.3       13 UNK        -0.1800 
     77 C          -2.3252  -27.3232  -44.9169 C.2       13 UNK         0.5000 
     78 O          -2.7746  -28.4678  -44.9885 O.2       13 UNK        -0.5000 
     79 N          -1.1084  -26.9731  -45.3531 N.am      14 UNK        -0.5000 
     80 CA         -0.1028  -27.9316  -45.8095 C.3       14 UNK         0.1400 
     81 CB          1.2966  -27.4465  -45.3959 C.3       14 UNK        -0.1800 
     82 C          -0.1725  -28.1653  -47.3237 C.2       14 UNK         0.5000 
     83 O          -0.1989  -29.3183  -47.7562 O.2       14 UNK        -0.5000 
     84 N          -0.1897  -27.0759  -48.1043 N.am      15 UNK        -0.5000 
     85 CA         -0.1884  -27.1367  -49.5697 C.3       15 UNK         0.1400 
     86 CB          0.4291  -25.8494  -50.1405 C.3       15 UNK        -0.1800 
     87 C          -1.5852  -27.3949  -50.1659 C.2       15 UNK         0.5000 
     88 O          -1.6715  -27.8226  -51.3177 O.2       15 UNK        -0.5000 
     89 N          -2.6406  -27.1298  -49.3794 N.am      16 UNK        -0.5000 
     90 CA         -4.0617  -27.2102  -49.7383 C.3       16 UNK         0.1400 
     91 CB         -4.4840  -28.6745  -49.9793 C.3       16 UNK        -0.1800 
     92 C          -4.4307  -26.2670  -50.9036 C.2       16 UNK         0.5000 
     93 O          -5.2259  -26.6341  -51.7711 O.2       16 UNK        -0.5000 
     94 N          -3.8181  -25.0773  -50.9083 N.am      17 UNK        -0.5000 
     95 CA         -3.9103  -24.0866  -51.9716 C.3       17 UNK         0.1400 
     96 CB         -2.5113  -23.8895  -52.5832 C.3       17 UNK        -0.1800 
     97 C          -4.5464  -22.8012  -51.4212 C.2       17 UNK         0.5000 
     98 O          -5.7750  -22.7167  -51.3802 O.2       17 UNK        -0.5000 
     99 N          -3.7173  -21.8218  -51.0285 N.am      18 UNK        -0.5000 
    100 CA        -4.0918  -20.4805  -50.5651 C.3       18 UNK         0.1400 
    101 CB        -4.7175  -20.5412  -49.1559 C.3       18 UNK        -0.1800 
    102 C         -4.9674  -19.7537  -51.6041 C.2       18 UNK         0.5000 
    103 O         -4.4738  -19.4491  -52.6873 O.2       18 UNK        -0.5000 
    104 N         -6.2514  -19.5347  -51.2909 N.am      19 UNK        -0.5000 
    105 CA        -7.2432  -18.8850  -52.1531 C.3       19 UNK         0.1400 
    106 CB        -8.5477  -18.7137  -51.3593 C.3       19 UNK        -0.1800 
    107 C         -7.5155  -19.6084  -53.4900 C.2       19 UNK         0.5000 
    108 O         -8.0268  -18.9780  -54.4162 O.2       19 UNK        -0.5000 
    109 N         -7.1711  -20.9017  -53.5804 N.am      20 UNK        -0.5000 
    110 CA        -7.2304  -21.6824  -54.8185 C.3       20 UNK         0.1400 
    111 CB        -7.2720  -23.1771  -54.4664 C.3       20 UNK        -0.1800 
    112 C         -6.0621  -21.3844  -55.7839 C.2       20 UNK         0.5000 
    113 O         -6.1523  -21.7465  -56.9579 O.2       20 UNK        -0.5000 
    114 N         -4.9937  -20.7482  -55.2866 N.am      21 UNK        -0.5000 
    115 CA        -3.8252  -20.3165  -56.0503 C.3       21 UNK         0.1400 
    116 CB        -2.5626  -20.7931  -55.3089 C.3       21 UNK        -0.1800 
    117 C         -3.8396  -18.7864  -56.2386 C.2       21 UNK         0.5000 
    118 O         -4.7846  -18.1149  -55.8177 O.2       21 UNK        -0.5000 
    119 N         -2.7859  -18.2640  -56.8808 N.am      22 UNK        -0.5000 
    120 CA        -2.5637  -16.8347  -57.1819 C.3       22 UNK         0.1400 
    121 C         -3.5233  -16.2386  -58.2598 C.2       22 UNK         0.5000 
    122 N         -4.2372  -17.0474  -59.0336 N.am      22 UNK        -0.7600 
    123 O         -3.6005  -15.0241  -58.4270 O.2       22 UNK        -0.5000 
    124 C124       -2.4679  -15.9345  -55.9142 C.3       23 UNK        -0.0398 
    125 S125       -1.1536  -16.4421  -54.7505 S.3       23 UNK        -0.2404 
    126 C126       -2.1464  -17.0929  -53.3735 C.3       23 UNK        -0.0205 
    127 H127        6.3532  -13.0226  -46.4133 H         1 UNK         0.0600 
    128 H128        5.7375  -14.1207  -47.6532 H         1 UNK         0.0600 
    129 H129        5.8848  -14.6706  -45.9811 H         1 UNK         0.0600 
    130 H130        3.6165  -13.7228  -48.1979 H         1 UNK         0.3000 
    131 H131        1.4687  -13.6928  -46.4476 H         1 UNK         0.0600 
    132 H132        0.0807  -13.1251  -48.3884 H         1 UNK         0.0800 
    133 H133        1.4460  -12.4893  -49.2579 H         1 UNK         0.0800 
    134 H134        0.0510  -16.2702  -47.9959 H         1 UNK         0.0800 
    135 H135       -0.8911  -15.1199  -48.9167 H         1 UNK         0.0800 
    136 H136       -1.5191  -15.5346  -51.2326 H         1 UNK         0.1150 
    137 H137       -0.8402  -19.4351  -52.8708 H         1 UNK         0.1150 
    138 H138        0.9219  -18.3499  -49.1124 H         1 UNK         0.1150 
    139 H139        1.1851  -20.6571  -51.8909 H         1 UNK         0.0800 
    140 H140        1.6156  -20.3996  -50.2209 H         1 UNK         0.0800 
    141 H141       -1.6121  -20.7361  -48.5742 H         1 UNK         0.0800 
    142 H142        0.1079  -20.6495  -48.3630 H         1 UNK         0.0800 
    143 H143        0.0596  -23.2655  -48.1620 H         1 UNK         0.0600 
    144 H144       -0.1932  -21.2754  -46.1784 H         1 UNK         0.3000 
    145 H145        0.1177  -23.4404  -43.3427 H         1 UNK         0.0600 
    146 H146        2.0098  -21.9060  -42.9237 H         1 UNK         0.0600 
    147 H147        2.4276  -23.0235  -44.2137 H         1 UNK         0.0600 
    148 H148        1.9884  -21.3630  -44.5997 H         1 UNK         0.0600 
    149 H149       -0.1215  -20.6186  -43.5094 H         1 UNK         0.3000 
    150 H150       -3.7279  -20.4690  -43.5263 H         1 UNK         0.0600 
    151 H151       -3.0250  -20.6029  -41.1723 H         1 UNK         0.0600 
    152 H152       -3.1021  -18.9135  -41.6538 H         1 UNK         0.0600 
    153 H153       -1.5429  -19.7256  -41.5137 H         1 UNK         0.0600 
    154 H154       -1.8353  -18.3778  -43.7168 H         1 UNK         0.3000 
    155 H155       -1.4314  -18.3729  -47.2730 H         1 UNK         0.0600 
    156 H156       -2.8975  -16.4986  -45.3385 H         1 UNK         0.0600 
    157 H157       -3.5240  -17.1299  -46.8540 H         1 UNK         0.0600 
    158 H158       -2.1672  -16.0157  -46.8661 H         1 UNK         0.0600 
    159 H159       -0.4186  -16.8161  -45.0404 H         1 UNK         0.3000 
    160 H160        2.6471  -18.6339  -44.7323 H         1 UNK         0.0600 
    161 H161        2.0145  -15.8384  -45.8148 H         1 UNK         0.0600 
    162 H162        2.9643  -17.0554  -46.6560 H         1 UNK         0.0600 
    163 H163        3.5581  -16.3660  -45.1516 H         1 UNK         0.0600 
    164 H164        1.6161  -16.2986  -43.4300 H         1 UNK         0.3000 
    165 H165       -0.2140  -17.9305  -40.8598 H         1 UNK         0.0600 
    166 H166        1.3774  -16.7786  -39.3521 H         1 UNK         0.0600 
    167 H167        2.1417  -18.1942  -40.0561 H         1 UNK         0.0600 
    168 H168        2.5376  -16.5923  -40.6677 H         1 UNK         0.0600 
    169 H169        0.4857  -15.2314  -41.0934 H         1 UNK         0.3000 
    170 H170       -1.4054  -14.0440  -43.6722 H         1 UNK         0.0600 
    171 H171       -3.4551  -14.5027  -42.3246 H         1 UNK         0.0600 
    172 H172       -2.6205  -14.0123  -40.8553 H         1 UNK         0.0600 
    173 H173       -2.9390  -12.8357  -42.1311 H         1 UNK         0.0600 
    174 H174       -0.5142  -12.8057  -41.2340 H         1 UNK         0.3000 
    175 H175        1.3286  -11.5265  -41.2724 H         1 UNK         0.0600 
    176 H176        3.2689  -13.9168  -41.2409 H         1 UNK         0.0600 
    177 H177        3.3171  -12.5473  -40.1335 H         1 UNK         0.0600 
    178 H178        1.9626  -13.6592  -40.0890 H         1 UNK         0.0600 
    179 H179        3.0104  -12.0700  -43.5793 H         1 UNK         0.3000 
    180 H180        4.7047   -8.9031  -43.1447 H         1 UNK         0.0600 
    181 H181        5.7253  -11.7500  -43.6296 H         1 UNK         0.0600 
    182 H182        6.3353  -10.6082  -42.4429 H         1 UNK         0.0600 
    183 H183        6.5254  -10.2704  -44.1564 H         1 UNK         0.0600 
    184 H184        4.0505  -10.8397  -45.2693 H         1 UNK         0.3000 
    185 H185        1.4950   -8.9065  -46.6648 H         1 UNK         0.0600 
    186 H186        3.3126   -7.3725  -47.4057 H         1 UNK         0.0600 
    187 H187        4.3752   -8.7425  -47.7055 H         1 UNK         0.0600 
    188 H188        2.9145   -8.5238  -48.6705 H         1 UNK         0.0600 
    189 H189        3.3284  -10.9549  -47.6458 H         1 UNK         0.3000 
    190 H190       -2.8111  -22.1153  -46.3725 H         1 UNK         0.3000 
    191 H191       -4.7105  -23.7372  -47.8002 H         1 UNK         0.0600 
    192 H192       -5.3635  -21.6998  -46.5250 H         1 UNK         0.0600 
    193 H193       -6.2268  -23.1095  -45.9318 H         1 UNK         0.0600 
    194 H194       -4.8720  -22.4608  -45.0170 H         1 UNK         0.0600 
    195 H195       -2.8651  -24.1909  -44.7577 H         1 UNK         0.3000 
    196 H196       -4.1547  -26.6435  -44.0440 H         1 UNK         0.0600 
    197 H197       -2.4132  -26.6942  -42.2516 H         1 UNK         0.0600 
    198 H198       -3.1994  -25.1269  -42.3605 H         1 UNK         0.0600 
    199 H199       -1.5798  -25.3458  -43.0169 H         1 UNK         0.0600 
    200 H200       -0.8198  -25.9973  -45.3157 H         1 UNK         0.3000 
    201 H201       -0.2682  -28.8926  -45.3171 H         1 UNK         0.0600 
    202 H202        1.3619  -27.3094  -44.3165 H         1 UNK         0.0600 
    203 H203        1.5590  -26.4999  -45.8689 H         1 UNK         0.0600 
    204 H204        2.0588  -28.1739  -45.6779 H         1 UNK         0.0600 
    205 H205       -0.1790  -26.1609  -47.6755 H         1 UNK         0.3000 
    206 H206        0.4502  -27.9657  -49.8826 H         1 UNK         0.0600 
    207 H207        1.4296  -25.6800  -49.7426 H         1 UNK         0.0600 
    208 H208        0.5185  -25.9115  -51.2258 H         1 UNK         0.0600 
    209 H209       -0.1725  -24.9705  -49.9199 H         1 UNK         0.0600 
    210 H210       -2.4439  -26.7348  -48.4706 H         1 UNK         0.3000 
    211 H211       -4.6209  -26.8502  -48.8768 H         1 UNK         0.0600 
    212 H212       -4.0149  -29.0920  -50.8705 H         1 UNK         0.0600 
    213 H213       -5.5637  -28.7525  -50.1116 H         1 UNK         0.0600 
    214 H214       -4.2158  -29.3053  -49.1317 H         1 UNK         0.0600 
    215 H215       -3.2122  -24.8398  -50.1255 H         1 UNK         0.3000 
    216 H216       -4.5656  -24.4353  -52.7712 H         1 UNK         0.0600 
    217 H217       -2.4733  -23.0139  -53.2303 H         1 UNK         0.0600 
    218 H218       -2.2351  -24.7518  -53.1902 H         1 UNK         0.0600 
    219 H219       -1.7447  -23.7809  -51.8180 H         1 UNK         0.0600 
    220 H220       -2.7224  -21.9802  -51.1194 H         1 UNK         0.3000 
    221 H221       -3.1681  -19.9040  -50.4927 H         1 UNK         0.0600 
    222 H222       -5.6055  -21.1727  -49.1187 H         1 UNK         0.0600 
    223 H223       -4.0032  -20.9391  -48.4405 H         1 UNK         0.0600 
    224 H224       -4.9932  -19.5477  -48.8001 H         1 UNK         0.0600 
    225 H225       -6.5840  -19.8632  -50.3961 H         1 UNK         0.3000 
    226 H226       -6.8603  -17.8929  -52.4006 H         1 UNK         0.0600 
    227 H227       -8.3881  -18.1195  -50.4593 H         1 UNK         0.0600 
    228 H228       -9.3045  -18.2008  -51.9545 H         1 UNK         0.0600 
    229 H229       -8.9634  -19.6763  -51.0588 H         1 UNK         0.0600 
    230 H230       -6.7696  -21.3599  -52.7700 H         1 UNK         0.3000 
    231 H231       -8.1571  -21.4366  -55.3414 H         1 UNK         0.0600 
    232 H232       -6.3504  -23.5016  -53.9855 H         1 UNK         0.0600 
    233 H233       -7.4041  -23.7854  -55.3621 H         1 UNK         0.0600 
    234 H234       -8.0999  -23.4038  -53.7945 H         1 UNK         0.0600 
    235 H235       -5.0322  -20.3924  -54.3362 H         1 UNK         0.3000 
    236 H236       -3.8287  -20.7656  -57.0453 H         1 UNK         0.0600 
    237 H237       -2.5349  -21.8811  -55.2620 H         1 UNK         0.0600 
    238 H238       -1.6487  -20.4770  -55.8121 H         1 UNK         0.0600 
    239 H239       -2.5251  -20.4131  -54.2882 H         1 UNK         0.0600 
    240 H240       -2.0592  -18.8861  -57.2040 H         1 UNK         0.3000 
    241 H241       -1.5841  -16.8007  -57.6598 H         1 UNK         0.0600 
    242 H242       -4.8452  -16.6539  -59.7349 H         1 UNK         0.3800 
    243 H243       -4.1809  -18.0468  -58.9228 H         1 UNK         0.3800 
    244 H244       -2.2418  -14.9062  -56.2002 H         1 UNK         0.0800 
    245 H245       -3.4287  -15.8894  -55.4002 H         1 UNK         0.0800 
    246 H246       -2.6851  -17.9745  -53.7144 H         1 UNK         0.0800 
    247 H247       -2.9023  -16.3620  -53.0826 H         1 UNK         0.0800 
@<TRIPOS>BOND
     1    1    2 1    
     2    1  127 1    
     3    1  128 1    
     4    1  129 1    
     5    2    3 2    
     6    2    4 am   BACKBONE|DICT|INTERRES
     7    4    5 1    
     8    4  130 1    
     9    5    6 1    
    10    5   65 1    
    11    5  131 1    
    12    6    7 1    
    13    6  132 1    
    14    6  133 1    
    15    7    8 1    
    16    8    9 1    
    17    8  134 1    
    18    8  135 1    
    19    9   10 ar   
    20    9   14 ar   
    21   10   11 ar   
    22   10  136 1    
    23   11   12 ar   
    24   11  126 1    
    25   12   13 ar   
    26   12  137 1    
    27   13   14 ar   
    28   13   15 1    
    29   14  138 1    
    30   15   16 1    
    31   15  139 1    
    32   15  140 1    
    33   16   17 1    
    34   17   18 1    
    35   17  141 1    
    36   17  142 1    
    37   18   19 1    
    38   18   67 1    
    39   18  143 1    
    40   19   20 am   BACKBONE|DICT|INTERRES
    41   19  144 1    
    42   20   21 2    
    43   20   22 1    
    44   22   23 1    
    45   22   24 1    
    46   22  145 1    
    47   23  146 1    
    48   23  147 1    
    49   23  148 1    
    50   24   25 am   BACKBONE|DICT|INTERRES
    51   24  149 1    
    52   25   26 2    
    53   25   27 1    
    54   27   28 1    
    55   27   29 1    
    56   27  150 1    
    57   28  151 1    
    58   28  152 1    
    59   28  153 1    
    60   29   30 am   BACKBONE|DICT|INTERRES
    61   29  154 1    
    62   30   31 2    
    63   30   32 1    
    64   32   33 1    
    65   32   34 1    
    66   32  155 1    
    67   33  156 1    
    68   33  157 1    
    69   33  158 1    
    70   34   35 am   BACKBONE|DICT|INTERRES
    71   34  159 1    
    72   35   36 2    
    73   35   37 1    
    74   37   38 1    
    75   37   39 1    
    76   37  160 1    
    77   38  161 1    
    78   38  162 1    
    79   38  163 1    
    80   39   40 am   BACKBONE|DICT|INTERRES
    81   39  164 1    
    82   40   41 2    
    83   40   42 1    
    84   42   43 1    
    85   42   44 1    
    86   42  165 1    
    87   43  166 1    
    88   43  167 1    
    89   43  168 1    
    90   44   45 am   BACKBONE|DICT|INTERRES
    91   44  169 1    
    92   45   46 2    
    93   45   47 1    
    94   47   48 1    
    95   47   49 1    
    96   47  170 1    
    97   48  171 1    
    98   48  172 1    
    99   48  173 1    
   100   49   50 am   BACKBONE|DICT|INTERRES
   101   49  174 1    
   102   50   51 2    
   103   50   52 1    
   104   52   53 1    
   105   52   54 1    
   106   52  175 1    
   107   53  176 1    
   108   53  177 1    
   109   53  178 1    
   110   54   55 am   BACKBONE|DICT|INTERRES
   111   54  179 1    
   112   55   56 2    
   113   55   57 1    
   114   57   58 1    
   115   57   59 1    
   116   57  180 1    
   117   58  181 1    
   118   58  182 1    
   119   58  183 1    
   120   59   60 am   BACKBONE|DICT|INTERRES
   121   59  184 1    
   122   60   61 2    
   123   60   62 1    
   124   62   63 1    
   125   62   64 1    
   126   62  185 1    
   127   63  186 1    
   128   63  187 1    
   129   63  188 1    
   130   64   65 am   BACKBONE|DICT|INTERRES
   131   64  189 1    
   132   65   66 2    
   133   67   68 2    
   134   67   69 am   BACKBONE|DICT|INTERRES
   135   69   70 1    
   136   69  190 1    
   137   70   71 1    
   138   70   72 1    
   139   70  191 1    
   140   71  192 1    
   141   71  193 1    
   142   71  194 1    
   143   72   73 2    
   144   72   74 am   BACKBONE|DICT|INTERRES
   145   74   75 1    
   146   74  195 1    
   147   75   76 1    
   148   75   77 1    
   149   75  196 1    
   150   76  197 1    
   151   76  198 1    
   152   76  199 1    
   153   77   78 2    
   154   77   79 am   BACKBONE|DICT|INTERRES
   155   79   80 1    
   156   79  200 1    
   157   80   81 1    
   158   80   82 1    
   159   80  201 1    
   160   81  202 1    
   161   81  203 1    
   162   81  204 1    
   163   82   83 2    
   164   82   84 am   BACKBONE|DICT|INTERRES
   165   84   85 1    
   166   84  205 1    
   167   85   86 1    
   168   85   87 1    
   169   85  206 1    
   170   86  207 1    
   171   86  208 1    
   172   86  209 1    
   173   87   88 2    
   174   87   89 am   BACKBONE|DICT|INTERRES
   175   89   90 1    
   176   89  210 1    
   177   90   91 1    
   178   90   92 1    
   179   90  211 1    
   180   91  212 1    
   181   91  213 1    
   182   91  214 1    
   183   92   93 2    
   184   92   94 am   BACKBONE|DICT|INTERRES
   185   94   95 1    
   186   94  215 1    
   187   95   96 1    
   188   95   97 1    
   189   95  216 1    
   190   96  217 1    
   191   96  218 1    
   192   96  219 1    
   193   97   98 2    
   194   97   99 am   BACKBONE|DICT|INTERRES
   195   99  100 1    
   196   99  220 1    
   197  100  101 1    
   198  100  102 1    
   199  100  221 1    
   200  101  222 1    
   201  101  223 1    
   202  101  224 1    
   203  102  103 2    
   204  102  104 am   BACKBONE|DICT|INTERRES
   205  104  105 1    
   206  104  225 1    
   207  105  106 1    
   208  105  107 1    
   209  105  226 1    
   210  106  227 1    
   211  106  228 1    
   212  106  229 1    
   213  107  108 2    
   214  107  109 am   BACKBONE|DICT|INTERRES
   215  109  110 1    
   216  109  230 1    
   217  110  111 1    
   218  110  112 1    
   219  110  231 1    
   220  111  232 1    
   221  111  233 1    
   222  111  234 1    
   223  112  113 2    
   224  112  114 am   BACKBONE|DICT|INTERRES
   225  114  115 1    
   226  114  235 1    
   227  115  116 1    
   228  115  117 1    
   229  115  236 1    
   230  116  237 1    
   231  116  238 1    
   232  116  239 1    
   233  117  118 2    
   234  117  119 am   BACKBONE|DICT|INTERRES
   235  119  120 1    
   236  119  240 1    
   237  120  121 1    
   238  120  124 1    
   239  120  241 1    
   240  121  122 am   BACKBONE|DICT|INTERRES
   241  121  123 2    
   242  122  242 1    
   243  122  243 1    
   244  124  125 1    
   245  124  244 1    
   246  124  245 1    
   247  125  126 1    
   248  126  246 1    
   249  126  247 1    
@<TRIPOS>SUBSTRUCTURE
     1 UNK         1 GROUP             0       ****    0 ROOT    
