@<TRIPOS>MOLECULE
3R540
247   249    1
SMALL
USER_CHARGES


@<TRIPOS>ATOM
      1 CA         -3.9813  -15.9774  -45.2917 C.3       0 UNK        -0.1800 
      2 C          -2.6727  -15.2483  -45.5436 C.2       0 UNK         0.5000 
      3 O          -1.9644  -14.9329  -44.5903 O.2       0 UNK        -0.5000 
      4 N          -2.3576  -14.9880  -46.8224 N.am      1 UNK        -0.5000 
      5 CA         -1.1356  -14.3261  -47.3108 C.3       1 UNK         0.1400 
      6 C6          0.1321  -15.2122  -47.1823 C.3       23 UNK        -0.0398 
      7 S7          0.0261  -16.7679  -48.1350 S.3       23 UNK        -0.2404 
      8 C8          1.0479  -16.3779  -49.5865 C.3       23 UNK        -0.0205 
      9 C9          1.5446  -17.6388  -50.2764 C.ar      23 UNK        -0.0193 
     10 C10         0.8221  -18.2095  -51.3308 C.ar      23 UNK        -0.1150 
     11 C11         1.3120  -19.3385  -51.9971 C.ar      23 UNK        -0.0193 
     12 C12         2.5386  -19.8824  -51.6062 C.ar      23 UNK        -0.1150 
     13 C13         3.2465  -19.3511  -50.5259 C.ar      23 UNK        -0.0193 
     14 C14         2.7485  -18.2233  -49.8694 C.ar      23 UNK        -0.1150 
     15 C15         4.5438  -20.0085  -50.0714 C.3       23 UNK        -0.0205 
     16 S16         4.3573  -20.9289  -48.5061 S.3       23 UNK        -0.2404 
     17 C17         2.8480  -21.9143  -48.8061 C.3       23 UNK        -0.0398 
     18 CA          2.8330  -23.2826  -48.0806 C.3       11 UNK         0.1400 
     19 N           2.9153  -23.1410  -46.6225 N.am      11 UNK        -0.5000 
     20 C           3.2908  -24.1132  -45.7817 C.2       10 UNK         0.5000 
     21 O           3.6192  -25.2425  -46.1473 O.2       10 UNK        -0.5000 
     22 CA          3.2835  -23.7761  -44.2789 C.3       10 UNK         0.1400 
     23 CB          4.5515  -22.9997  -43.8932 C.3       10 UNK        -0.1800 
     24 N           2.0990  -23.0277  -43.8491 N.am      10 UNK        -0.5000 
     25 C           0.8461  -23.5066  -43.8619 C.2       9 UNK         0.5000 
     26 O           0.5449  -24.6253  -44.2781 O.2       9 UNK        -0.5000 
     27 CA         -0.2632  -22.5737  -43.3411 C.3       9 UNK         0.1400 
     28 CB         -0.2543  -22.5090  -41.8064 C.3       9 UNK        -0.1800 
     29 N          -0.1523  -21.2238  -43.8857 N.am      9 UNK        -0.5000 
     30 C          -0.3498  -20.9083  -45.1720 C.2       8 UNK         0.5000 
     31 O          -0.7397  -21.7091  -46.0230 O.2       8 UNK        -0.5000 
     32 CA         -0.0173  -19.4647  -45.5858 C.3       8 UNK         0.1400 
     33 CB         -1.1991  -18.5368  -45.2807 C.3       8 UNK        -0.1800 
     34 N           1.1946  -18.9503  -44.9472 N.am      8 UNK        -0.5000 
     35 C           2.4095  -19.5008  -45.0800 C.2       7 UNK         0.5000 
     36 O           2.6344  -20.5013  -45.7552 O.2       7 UNK        -0.5000 
     37 CA          3.5509  -18.8740  -44.2667 C.3       7 UNK         0.1400 
     38 CB          4.1219  -17.6403  -44.9822 C.3       7 UNK        -0.1800 
     39 N           3.1082  -18.5253  -42.9171 N.am      7 UNK        -0.5000 
     40 C           2.8111  -19.4287  -41.9708 C.2       6 UNK         0.5000 
     41 O           2.9419  -20.6439  -42.1209 O.2       6 UNK        -0.5000 
     42 CA          2.2228  -18.8858  -40.6554 C.3       6 UNK         0.1400 
     43 CB          3.3396  -18.4030  -39.7182 C.3       6 UNK        -0.1800 
     44 N           1.2691  -17.7980  -40.8775 N.am      6 UNK        -0.5000 
     45 C           0.0858  -17.9432  -41.4910 C.2       5 UNK         0.5000 
     46 O          -0.3522  -19.0277  -41.8753 O.2       5 UNK        -0.5000 
     47 CA         -0.7222  -16.6578  -41.7578 C.3       5 UNK         0.1400 
     48 CB         -1.6821  -16.3693  -40.5949 C.3       5 UNK        -0.1800 
     49 N           0.1072  -15.4738  -42.0032 N.am      5 UNK        -0.5000 
     50 C           0.9814  -15.3407  -43.0087 C.2       4 UNK         0.5000 
     51 O           1.2352  -16.2467  -43.8040 O.2       4 UNK        -0.5000 
     52 CA          1.7052  -13.9832  -43.1185 C.3       4 UNK         0.1400 
     53 CB          2.6857  -13.9225  -44.3032 C.3       4 UNK        -0.1800 
     54 N           0.7739  -12.8557  -43.2109 N.am      4 UNK        -0.5000 
     55 C           0.1875  -12.2605  -42.1619 C.2       3 UNK         0.5000 
     56 O           0.2961  -12.6812  -41.0086 O.2       3 UNK        -0.5000 
     57 CA         -0.6339  -10.9802  -42.4117 C.3       3 UNK         0.1400 
     58 CB          0.1345   -9.7511  -41.8998 C.3       3 UNK        -0.1800 
     59 N          -0.9501  -10.7709  -43.8242 N.am      3 UNK        -0.5000 
     60 C          -2.0970  -11.1349  -44.4087 C.2       2 UNK         0.5000 
     61 O          -3.0385  -11.6551  -43.8083 O.2       2 UNK        -0.5000 
     62 CA         -2.2228  -10.8935  -45.9269 C.3       2 UNK         0.1400 
     63 CB         -1.2984   -9.7823  -46.4758 C.3       2 UNK        -0.1800 
     64 N          -2.0464  -12.1497  -46.6586 N.am      2 UNK        -0.5000 
     65 C          -0.9545  -12.9304  -46.6672 C.2       1 UNK         0.5000 
     66 O           0.1213  -12.6080  -46.1577 O.2       1 UNK        -0.5000 
     67 C           1.5898  -24.0828  -48.5283 C.2       11 UNK         0.5000 
     68 O           1.5541  -24.5210  -49.6775 O.2       11 UNK        -0.5000 
     69 N           0.5944  -24.2293  -47.6393 N.am      12 UNK        -0.5000 
     70 CA         -0.7465  -24.7743  -47.8847 C.3       12 UNK         0.1400 
     71 CB         -0.6949  -26.2365  -48.3762 C.3       12 UNK        -0.1800 
     72 C          -1.5915  -23.8547  -48.7920 C.2       12 UNK         0.5000 
     73 O          -2.3785  -24.3298  -49.6117 O.2       12 UNK        -0.5000 
     74 N          -1.4214  -22.5389  -48.6133 N.am      13 UNK        -0.5000 
     75 CA         -2.2381  -21.5053  -49.2451 C.3       13 UNK         0.1400 
     76 CB         -1.4654  -20.1779  -49.2510 C.3       13 UNK        -0.1800 
     77 C          -3.5837  -21.3351  -48.5205 C.2       13 UNK         0.5000 
     78 O          -4.5711  -20.9736  -49.1609 O.2       13 UNK        -0.5000 
     79 N          -3.5946  -21.6031  -47.2042 N.am      14 UNK        -0.5000 
     80 CA         -4.7292  -21.4928  -46.2849 C.3       14 UNK         0.1400 
     81 CB         -5.8020  -22.5567  -46.6079 C.3       14 UNK        -0.1800 
     82 C          -5.2678  -20.0496  -46.2384 C.2       14 UNK         0.5000 
     83 O          -4.6523  -19.2055  -45.5896 O.2       14 UNK        -0.5000 
     84 N          -6.3808  -19.7850  -46.9343 N.am      15 UNK        -0.5000 
     85 CA         -6.9552  -18.4490  -47.1035 C.3       15 UNK         0.1400 
     86 CB         -8.4266  -18.5924  -47.5220 C.3       15 UNK        -0.1800 
     87 C          -6.1879  -17.5832  -48.1246 C.2       15 UNK         0.5000 
     88 O          -6.2769  -16.3567  -48.0503 O.2       15 UNK        -0.5000 
     89 N          -5.4522  -18.2309  -49.0427 N.am      16 UNK        -0.5000 
     90 CA         -4.6879  -17.6566  -50.1553 C.3       16 UNK         0.1400 
     91 CB         -3.5206  -16.8009  -49.6163 C.3       16 UNK        -0.1800 
     92 C          -5.5666  -16.8966  -51.1775 C.2       16 UNK         0.5000 
     93 O          -6.7965  -16.9754  -51.1229 O.2       16 UNK        -0.5000 
     94 N          -4.9085  -16.1991  -52.1180 N.am      17 UNK        -0.5000 
     95 CA         -5.4945  -15.3520  -53.1696 C.3       17 UNK         0.1400 
     96 CB         -6.1150  -14.0834  -52.5475 C.3       17 UNK        -0.1800 
     97 C          -6.4725  -16.0969  -54.1080 C.2       17 UNK         0.5000 
     98 O          -7.4491  -15.5121  -54.5816 O.2       17 UNK        -0.5000 
     99 N          -6.1911  -17.3793  -54.3567 N.am      18 UNK        -0.5000 
    100 CA        -6.9948  -18.3068  -55.1441 C.3       18 UNK         0.1400 
    101 CB        -8.2131  -18.7687  -54.3188 C.3       18 UNK        -0.1800 
    102 C         -6.1104  -19.4969  -55.5450 C.2       18 UNK         0.5000 
    103 O         -4.9571  -19.5821  -55.1093 O.2       18 UNK        -0.5000 
    104 N         -6.6695  -20.4150  -56.3432 N.am      19 UNK        -0.5000 
    105 CA        -6.0432  -21.6665  -56.7808 C.3       19 UNK         0.1400 
    106 CB        -6.7784  -22.1731  -58.0351 C.3       19 UNK        -0.1800 
    107 C         -5.9934  -22.7215  -55.6515 C.2       19 UNK         0.5000 
    108 O         -6.5742  -23.8021  -55.7745 O.2       19 UNK        -0.5000 
    109 N         -5.3167  -22.3675  -54.5547 N.am      20 UNK        -0.5000 
    110 CA        -5.0574  -23.2106  -53.3915 C.3       20 UNK         0.1400 
    111 CB        -4.6349  -22.2997  -52.2273 C.3       20 UNK        -0.1800 
    112 C         -3.9796  -24.2746  -53.6773 C.2       20 UNK         0.5000 
    113 O         -3.3165  -24.2356  -54.7188 O.2       20 UNK        -0.5000 
    114 N         -3.7892  -25.1890  -52.7159 N.am      21 UNK        -0.5000 
    115 CA        -2.8136  -26.2847  -52.7679 C.3       21 UNK         0.1400 
    116 CB        -3.0313  -27.2154  -51.5644 C.3       21 UNK        -0.1800 
    117 C         -1.3398  -25.8336  -52.8637 C.2       21 UNK         0.5000 
    118 O         -0.4912  -26.6427  -53.2421 O.2       21 UNK        -0.5000 
    119 N         -1.0653  -24.5567  -52.5658 N.am      22 UNK        -0.5000 
    120 CA         0.2171  -23.8937  -52.8334 C.3       22 UNK         0.1400 
    121 C          0.5587  -23.7013  -54.3431 C.2       22 UNK         0.5000 
    122 N         -0.3895  -23.8274  -55.2662 N.am      22 UNK        -0.7600 
    123 O          1.7102  -23.4409  -54.6812 O.2       22 UNK        -0.5000 
    124 C124        0.3610  -22.5756  -52.0322 C.3       23 UNK        -0.0398 
    125 S125       -0.6961  -21.1874  -52.5880 S.3       23 UNK        -0.2404 
    126 C126        0.5330  -19.9612  -53.1507 C.3       23 UNK        -0.0205 
    127 H127       -4.3000  -16.5262  -46.1759 H         1 UNK         0.0600 
    128 H128       -4.7641  -15.2704  -45.0181 H         1 UNK         0.0600 
    129 H129       -3.8640  -16.6948  -44.4793 H         1 UNK         0.0600 
    130 H130       -2.9972  -15.2873  -47.5434 H         1 UNK         0.3000 
    131 H131       -1.2936  -14.1394  -48.3741 H         1 UNK         0.0600 
    132 H132        1.0198  -14.6638  -47.4999 H         1 UNK         0.0800 
    133 H133        0.3037  -15.4705  -46.1376 H         1 UNK         0.0800 
    134 H134        0.4692  -15.7663  -50.2801 H         1 UNK         0.0800 
    135 H135        1.9075  -15.7760  -49.2885 H         1 UNK         0.0800 
    136 H136       -0.1181  -17.7723  -51.6360 H         1 UNK         0.1150 
    137 H137        2.9412  -20.7348  -52.1334 H         1 UNK         0.1150 
    138 H138        3.2985  -17.8019  -49.0395 H         1 UNK         0.1150 
    139 H139        4.9179  -20.6896  -50.8373 H         1 UNK         0.0800 
    140 H140        5.3115  -19.2443  -49.9432 H         1 UNK         0.0800 
    141 H141        1.9857  -21.3115  -48.5134 H         1 UNK         0.0800 
    142 H142        2.7617  -22.0738  -49.8815 H         1 UNK         0.0800 
    143 H143        3.7073  -23.8452  -48.4152 H         1 UNK         0.0600 
    144 H144        2.7255  -22.2100  -46.2506 H         1 UNK         0.3000 
    145 H145        3.2906  -24.7208  -43.7312 H         1 UNK         0.0600 
    146 H146        4.5978  -22.8280  -42.8177 H         1 UNK         0.0600 
    147 H147        4.5955  -22.0303  -44.3898 H         1 UNK         0.0600 
    148 H148        5.4489  -23.5526  -44.1732 H         1 UNK         0.0600 
    149 H149        2.2646  -22.1000  -43.4742 H         1 UNK         0.3000 
    150 H150       -1.2235  -22.9873  -43.6565 H         1 UNK         0.0600 
    151 H151       -0.3529  -23.5047  -41.3724 H         1 UNK         0.0600 
    152 H152       -1.0837  -21.9072  -41.4341 H         1 UNK         0.0600 
    153 H153        0.6695  -22.0731  -41.4249 H         1 UNK         0.0600 
    154 H154        0.1014  -20.4854  -43.2376 H         1 UNK         0.3000 
    155 H155        0.1700  -19.4542  -46.6601 H         1 UNK         0.0600 
    156 H156       -2.0282  -18.7319  -45.9608 H         1 UNK         0.0600 
    157 H157       -0.9175  -17.4927  -45.3994 H         1 UNK         0.0600 
    158 H158       -1.5717  -18.6644  -44.2646 H         1 UNK         0.0600 
    159 H159        1.1070  -18.0944  -44.4068 H         1 UNK         0.3000 
    160 H160        4.3518  -19.6111  -44.1813 H         1 UNK         0.0600 
    161 H161        3.3542  -16.8941  -45.1847 H         1 UNK         0.0600 
    162 H162        4.5565  -17.9219  -45.9423 H         1 UNK         0.0600 
    163 H163        4.9083  -17.1674  -44.3941 H         1 UNK         0.0600 
    164 H164        2.8941  -17.5529  -42.7495 H         1 UNK         0.3000 
    165 H165        1.6946  -19.7057  -40.1639 H         1 UNK         0.0600 
    166 H166        2.9372  -18.0873  -38.7555 H         1 UNK         0.0600 
    167 H167        4.0568  -19.2016  -39.5234 H         1 UNK         0.0600 
    168 H168        3.8906  -17.5635  -40.1440 H         1 UNK         0.0600 
    169 H169        1.5504  -16.8724  -40.5901 H         1 UNK         0.3000 
    170 H170       -1.3188  -16.8292  -42.6555 H         1 UNK         0.0600 
    171 H171       -2.3302  -17.2252  -40.4017 H         1 UNK         0.0600 
    172 H172       -1.1427  -16.1489  -39.6729 H         1 UNK         0.0600 
    173 H173       -2.3264  -15.5190  -40.8196 H         1 UNK         0.0600 
    174 H174       -0.0404  -14.6709  -41.4019 H         1 UNK         0.3000 
    175 H175        2.2999  -13.8711  -42.2095 H         1 UNK         0.0600 
    176 H176        2.1835  -14.0920  -45.2550 H         1 UNK         0.0600 
    177 H177        3.1826  -12.9538  -44.3555 H         1 UNK         0.0600 
    178 H178        3.4648  -14.6784  -44.2028 H         1 UNK         0.0600 
    179 H179        0.5607  -12.5322  -44.1487 H         1 UNK         0.3000 
    180 H180       -1.5542  -11.0659  -41.8301 H         1 UNK         0.0600 
    181 H181       -0.4538   -8.8411  -42.0190 H         1 UNK         0.0600 
    182 H182        1.0767   -9.6142  -42.4320 H         1 UNK         0.0600 
    183 H183        0.3678   -9.8482  -40.8386 H         1 UNK         0.0600 
    184 H184       -0.2206  -10.3759  -44.4003 H         1 UNK         0.3000 
    185 H185       -3.2513  -10.5745  -46.1020 H         1 UNK         0.0600 
    186 H186       -1.5050   -9.5943  -47.5293 H         1 UNK         0.0600 
    187 H187       -1.4618   -8.8437  -45.9449 H         1 UNK         0.0600 
    188 H188       -0.2402  -10.0286  -46.3903 H         1 UNK         0.0600 
    189 H189       -2.8900  -12.5303  -47.0634 H         1 UNK         0.3000 
    190 H190        0.7390  -23.8444  -46.7153 H         1 UNK         0.3000 
    191 H191       -1.2446  -24.7765  -46.9141 H         1 UNK         0.0600 
    192 H192       -1.6884  -26.6852  -48.3573 H         1 UNK         0.0600 
    193 H193       -0.0520  -26.8449  -47.7402 H         1 UNK         0.0600 
    194 H194       -0.3271  -26.3117  -49.4000 H         1 UNK         0.0600 
    195 H195       -0.8245  -22.2367  -47.8495 H         1 UNK         0.3000 
    196 H196       -2.4371  -21.7953  -50.2772 H         1 UNK         0.0600 
    197 H197       -1.9440  -19.4563  -49.9132 H         1 UNK         0.0600 
    198 H198       -0.4422  -20.3101  -49.6028 H         1 UNK         0.0600 
    199 H199       -1.4239  -19.7282  -48.2603 H         1 UNK         0.0600 
    200 H200       -2.7082  -21.8392  -46.7733 H         1 UNK         0.3000 
    201 H201       -4.3422  -21.7090  -45.2879 H         1 UNK         0.0600 
    202 H202       -6.1987  -22.4610  -47.6188 H         1 UNK         0.0600 
    203 H203       -6.6411  -22.4889  -45.9143 H         1 UNK         0.0600 
    204 H204       -5.3891  -23.5611  -46.5144 H         1 UNK         0.0600 
    205 H205       -6.8059  -20.5335  -47.4620 H         1 UNK         0.3000 
    206 H206       -6.9236  -17.9308  -46.1425 H         1 UNK         0.0600 
    207 H207       -8.9969  -19.1490  -46.7782 H         1 UNK         0.0600 
    208 H208       -8.8988  -17.6148  -47.6283 H         1 UNK         0.0600 
    209 H209       -8.5240  -19.1085  -48.4781 H         1 UNK         0.0600 
    210 H210       -5.4305  -19.2459  -49.0027 H         1 UNK         0.3000 
    211 H211       -4.2617  -18.5079  -50.6882 H         1 UNK         0.0600 
    212 H212       -3.8702  -15.8416  -49.2346 H         1 UNK         0.0600 
    213 H213       -2.7818  -16.5975  -50.3919 H         1 UNK         0.0600 
    214 H214       -2.9974  -17.3145  -48.8091 H         1 UNK         0.0600 
    215 H215       -3.8988  -16.2200  -52.1006 H         1 UNK         0.3000 
    216 H216       -4.6639  -15.0326  -53.8006 H         1 UNK         0.0600 
    217 H217       -5.3967  -13.5634  -51.9137 H         1 UNK         0.0600 
    218 H218       -6.9892  -14.3188  -51.9395 H         1 UNK         0.0600 
    219 H219       -6.4318  -13.3809  -53.3192 H         1 UNK         0.0600 
    220 H220       -5.3395  -17.7854  -53.9895 H         1 UNK         0.3000 
    221 H221       -7.3300  -17.8095  -56.0564 H         1 UNK         0.0600 
    222 H222       -8.8448  -19.4531  -54.8856 H         1 UNK         0.0600 
    223 H223       -7.9050  -19.2822  -53.4069 H         1 UNK         0.0600 
    224 H224       -8.8396  -17.9255  -54.0277 H         1 UNK         0.0600 
    225 H225       -7.6280  -20.2819  -56.6316 H         1 UNK         0.3000 
    226 H226       -5.0104  -21.4567  -57.0673 H         1 UNK         0.0600 
    227 H227       -6.7424  -21.4362  -58.8377 H         1 UNK         0.0600 
    228 H228       -6.3194  -23.0866  -58.4154 H         1 UNK         0.0600 
    229 H229       -7.8265  -22.3926  -57.8276 H         1 UNK         0.0600 
    230 H230       -4.8860  -21.4483  -54.5547 H         1 UNK         0.3000 
    231 H231       -5.9811  -23.7255  -53.1198 H         1 UNK         0.0600 
    232 H232       -4.4689  -22.8713  -51.3135 H         1 UNK         0.0600 
    233 H233       -5.4044  -21.5600  -52.0046 H         1 UNK         0.0600 
    234 H234       -3.7137  -21.7617  -52.4526 H         1 UNK         0.0600 
    235 H235       -4.3367  -25.1290  -51.8693 H         1 UNK         0.3000 
    236 H236       -3.0219  -26.8578  -53.6736 H         1 UNK         0.0600 
    237 H237       -2.8823  -26.6949  -50.6192 H         1 UNK         0.0600 
    238 H238       -4.0393  -27.6303  -51.5635 H         1 UNK         0.0600 
    239 H239       -2.3361  -28.0555  -51.5874 H         1 UNK         0.0600 
    240 H240       -1.8149  -23.9692  -52.2328 H         1 UNK         0.3000 
    241 H241        0.9861  -24.5676  -52.4506 H         1 UNK         0.0600 
    242 H242       -0.1528  -23.7044  -56.2375 H         1 UNK         0.3800 
    243 H243       -1.3528  -24.0135  -55.0054 H         1 UNK         0.3800 
    244 H244        1.4059  -22.2797  -52.0477 H         1 UNK         0.0800 
    245 H245        0.1336  -22.7551  -50.9831 H         1 UNK         0.0800 
    246 H246        1.2139  -20.4310  -53.8625 H         1 UNK         0.0800 
    247 H247        0.0136  -19.1771  -53.7033 H         1 UNK         0.0800 
@<TRIPOS>BOND
     1    1    2 1    
     2    1  127 1    
     3    1  128 1    
     4    1  129 1    
     5    2    3 2    
     6    2    4 am   BACKBONE|DICT|INTERRES
     7    4    5 1    
     8    4  130 1    
     9    5    6 1    
    10    5   65 1    
    11    5  131 1    
    12    6    7 1    
    13    6  132 1    
    14    6  133 1    
    15    7    8 1    
    16    8    9 1    
    17    8  134 1    
    18    8  135 1    
    19    9   10 ar   
    20    9   14 ar   
    21   10   11 ar   
    22   10  136 1    
    23   11   12 ar   
    24   11  126 1    
    25   12   13 ar   
    26   12  137 1    
    27   13   14 ar   
    28   13   15 1    
    29   14  138 1    
    30   15   16 1    
    31   15  139 1    
    32   15  140 1    
    33   16   17 1    
    34   17   18 1    
    35   17  141 1    
    36   17  142 1    
    37   18   19 1    
    38   18   67 1    
    39   18  143 1    
    40   19   20 am   BACKBONE|DICT|INTERRES
    41   19  144 1    
    42   20   21 2    
    43   20   22 1    
    44   22   23 1    
    45   22   24 1    
    46   22  145 1    
    47   23  146 1    
    48   23  147 1    
    49   23  148 1    
    50   24   25 am   BACKBONE|DICT|INTERRES
    51   24  149 1    
    52   25   26 2    
    53   25   27 1    
    54   27   28 1    
    55   27   29 1    
    56   27  150 1    
    57   28  151 1    
    58   28  152 1    
    59   28  153 1    
    60   29   30 am   BACKBONE|DICT|INTERRES
    61   29  154 1    
    62   30   31 2    
    63   30   32 1    
    64   32   33 1    
    65   32   34 1    
    66   32  155 1    
    67   33  156 1    
    68   33  157 1    
    69   33  158 1    
    70   34   35 am   BACKBONE|DICT|INTERRES
    71   34  159 1    
    72   35   36 2    
    73   35   37 1    
    74   37   38 1    
    75   37   39 1    
    76   37  160 1    
    77   38  161 1    
    78   38  162 1    
    79   38  163 1    
    80   39   40 am   BACKBONE|DICT|INTERRES
    81   39  164 1    
    82   40   41 2    
    83   40   42 1    
    84   42   43 1    
    85   42   44 1    
    86   42  165 1    
    87   43  166 1    
    88   43  167 1    
    89   43  168 1    
    90   44   45 am   BACKBONE|DICT|INTERRES
    91   44  169 1    
    92   45   46 2    
    93   45   47 1    
    94   47   48 1    
    95   47   49 1    
    96   47  170 1    
    97   48  171 1    
    98   48  172 1    
    99   48  173 1    
   100   49   50 am   BACKBONE|DICT|INTERRES
   101   49  174 1    
   102   50   51 2    
   103   50   52 1    
   104   52   53 1    
   105   52   54 1    
   106   52  175 1    
   107   53  176 1    
   108   53  177 1    
   109   53  178 1    
   110   54   55 am   BACKBONE|DICT|INTERRES
   111   54  179 1    
   112   55   56 2    
   113   55   57 1    
   114   57   58 1    
   115   57   59 1    
   116   57  180 1    
   117   58  181 1    
   118   58  182 1    
   119   58  183 1    
   120   59   60 am   BACKBONE|DICT|INTERRES
   121   59  184 1    
   122   60   61 2    
   123   60   62 1    
   124   62   63 1    
   125   62   64 1    
   126   62  185 1    
   127   63  186 1    
   128   63  187 1    
   129   63  188 1    
   130   64   65 am   BACKBONE|DICT|INTERRES
   131   64  189 1    
   132   65   66 2    
   133   67   68 2    
   134   67   69 am   BACKBONE|DICT|INTERRES
   135   69   70 1    
   136   69  190 1    
   137   70   71 1    
   138   70   72 1    
   139   70  191 1    
   140   71  192 1    
   141   71  193 1    
   142   71  194 1    
   143   72   73 2    
   144   72   74 am   BACKBONE|DICT|INTERRES
   145   74   75 1    
   146   74  195 1    
   147   75   76 1    
   148   75   77 1    
   149   75  196 1    
   150   76  197 1    
   151   76  198 1    
   152   76  199 1    
   153   77   78 2    
   154   77   79 am   BACKBONE|DICT|INTERRES
   155   79   80 1    
   156   79  200 1    
   157   80   81 1    
   158   80   82 1    
   159   80  201 1    
   160   81  202 1    
   161   81  203 1    
   162   81  204 1    
   163   82   83 2    
   164   82   84 am   BACKBONE|DICT|INTERRES
   165   84   85 1    
   166   84  205 1    
   167   85   86 1    
   168   85   87 1    
   169   85  206 1    
   170   86  207 1    
   171   86  208 1    
   172   86  209 1    
   173   87   88 2    
   174   87   89 am   BACKBONE|DICT|INTERRES
   175   89   90 1    
   176   89  210 1    
   177   90   91 1    
   178   90   92 1    
   179   90  211 1    
   180   91  212 1    
   181   91  213 1    
   182   91  214 1    
   183   92   93 2    
   184   92   94 am   BACKBONE|DICT|INTERRES
   185   94   95 1    
   186   94  215 1    
   187   95   96 1    
   188   95   97 1    
   189   95  216 1    
   190   96  217 1    
   191   96  218 1    
   192   96  219 1    
   193   97   98 2    
   194   97   99 am   BACKBONE|DICT|INTERRES
   195   99  100 1    
   196   99  220 1    
   197  100  101 1    
   198  100  102 1    
   199  100  221 1    
   200  101  222 1    
   201  101  223 1    
   202  101  224 1    
   203  102  103 2    
   204  102  104 am   BACKBONE|DICT|INTERRES
   205  104  105 1    
   206  104  225 1    
   207  105  106 1    
   208  105  107 1    
   209  105  226 1    
   210  106  227 1    
   211  106  228 1    
   212  106  229 1    
   213  107  108 2    
   214  107  109 am   BACKBONE|DICT|INTERRES
   215  109  110 1    
   216  109  230 1    
   217  110  111 1    
   218  110  112 1    
   219  110  231 1    
   220  111  232 1    
   221  111  233 1    
   222  111  234 1    
   223  112  113 2    
   224  112  114 am   BACKBONE|DICT|INTERRES
   225  114  115 1    
   226  114  235 1    
   227  115  116 1    
   228  115  117 1    
   229  115  236 1    
   230  116  237 1    
   231  116  238 1    
   232  116  239 1    
   233  117  118 2    
   234  117  119 am   BACKBONE|DICT|INTERRES
   235  119  120 1    
   236  119  240 1    
   237  120  121 1    
   238  120  124 1    
   239  120  241 1    
   240  121  122 am   BACKBONE|DICT|INTERRES
   241  121  123 2    
   242  122  242 1    
   243  122  243 1    
   244  124  125 1    
   245  124  244 1    
   246  124  245 1    
   247  125  126 1    
   248  126  246 1    
   249  126  247 1    
@<TRIPOS>SUBSTRUCTURE
     1 UNK         1 GROUP             0       ****    0 ROOT    
