@<TRIPOS>MOLECULE
3R540
247   249    1
SMALL
USER_CHARGES


@<TRIPOS>ATOM
      1 CA         -5.9164  -13.2767  -43.2134 C.3       0 UNK        -0.1800 
      2 C          -4.6206  -13.4437  -43.9937 C.2       0 UNK         0.5000 
      3 O          -3.7090  -14.1236  -43.5242 O.2       0 UNK        -0.5000 
      4 N          -4.5325  -12.8140  -45.1728 N.am      1 UNK        -0.5000 
      5 CA         -3.4216  -12.8299  -46.1398 C.3       1 UNK         0.1400 
      6 C6         -3.0410  -14.2410  -46.6653 C.3       23 UNK        -0.0398 
      7 S7         -4.4390  -15.0926  -47.4714 S.3       23 UNK        -0.2404 
      8 C8         -4.0910  -14.7500  -49.2300 C.3       23 UNK        -0.0205 
      9 C9         -3.2752  -15.8251  -49.9490 C.ar      23 UNK        -0.0193 
     10 C10        -3.5204  -16.0480  -51.3059 C.ar      23 UNK        -0.1150 
     11 C11        -2.7979  -17.0069  -52.0170 C.ar      23 UNK        -0.0193 
     12 C12        -1.8273  -17.7633  -51.3564 C.ar      23 UNK        -0.1150 
     13 C13        -1.5593  -17.5608  -49.9987 C.ar      23 UNK        -0.0193 
     14 C14        -2.2789  -16.5741  -49.3077 C.ar      23 UNK        -0.1150 
     15 C15        -0.4786  -18.4313  -49.3479 C.3       23 UNK        -0.0205 
     16 S16        -0.2596  -18.2726  -47.5393 S.3       23 UNK        -0.2404 
     17 C17        -1.8096  -18.9921  -46.9090 C.3       23 UNK        -0.0398 
     18 CA         -1.7347  -20.5196  -46.6745 C.3       11 UNK         0.1400 
     19 N          -0.6478  -20.9362  -45.7813 N.am      11 UNK        -0.5000 
     20 C          -0.2941  -22.2129  -45.5632 C.2       10 UNK         0.5000 
     21 O          -0.8140  -23.1720  -46.1308 O.2       10 UNK        -0.5000 
     22 CA          0.7728  -22.4694  -44.4851 C.3       10 UNK         0.1400 
     23 CB          2.1853  -22.3329  -45.0649 C.3       10 UNK        -0.1800 
     24 N           0.6136  -21.5689  -43.3447 N.am      10 UNK        -0.5000 
     25 C          -0.4052  -21.6511  -42.4751 C.2       9 UNK         0.5000 
     26 O          -1.2663  -22.5303  -42.5148 O.2       9 UNK        -0.5000 
     27 CA         -0.5157  -20.5326  -41.4241 C.3       9 UNK         0.1400 
     28 CB          0.2639  -20.9071  -40.1565 C.3       9 UNK        -0.1800 
     29 N          -0.0645  -19.2362  -41.9409 N.am      9 UNK        -0.5000 
     30 C          -0.7057  -18.5715  -42.9155 C.2       8 UNK         0.5000 
     31 O          -1.7451  -18.9902  -43.4269 O.2       8 UNK        -0.5000 
     32 CA         -0.0838  -17.2750  -43.4703 C.3       8 UNK         0.1400 
     33 CB         -1.1354  -16.1671  -43.6644 C.3       8 UNK        -0.1800 
     34 N           1.0862  -16.7932  -42.7351 N.am      8 UNK        -0.5000 
     35 C           1.1479  -16.2448  -41.5135 C.2       7 UNK         0.5000 
     36 O           0.1653  -16.0051  -40.8105 O.2       7 UNK        -0.5000 
     37 CA          2.5750  -15.9605  -40.9889 C.3       7 UNK         0.1400 
     38 CB          2.6239  -15.7391  -39.4623 C.3       7 UNK        -0.1800 
     39 N           3.5403  -16.9933  -41.3985 N.am      7 UNK        -0.5000 
     40 C           3.4642  -18.3044  -41.1199 C.2       6 UNK         0.5000 
     41 O           2.5766  -18.7982  -40.4261 O.2       6 UNK        -0.5000 
     42 CA          4.5259  -19.2121  -41.7742 C.3       6 UNK         0.1400 
     43 CB          4.1946  -20.7144  -41.6450 C.3       6 UNK        -0.1800 
     44 N           4.7804  -18.8640  -43.1760 N.am      6 UNK        -0.5000 
     45 C           3.9051  -18.8577  -44.1909 C.2       5 UNK         0.5000 
     46 O           2.7057  -19.1210  -44.0688 O.2       5 UNK        -0.5000 
     47 CA          4.4809  -18.4376  -45.5603 C.3       5 UNK         0.1400 
     48 CB          3.5881  -18.8651  -46.7375 C.3       5 UNK        -0.1800 
     49 N           4.6724  -16.9916  -45.6410 N.am      5 UNK        -0.5000 
     50 C           5.5925  -16.2642  -44.9925 C.2       4 UNK         0.5000 
     51 O           6.4466  -16.7514  -44.2506 O.2       4 UNK        -0.5000 
     52 CA          5.5549  -14.7353  -45.2049 C.3       4 UNK         0.1400 
     53 CB          6.7373  -14.2850  -46.0767 C.3       4 UNK        -0.1800 
     54 N           4.3092  -14.2538  -45.8128 N.am      4 UNK        -0.5000 
     55 C           3.1182  -14.2439  -45.2019 C.2       3 UNK         0.5000 
     56 O           2.9421  -14.6324  -44.0457 O.2       3 UNK        -0.5000 
     57 CA          1.9223  -13.7979  -46.0614 C.3       3 UNK         0.1400 
     58 CB          1.4076  -14.9788  -46.9009 C.3       3 UNK        -0.1800 
     59 N           0.8144  -13.2967  -45.2544 N.am      3 UNK        -0.5000 
     60 C           0.8040  -12.1536  -44.5572 C.2       2 UNK         0.5000 
     61 O           1.7476  -11.3609  -44.5314 O.2       2 UNK        -0.5000 
     62 CA         -0.4956  -11.8523  -43.7750 C.3       2 UNK         0.1400 
     63 CB         -0.6628  -10.3561  -43.4388 C.3       2 UNK        -0.1800 
     64 N          -1.7024  -12.3743  -44.4328 N.am      2 UNK        -0.5000 
     65 C          -2.1660  -12.0731  -45.6552 C.2       1 UNK         0.5000 
     66 O          -1.6420  -11.2471  -46.4032 O.2       1 UNK        -0.5000 
     67 C          -3.0962  -21.0312  -46.1724 C.2       11 UNK         0.5000 
     68 O          -3.8784  -21.5378  -46.9732 O.2       11 UNK        -0.5000 
     69 N          -3.3439  -20.9188  -44.8603 N.am      12 UNK        -0.5000 
     70 CA         -4.5479  -21.4228  -44.2007 C.3       12 UNK         0.1400 
     71 CB         -4.5644  -20.9585  -42.7366 C.3       12 UNK        -0.1800 
     72 C          -4.6790  -22.9541  -44.2969 C.2       12 UNK         0.5000 
     73 O          -5.7683  -23.4504  -44.5851 O.2       12 UNK        -0.5000 
     74 N          -3.5639  -23.6687  -44.0892 N.am      13 UNK        -0.5000 
     75 CA         -3.4811  -25.1257  -44.1937 C.3       13 UNK         0.1400 
     76 CB         -2.1374  -25.6032  -43.6220 C.3       13 UNK        -0.1800 
     77 C          -3.6739  -25.6406  -45.6326 C.2       13 UNK         0.5000 
     78 O          -4.4005  -26.6141  -45.8355 O.2       13 UNK        -0.5000 
     79 N          -3.0266  -24.9812  -46.6027 N.am      14 UNK        -0.5000 
     80 CA         -3.0550  -25.3540  -48.0196 C.3       14 UNK         0.1400 
     81 CB         -1.7558  -24.8748  -48.6815 C.3       14 UNK        -0.1800 
     82 C          -4.2844  -24.8216  -48.7839 C.2       14 UNK         0.5000 
     83 O          -4.4693  -25.1987  -49.9400 O.2       14 UNK        -0.5000 
     84 N          -5.0900  -23.9668  -48.1379 N.am      15 UNK        -0.5000 
     85 CA         -6.2823  -23.2884  -48.6554 C.3       15 UNK         0.1400 
     86 CB         -7.4007  -24.2943  -48.9991 C.3       15 UNK        -0.1800 
     87 C          -5.9581  -22.2936  -49.7908 C.2       15 UNK         0.5000 
     88 O          -6.5851  -22.3196  -50.8525 O.2       15 UNK        -0.5000 
     89 N          -4.9875  -21.4122  -49.5124 N.am      16 UNK        -0.5000 
     90 CA         -4.5423  -20.2693  -50.3126 C.3       16 UNK         0.1400 
     91 CB         -5.5967  -19.1427  -50.2532 C.3       16 UNK        -0.1800 
     92 C          -4.1348  -20.6718  -51.7429 C.2       16 UNK         0.5000 
     93 O          -3.0967  -21.3099  -51.9140 O.2       16 UNK        -0.5000 
     94 N          -4.9515  -20.3098  -52.7423 N.am      17 UNK        -0.5000 
     95 CA         -4.7253  -20.5914  -54.1615 C.3       17 UNK         0.1400 
     96 CB         -5.7980  -19.8787  -54.9969 C.3       17 UNK        -0.1800 
     97 C          -4.6665  -22.0905  -54.5101 C.2       17 UNK         0.5000 
     98 O          -3.9901  -22.4575  -55.4728 O.2       17 UNK        -0.5000 
     99 N          -5.3130  -22.9390  -53.6952 N.am      18 UNK        -0.5000 
    100 CA        -5.2875  -24.4006  -53.8158 C.3       18 UNK         0.1400 
    101 CB        -6.3691  -25.0054  -52.9120 C.3       18 UNK        -0.1800 
    102 C         -3.9039  -25.0338  -53.5443 C.2       18 UNK         0.5000 
    103 O         -3.7094  -26.2080  -53.8598 O.2       18 UNK        -0.5000 
    104 N         -2.9460  -24.2398  -53.0415 N.am      19 UNK        -0.5000 
    105 CA        -1.5203  -24.5676  -52.9679 C.3       19 UNK         0.1400 
    106 CB        -0.8384  -23.5526  -52.0345 C.3       19 UNK        -0.1800 
    107 C         -0.8120  -24.5581  -54.3436 C.2       19 UNK         0.5000 
    108 O          0.3856  -24.8403  -54.3919 O.2       19 UNK        -0.5000 
    109 N         -1.5394  -24.1952  -55.4138 N.am      20 UNK        -0.5000 
    110 CA        -1.0652  -23.8549  -56.7587 C.3       20 UNK         0.1400 
    111 CB        -0.2753  -25.0067  -57.4163 C.3       20 UNK        -0.1800 
    112 C         -0.3109  -22.5134  -56.7201 C.2       20 UNK         0.5000 
    113 O          0.8295  -22.4134  -57.1768 O.2       20 UNK        -0.5000 
    114 N         -0.9751  -21.5153  -56.1286 N.am      21 UNK        -0.5000 
    115 CA        -0.4768  -20.1639  -55.9032 C.3       21 UNK         0.1400 
    116 CB        -0.2872  -19.9661  -54.3894 C.3       21 UNK        -0.1800 
    117 C         -1.4805  -19.1456  -56.4631 C.2       21 UNK         0.5000 
    118 O         -2.6477  -19.4826  -56.6728 O.2       21 UNK        -0.5000 
    119 N         -1.0091  -17.9106  -56.6709 N.am      22 UNK        -0.5000 
    120 CA        -1.7921  -16.7537  -57.1497 C.3       22 UNK         0.1400 
    121 C         -2.2933  -16.8610  -58.6247 C.2       22 UNK         0.5000 
    122 N         -1.7568  -17.7580  -59.4432 N.am      22 UNK        -0.7600 
    123 O         -3.1567  -16.0982  -59.0506 O.2       22 UNK        -0.5000 
    124 C124       -2.9228  -16.3305  -56.1672 C.3       23 UNK        -0.0398 
    125 S125       -2.2975  -15.9193  -54.5012 S.3       23 UNK        -0.2404 
    126 C126       -3.0756  -17.2189  -53.4957 C.3       23 UNK        -0.0205 
    127 H127       -6.6320  -12.6479  -43.7436 H         1 UNK         0.0600 
    128 H128       -5.7142  -12.8204  -42.2444 H         1 UNK         0.0600 
    129 H129       -6.3784  -14.2493  -43.0438 H         1 UNK         0.0600 
    130 H130       -5.3220  -12.2559  -45.4664 H         1 UNK         0.3000 
    131 H131       -3.7924  -12.2643  -46.9964 H         1 UNK         0.0600 
    132 H132       -2.6875  -14.8745  -45.8532 H         1 UNK         0.0800 
    133 H133       -2.2115  -14.1747  -47.3717 H         1 UNK         0.0800 
    134 H134       -3.5869  -13.7884  -49.3334 H         1 UNK         0.0800 
    135 H135       -5.0557  -14.6382  -49.7273 H         1 UNK         0.0800 
    136 H136       -4.2728  -15.4656  -51.8194 H         1 UNK         0.1150 
    137 H137       -1.2726  -18.5129  -51.9029 H         1 UNK         0.1150 
    138 H138       -2.0720  -16.3901  -48.2658 H         1 UNK         0.1150 
    139 H139        0.4759  -18.1912  -49.8180 H         1 UNK         0.0800 
    140 H140       -0.6774  -19.4789  -49.5795 H         1 UNK         0.0800 
    141 H141       -2.6176  -18.7597  -47.6043 H         1 UNK         0.0800 
    142 H142       -2.0590  -18.4702  -45.9847 H         1 UNK         0.0800 
    143 H143       -1.5523  -20.9935  -47.6417 H         1 UNK         0.0600 
    144 H144       -0.1786  -20.2055  -45.2687 H         1 UNK         0.3000 
    145 H145        0.6529  -23.4953  -44.1304 H         1 UNK         0.0600 
    146 H146        2.3472  -23.0509  -45.8698 H         1 UNK         0.0600 
    147 H147        2.9469  -22.5127  -44.3060 H         1 UNK         0.0600 
    148 H148        2.3467  -21.3391  -45.4759 H         1 UNK         0.0600 
    149 H149        1.2631  -20.7953  -43.2748 H         1 UNK         0.3000 
    150 H150       -1.5686  -20.4340  -41.1518 H         1 UNK         0.0600 
    151 H151        1.3139  -21.1057  -40.3719 H         1 UNK         0.0600 
    152 H152       -0.1491  -21.8076  -39.7004 H         1 UNK         0.0600 
    153 H153        0.2159  -20.1127  -39.4115 H         1 UNK         0.0600 
    154 H154        0.7956  -18.8621  -41.5555 H         1 UNK         0.3000 
    155 H155        0.2915  -17.5373  -44.4603 H         1 UNK         0.0600 
    156 H156       -1.6202  -15.8957  -42.7267 H         1 UNK         0.0600 
    157 H157       -1.9212  -16.4927  -44.3460 H         1 UNK         0.0600 
    158 H158       -0.6910  -15.2682  -44.0845 H         1 UNK         0.0600 
    159 H159        1.9686  -16.9630  -43.1985 H         1 UNK         0.3000 
    160 H160        2.8953  -15.0308  -41.4595 H         1 UNK         0.0600 
    161 H161        2.2524  -16.6046  -38.9130 H         1 UNK         0.0600 
    162 H162        2.0132  -14.8831  -39.1729 H         1 UNK         0.0600 
    163 H163        3.6409  -15.5390  -39.1255 H         1 UNK         0.0600 
    164 H164        4.2892  -16.6791  -41.9993 H         1 UNK         0.3000 
    165 H165        5.4563  -19.0306  -41.2346 H         1 UNK         0.0600 
    166 H166        4.1159  -21.0093  -40.5979 H         1 UNK         0.0600 
    167 H167        3.2495  -20.9654  -42.1261 H         1 UNK         0.0600 
    168 H168        4.9727  -21.3297  -42.0965 H         1 UNK         0.0600 
    169 H169        5.7141  -18.5234  -43.3785 H         1 UNK         0.3000 
    170 H170        5.4515  -18.9228  -45.6828 H         1 UNK         0.0600 
    171 H171        3.9993  -18.5263  -47.6886 H         1 UNK         0.0600 
    172 H172        3.5099  -19.9495  -46.7963 H         1 UNK         0.0600 
    173 H173        2.5796  -18.4606  -46.6488 H         1 UNK         0.0600 
    174 H174        4.0114  -16.4925  -46.2157 H         1 UNK         0.3000 
    175 H175        5.6573  -14.2697  -44.2224 H         1 UNK         0.0600 
    176 H176        7.6874  -14.5938  -45.6384 H         1 UNK         0.0600 
    177 H177        6.6842  -14.7122  -47.0789 H         1 UNK         0.0600 
    178 H178        6.7652  -13.1996  -46.1742 H         1 UNK         0.0600 
    179 H179        4.3747  -13.9300  -46.7675 H         1 UNK         0.3000 
    180 H180        2.2473  -12.9987  -46.7308 H         1 UNK         0.0600 
    181 H181        1.0834  -15.8071  -46.2696 H         1 UNK         0.0600 
    182 H182        2.1822  -15.3597  -47.5675 H         1 UNK         0.0600 
    183 H183        0.5635  -14.6852  -47.5255 H         1 UNK         0.0600 
    184 H184        0.0030  -13.8899  -45.1935 H         1 UNK         0.3000 
    185 H185       -0.4083  -12.3932  -42.8315 H         1 UNK         0.0600 
    186 H186        0.1652   -9.9973  -42.8263 H         1 UNK         0.0600 
    187 H187       -0.6953   -9.7398  -44.3376 H         1 UNK         0.0600 
    188 H188       -1.5800  -10.1789  -42.8771 H         1 UNK         0.0600 
    189 H189       -2.2399  -13.0587  -43.9035 H         1 UNK         0.3000 
    190 H190       -2.6738  -20.4265  -44.2753 H         1 UNK         0.3000 
    191 H191       -5.4107  -20.9829  -44.7054 H         1 UNK         0.0600 
    192 H192       -4.5220  -19.8713  -42.6675 H         1 UNK         0.0600 
    193 H193       -5.4772  -21.2823  -42.2352 H         1 UNK         0.0600 
    194 H194       -3.7213  -21.3613  -42.1754 H         1 UNK         0.0600 
    195 H195       -2.7181  -23.1842  -43.8070 H         1 UNK         0.3000 
    196 H196       -4.2780  -25.5509  -43.5799 H         1 UNK         0.0600 
    197 H197       -2.0557  -26.6898  -43.6697 H         1 UNK         0.0600 
    198 H198       -2.0295  -25.3144  -42.5763 H         1 UNK         0.0600 
    199 H199       -1.2939  -25.1851  -44.1722 H         1 UNK         0.0600 
    200 H200       -2.4046  -24.2163  -46.3523 H         1 UNK         0.3000 
    201 H201       -3.0796  -26.4432  -48.0932 H         1 UNK         0.0600 
    202 H202       -1.6860  -25.2450  -49.7044 H         1 UNK         0.0600 
    203 H203       -0.8795  -25.2414  -48.1467 H         1 UNK         0.0600 
    204 H204       -1.6998  -23.7858  -48.7115 H         1 UNK         0.0600 
    205 H205       -4.8023  -23.6809  -47.2112 H         1 UNK         0.3000 
    206 H206       -6.6526  -22.6772  -47.8308 H         1 UNK         0.0600 
    207 H207       -7.6654  -24.8943  -48.1285 H         1 UNK         0.0600 
    208 H208       -8.3049  -23.7775  -49.3225 H         1 UNK         0.0600 
    209 H209       -7.1134  -24.9778  -49.7961 H         1 UNK         0.0600 
    210 H210       -4.5307  -21.5080  -48.6059 H         1 UNK         0.3000 
    211 H211       -3.6355  -19.8937  -49.8362 H         1 UNK         0.0600 
    212 H212       -5.7344  -18.7976  -49.2283 H         1 UNK         0.0600 
    213 H213       -5.2859  -18.2776  -50.8390 H         1 UNK         0.0600 
    214 H214       -6.5697  -19.4659  -50.6244 H         1 UNK         0.0600 
    215 H215       -5.8053  -19.8247  -52.5083 H         1 UNK         0.3000 
    216 H216       -3.7541  -20.1722  -54.4212 H         1 UNK         0.0600 
    217 H217       -6.7988  -20.2431  -54.7621 H         1 UNK         0.0600 
    218 H218       -5.6294  -20.0391  -56.0629 H         1 UNK         0.0600 
    219 H219       -5.7815  -18.8022  -54.8278 H         1 UNK         0.0600 
    220 H220       -5.8059  -22.5638  -52.8920 H         1 UNK         0.3000 
    221 H221       -5.5452  -24.6469  -54.8479 H         1 UNK         0.0600 
    222 H222       -6.1728  -24.7843  -51.8657 H         1 UNK         0.0600 
    223 H223       -7.3567  -24.6154  -53.1580 H         1 UNK         0.0600 
    224 H224       -6.4096  -26.0902  -53.0163 H         1 UNK         0.0600 
    225 H225       -3.1924  -23.2925  -52.7776 H         1 UNK         0.3000 
    226 H226       -1.4176  -25.5656  -52.5375 H         1 UNK         0.0600 
    227 H227       -1.3968  -23.4148  -51.1103 H         1 UNK         0.0600 
    228 H228        0.1667  -23.8801  -51.7668 H         1 UNK         0.0600 
    229 H229       -0.7483  -22.5733  -52.5067 H         1 UNK         0.0600 
    230 H230       -2.5047  -23.9408  -55.2416 H         1 UNK         0.3000 
    231 H231       -1.9588  -23.6896  -57.3625 H         1 UNK         0.0600 
    232 H232        0.6883  -25.1761  -56.9359 H         1 UNK         0.0600 
    233 H233       -0.0760  -24.7852  -58.4652 H         1 UNK         0.0600 
    234 H234       -0.8373  -25.9399  -57.3819 H         1 UNK         0.0600 
    235 H235       -1.9451  -21.6637  -55.8741 H         1 UNK         0.3000 
    236 H236        0.4790  -20.0137  -56.4093 H         1 UNK         0.0600 
    237 H237       -1.2115  -20.1509  -53.8405 H         1 UNK         0.0600 
    238 H238        0.4693  -20.6468  -53.9986 H         1 UNK         0.0600 
    239 H239        0.0385  -18.9512  -54.1579 H         1 UNK         0.0600 
    240 H240       -0.0369  -17.7200  -56.4742 H         1 UNK         0.3000 
    241 H241       -1.0807  -15.9276  -57.1789 H         1 UNK         0.0600 
    242 H242       -2.0776  -17.8136  -60.3973 H         1 UNK         0.3800 
    243 H243       -1.0398  -18.3860  -59.1179 H         1 UNK         0.3800 
    244 H244       -3.6888  -17.1044  -56.1035 H         1 UNK         0.0800 
    245 H245       -3.4328  -15.4394  -56.5363 H         1 UNK         0.0800 
    246 H246       -2.7037  -18.1905  -53.8174 H         1 UNK         0.0800 
    247 H247       -4.1530  -17.2224  -53.6666 H         1 UNK         0.0800 
@<TRIPOS>BOND
     1    1    2 1    
     2    1  127 1    
     3    1  128 1    
     4    1  129 1    
     5    2    3 2    
     6    2    4 am   BACKBONE|DICT|INTERRES
     7    4    5 1    
     8    4  130 1    
     9    5    6 1    
    10    5   65 1    
    11    5  131 1    
    12    6    7 1    
    13    6  132 1    
    14    6  133 1    
    15    7    8 1    
    16    8    9 1    
    17    8  134 1    
    18    8  135 1    
    19    9   10 ar   
    20    9   14 ar   
    21   10   11 ar   
    22   10  136 1    
    23   11   12 ar   
    24   11  126 1    
    25   12   13 ar   
    26   12  137 1    
    27   13   14 ar   
    28   13   15 1    
    29   14  138 1    
    30   15   16 1    
    31   15  139 1    
    32   15  140 1    
    33   16   17 1    
    34   17   18 1    
    35   17  141 1    
    36   17  142 1    
    37   18   19 1    
    38   18   67 1    
    39   18  143 1    
    40   19   20 am   BACKBONE|DICT|INTERRES
    41   19  144 1    
    42   20   21 2    
    43   20   22 1    
    44   22   23 1    
    45   22   24 1    
    46   22  145 1    
    47   23  146 1    
    48   23  147 1    
    49   23  148 1    
    50   24   25 am   BACKBONE|DICT|INTERRES
    51   24  149 1    
    52   25   26 2    
    53   25   27 1    
    54   27   28 1    
    55   27   29 1    
    56   27  150 1    
    57   28  151 1    
    58   28  152 1    
    59   28  153 1    
    60   29   30 am   BACKBONE|DICT|INTERRES
    61   29  154 1    
    62   30   31 2    
    63   30   32 1    
    64   32   33 1    
    65   32   34 1    
    66   32  155 1    
    67   33  156 1    
    68   33  157 1    
    69   33  158 1    
    70   34   35 am   BACKBONE|DICT|INTERRES
    71   34  159 1    
    72   35   36 2    
    73   35   37 1    
    74   37   38 1    
    75   37   39 1    
    76   37  160 1    
    77   38  161 1    
    78   38  162 1    
    79   38  163 1    
    80   39   40 am   BACKBONE|DICT|INTERRES
    81   39  164 1    
    82   40   41 2    
    83   40   42 1    
    84   42   43 1    
    85   42   44 1    
    86   42  165 1    
    87   43  166 1    
    88   43  167 1    
    89   43  168 1    
    90   44   45 am   BACKBONE|DICT|INTERRES
    91   44  169 1    
    92   45   46 2    
    93   45   47 1    
    94   47   48 1    
    95   47   49 1    
    96   47  170 1    
    97   48  171 1    
    98   48  172 1    
    99   48  173 1    
   100   49   50 am   BACKBONE|DICT|INTERRES
   101   49  174 1    
   102   50   51 2    
   103   50   52 1    
   104   52   53 1    
   105   52   54 1    
   106   52  175 1    
   107   53  176 1    
   108   53  177 1    
   109   53  178 1    
   110   54   55 am   BACKBONE|DICT|INTERRES
   111   54  179 1    
   112   55   56 2    
   113   55   57 1    
   114   57   58 1    
   115   57   59 1    
   116   57  180 1    
   117   58  181 1    
   118   58  182 1    
   119   58  183 1    
   120   59   60 am   BACKBONE|DICT|INTERRES
   121   59  184 1    
   122   60   61 2    
   123   60   62 1    
   124   62   63 1    
   125   62   64 1    
   126   62  185 1    
   127   63  186 1    
   128   63  187 1    
   129   63  188 1    
   130   64   65 am   BACKBONE|DICT|INTERRES
   131   64  189 1    
   132   65   66 2    
   133   67   68 2    
   134   67   69 am   BACKBONE|DICT|INTERRES
   135   69   70 1    
   136   69  190 1    
   137   70   71 1    
   138   70   72 1    
   139   70  191 1    
   140   71  192 1    
   141   71  193 1    
   142   71  194 1    
   143   72   73 2    
   144   72   74 am   BACKBONE|DICT|INTERRES
   145   74   75 1    
   146   74  195 1    
   147   75   76 1    
   148   75   77 1    
   149   75  196 1    
   150   76  197 1    
   151   76  198 1    
   152   76  199 1    
   153   77   78 2    
   154   77   79 am   BACKBONE|DICT|INTERRES
   155   79   80 1    
   156   79  200 1    
   157   80   81 1    
   158   80   82 1    
   159   80  201 1    
   160   81  202 1    
   161   81  203 1    
   162   81  204 1    
   163   82   83 2    
   164   82   84 am   BACKBONE|DICT|INTERRES
   165   84   85 1    
   166   84  205 1    
   167   85   86 1    
   168   85   87 1    
   169   85  206 1    
   170   86  207 1    
   171   86  208 1    
   172   86  209 1    
   173   87   88 2    
   174   87   89 am   BACKBONE|DICT|INTERRES
   175   89   90 1    
   176   89  210 1    
   177   90   91 1    
   178   90   92 1    
   179   90  211 1    
   180   91  212 1    
   181   91  213 1    
   182   91  214 1    
   183   92   93 2    
   184   92   94 am   BACKBONE|DICT|INTERRES
   185   94   95 1    
   186   94  215 1    
   187   95   96 1    
   188   95   97 1    
   189   95  216 1    
   190   96  217 1    
   191   96  218 1    
   192   96  219 1    
   193   97   98 2    
   194   97   99 am   BACKBONE|DICT|INTERRES
   195   99  100 1    
   196   99  220 1    
   197  100  101 1    
   198  100  102 1    
   199  100  221 1    
   200  101  222 1    
   201  101  223 1    
   202  101  224 1    
   203  102  103 2    
   204  102  104 am   BACKBONE|DICT|INTERRES
   205  104  105 1    
   206  104  225 1    
   207  105  106 1    
   208  105  107 1    
   209  105  226 1    
   210  106  227 1    
   211  106  228 1    
   212  106  229 1    
   213  107  108 2    
   214  107  109 am   BACKBONE|DICT|INTERRES
   215  109  110 1    
   216  109  230 1    
   217  110  111 1    
   218  110  112 1    
   219  110  231 1    
   220  111  232 1    
   221  111  233 1    
   222  111  234 1    
   223  112  113 2    
   224  112  114 am   BACKBONE|DICT|INTERRES
   225  114  115 1    
   226  114  235 1    
   227  115  116 1    
   228  115  117 1    
   229  115  236 1    
   230  116  237 1    
   231  116  238 1    
   232  116  239 1    
   233  117  118 2    
   234  117  119 am   BACKBONE|DICT|INTERRES
   235  119  120 1    
   236  119  240 1    
   237  120  121 1    
   238  120  124 1    
   239  120  241 1    
   240  121  122 am   BACKBONE|DICT|INTERRES
   241  121  123 2    
   242  122  242 1    
   243  122  243 1    
   244  124  125 1    
   245  124  244 1    
   246  124  245 1    
   247  125  126 1    
   248  126  246 1    
   249  126  247 1    
@<TRIPOS>SUBSTRUCTURE
     1 UNK         1 GROUP             0       ****    0 ROOT    
