@<TRIPOS>MOLECULE
3R540
247   249    1
SMALL
USER_CHARGES


@<TRIPOS>ATOM
      1 CA         -1.6970   -8.7930  -41.5991 C.3       0 UNK        -0.1800 
      2 C          -1.6105   -9.8425  -42.6978 C.2       0 UNK         0.5000 
      3 O          -1.9651   -9.5631  -43.8441 O.2       0 UNK        -0.5000 
      4 N          -1.1356  -11.0483  -42.3597 N.am      1 UNK        -0.5000 
      5 CA         -0.9470  -12.1762  -43.2774 C.3       1 UNK         0.1400 
      6 C6         -1.0373  -13.5282  -42.5234 C.3       23 UNK        -0.0398 
      7 S7         -1.3075  -14.9506  -43.6325 S.3       23 UNK        -0.2404 
      8 C8         -3.1007  -14.8335  -43.9219 C.3       23 UNK        -0.0205 
      9 C9         -3.5690  -15.9228  -44.8714 C.ar      23 UNK        -0.0193 
     10 C10        -3.2789  -15.8353  -46.2359 C.ar      23 UNK        -0.1150 
     11 C11        -3.6755  -16.8485  -47.1125 C.ar      23 UNK        -0.0193 
     12 C12        -4.3775  -17.9497  -46.6156 C.ar      23 UNK        -0.1150 
     13 C13        -4.6798  -18.0466  -45.2542 C.ar      23 UNK        -0.0193 
     14 C14        -4.2821  -17.0228  -44.3884 C.ar      23 UNK        -0.1150 
     15 C15        -5.4119  -19.2731  -44.7239 C.3       23 UNK        -0.0205 
     16 S16        -4.5354  -20.1120  -43.3582 S.3       23 UNK        -0.2404 
     17 C17        -2.8444  -20.3062  -44.0214 C.3       23 UNK        -0.0398 
     18 CA         -2.6858  -21.5049  -44.9856 C.3       11 UNK         0.1400 
     19 N          -1.4839  -21.3731  -45.8108 N.am      11 UNK        -0.5000 
     20 C          -1.1594  -22.1709  -46.8372 C.2       10 UNK         0.5000 
     21 O          -1.8803  -23.0733  -47.2534 O.2       10 UNK        -0.5000 
     22 CA          0.2328  -21.9718  -47.4642 C.3       10 UNK         0.1400 
     23 CB          0.2147  -20.8395  -48.4997 C.3       10 UNK        -0.1800 
     24 N           1.2666  -21.7096  -46.4617 N.am      10 UNK        -0.5000 
     25 C           1.6144  -22.5606  -45.4855 C.2       9 UNK         0.5000 
     26 O           1.1527  -23.6946  -45.3704 O.2       9 UNK        -0.5000 
     27 CA          2.5956  -22.0368  -44.4242 C.3       9 UNK         0.1400 
     28 CB          4.0479  -22.1471  -44.9100 C.3       9 UNK        -0.1800 
     29 N           2.2977  -20.6549  -44.0472 N.am      9 UNK        -0.5000 
     30 C           1.2274  -20.2851  -43.3292 C.2       8 UNK         0.5000 
     31 O           0.4034  -21.0799  -42.8752 O.2       8 UNK        -0.5000 
     32 CA          1.0222  -18.7714  -43.1219 C.3       8 UNK         0.1400 
     33 CB          1.8438  -18.2676  -41.9267 C.3       8 UNK        -0.1800 
     34 N           1.3623  -17.9869  -44.3109 N.am      8 UNK        -0.5000 
     35 C           0.6804  -18.0466  -45.4629 C.2       7 UNK         0.5000 
     36 O          -0.3114  -18.7536  -45.6260 O.2       7 UNK        -0.5000 
     37 CA          1.2328  -17.2338  -46.6486 C.3       7 UNK         0.1400 
     38 CB          0.6834  -15.8019  -46.6260 C.3       7 UNK        -0.1800 
     39 N           2.6992  -17.2081  -46.7280 N.am      7 UNK        -0.5000 
     40 C           3.4708  -18.3003  -46.8545 C.2       6 UNK         0.5000 
     41 O           3.0131  -19.4429  -46.8837 O.2       6 UNK        -0.5000 
     42 CA          4.9932  -18.0886  -46.9641 C.3       6 UNK         0.1400 
     43 CB          5.6963  -19.2352  -47.7135 C.3       6 UNK        -0.1800 
     44 N           5.2968  -16.8290  -47.6390 N.am      6 UNK        -0.5000 
     45 C           6.1145  -15.8723  -47.1826 C.2       5 UNK         0.5000 
     46 O           6.7343  -15.9475  -46.1211 O.2       5 UNK        -0.5000 
     47 CA          6.2631  -14.6093  -48.0585 C.3       5 UNK         0.1400 
     48 CB          7.5826  -14.6553  -48.8447 C.3       5 UNK        -0.1800 
     49 N           5.1566  -14.4013  -49.0008 N.am      5 UNK        -0.5000 
     50 C           3.8950  -14.1369  -48.6416 C.2       4 UNK         0.5000 
     51 O           3.5224  -14.0484  -47.4672 O.2       4 UNK        -0.5000 
     52 CA          2.8711  -14.0011  -49.7764 C.3       4 UNK         0.1400 
     53 CB          2.5116  -15.3802  -50.3602 C.3       4 UNK        -0.1800 
     54 N           1.6907  -13.3698  -49.2084 N.am      4 UNK        -0.5000 
     55 C           0.7065  -12.7442  -49.8576 C.2       3 UNK         0.5000 
     56 O           0.6248  -12.6791  -51.0843 O.2       3 UNK        -0.5000 
     57 CA         -0.3638  -12.0647  -48.9774 C.3       3 UNK         0.1400 
     58 CB         -1.5903  -12.9783  -48.8300 C.3       3 UNK        -0.1800 
     59 N           0.1124  -11.7052  -47.6358 N.am      3 UNK        -0.5000 
     60 C           1.0665  -10.8027  -47.3598 C.2       2 UNK         0.5000 
     61 O           1.6487  -10.1484  -48.2259 O.2       2 UNK        -0.5000 
     62 CA          1.4257  -10.6001  -45.8738 C.3       2 UNK         0.1400 
     63 CB          1.7855   -9.1366  -45.5607 C.3       2 UNK        -0.1800 
     64 N           0.3242  -11.0056  -44.9995 N.am      2 UNK        -0.5000 
     65 C           0.3525  -11.9901  -44.0945 C.2       1 UNK         0.5000 
     66 O           1.3399  -12.6932  -43.8766 O.2       1 UNK        -0.5000 
     67 C          -2.7192  -22.8525  -44.2341 C.2       11 UNK         0.5000 
     68 O          -3.7263  -23.5580  -44.2999 O.2       11 UNK        -0.5000 
     69 N          -1.6071  -23.2076  -43.5722 N.am      12 UNK        -0.5000 
     70 CA         -1.4415  -24.4655  -42.8374 C.3       12 UNK         0.1400 
     71 CB         -0.1150  -24.4339  -42.0637 C.3       12 UNK        -0.1800 
     72 C          -1.5208  -25.7139  -43.7388 C.2       12 UNK         0.5000 
     73 O          -2.1094  -26.7188  -43.3392 O.2       12 UNK        -0.5000 
     74 N          -0.9594  -25.6133  -44.9499 N.am      13 UNK        -0.5000 
     75 CA         -1.0042  -26.6390  -45.9937 C.3       13 UNK         0.1400 
     76 CB          0.1868  -26.4167  -46.9405 C.3       13 UNK        -0.1800 
     77 C          -2.3252  -26.6521  -46.7925 C.2       13 UNK         0.5000 
     78 O          -2.4756  -27.4907  -47.6820 O.2       13 UNK        -0.5000 
     79 N          -3.2307  -25.7033  -46.5149 N.am      14 UNK        -0.5000 
     80 CA         -4.4970  -25.3875  -47.1893 C.3       14 UNK         0.1400 
     81 CB         -5.4685  -26.5823  -47.1760 C.3       14 UNK        -0.1800 
     82 C          -4.3399  -24.8132  -48.6117 C.2       14 UNK         0.5000 
     83 O          -5.1090  -23.9249  -48.9818 O.2       14 UNK        -0.5000 
     84 N          -3.3677  -25.3232  -49.3825 N.am      15 UNK        -0.5000 
     85 CA         -2.9572  -24.8816  -50.7204 C.3       15 UNK         0.1400 
     86 CB         -2.2194  -23.5294  -50.6300 C.3       15 UNK        -0.1800 
     87 C          -4.1183  -24.8665  -51.7355 C.2       15 UNK         0.5000 
     88 O          -4.2574  -23.9120  -52.5029 O.2       15 UNK        -0.5000 
     89 N          -4.9543  -25.9150  -51.6901 N.am      16 UNK        -0.5000 
     90 CA         -6.1782  -26.0938  -52.4820 C.3       16 UNK         0.1400 
     91 CB         -5.8345  -26.2998  -53.9729 C.3       16 UNK        -0.1800 
     92 C          -7.2115  -24.9699  -52.2391 C.2       16 UNK         0.5000 
     93 O          -7.8331  -24.4844  -53.1843 O.2       16 UNK        -0.5000 
     94 N          -7.3490  -24.5746  -50.9638 N.am      17 UNK        -0.5000 
     95 CA         -8.1327  -23.4433  -50.4554 C.3       17 UNK         0.1400 
     96 CB         -9.6396  -23.6205  -50.7403 C.3       17 UNK        -0.1800 
     97 C          -7.5624  -22.0951  -50.9416 C.2       17 UNK         0.5000 
     98 O          -8.3025  -21.2516  -51.4512 O.2       17 UNK        -0.5000 
     99 N          -6.2408  -21.9391  -50.7702 N.am      18 UNK        -0.5000 
    100 CA        -5.4144  -20.7917  -51.1611 C.3       18 UNK         0.1400 
    101 CB        -5.7187  -19.5753  -50.2655 C.3       18 UNK        -0.1800 
    102 C         -5.4915  -20.4695  -52.6693 C.2       18 UNK         0.5000 
    103 O         -5.6081  -19.3043  -53.0539 O.2       18 UNK        -0.5000 
    104 N         -5.4334  -21.5189  -53.4963 N.am      19 UNK        -0.5000 
    105 CA        -5.4277  -21.4344  -54.9556 C.3       19 UNK         0.1400 
    106 CB        -6.4876  -22.3903  -55.5219 C.3       19 UNK        -0.1800 
    107 C         -4.0407  -21.7716  -55.5252 C.2       19 UNK         0.5000 
    108 O         -3.6449  -21.1851  -56.5332 O.2       19 UNK        -0.5000 
    109 N         -3.3198  -22.6969  -54.8757 N.am      20 UNK        -0.5000 
    110 CA        -1.9736  -23.1198  -55.2652 C.3       20 UNK         0.1400 
    111 CB        -1.7211  -24.5389  -54.7318 C.3       20 UNK        -0.1800 
    112 C         -0.8803  -22.1544  -54.7694 C.2       20 UNK         0.5000 
    113 O          0.2157  -22.1460  -55.3314 O.2       20 UNK        -0.5000 
    114 N         -1.1889  -21.3633  -53.7357 N.am      21 UNK        -0.5000 
    115 CA        -0.3124  -20.3702  -53.1275 C.3       21 UNK         0.1400 
    116 CB         0.6734  -21.0559  -52.1648 C.3       21 UNK        -0.1800 
    117 C         -1.1719  -19.3283  -52.3982 C.2       21 UNK         0.5000 
    118 O         -2.3045  -19.6358  -52.0216 O.2       21 UNK        -0.5000 
    119 N         -0.6093  -18.1234  -52.2430 N.am      22 UNK        -0.5000 
    120 CA        -1.1218  -16.9048  -51.5789 C.3       22 UNK         0.1400 
    121 C         -2.5164  -16.3450  -51.9987 C.2       22 UNK         0.5000 
    122 N         -3.3708  -17.0992  -52.6703 N.am      22 UNK        -0.7600 
    123 O         -2.8109  -15.1828  -51.7358 O.2       22 UNK        -0.5000 
    124 C124       -0.9099  -16.9088  -50.0393 C.3       23 UNK        -0.0398 
    125 S125       -2.0580  -17.9494  -49.0718 S.3       23 UNK        -0.2404 
    126 C126       -3.3504  -16.7555  -48.5945 C.3       23 UNK        -0.0205 
    127 H127       -2.7272   -8.4571  -41.4820 H         1 UNK         0.0600 
    128 H128       -1.0828   -7.9301  -41.8564 H         1 UNK         0.0600 
    129 H129       -1.3543   -9.1809  -40.6396 H         1 UNK         0.0600 
    130 H130       -0.8300  -11.2043  -41.4093 H         1 UNK         0.3000 
    131 H131       -1.7711  -12.1535  -43.9930 H         1 UNK         0.0600 
    132 H132       -0.1403  -13.7085  -41.9287 H         1 UNK         0.0800 
    133 H133       -1.8626  -13.5041  -41.8101 H         1 UNK         0.0800 
    134 H134       -3.6271  -14.9024  -42.9686 H         1 UNK         0.0800 
    135 H135       -3.3492  -13.8597  -44.3450 H         1 UNK         0.0800 
    136 H136       -2.7307  -14.9825  -46.6090 H         1 UNK         0.1150 
    137 H137       -4.6724  -18.7387  -47.2923 H         1 UNK         0.1150 
    138 H138       -4.5060  -17.0984  -43.3336 H         1 UNK         0.1150 
    139 H139       -6.3993  -18.9694  -44.3743 H         1 UNK         0.0800 
    140 H140       -5.5799  -19.9966  -45.5230 H         1 UNK         0.0800 
    141 H141       -2.1569  -20.3893  -43.1789 H         1 UNK         0.0800 
    142 H142       -2.5604  -19.3825  -44.5229 H         1 UNK         0.0800 
    143 H143       -3.5302  -21.4955  -45.6779 H         1 UNK         0.0600 
    144 H144       -0.8702  -20.5924  -45.5945 H         1 UNK         0.3000 
    145 H145        0.4966  -22.8973  -47.9799 H         1 UNK         0.0600 
    146 H146        1.1652  -20.7709  -49.0284 H         1 UNK         0.0600 
    147 H147       -0.5686  -20.9995  -49.2416 H         1 UNK         0.0600 
    148 H148        0.0226  -19.8754  -48.0326 H         1 UNK         0.0600 
    149 H149        1.7389  -20.8110  -46.5144 H         1 UNK         0.3000 
    150 H150        2.4915  -22.6618  -43.5348 H         1 UNK         0.0600 
    151 H151        4.3038  -23.1839  -45.1319 H         1 UNK         0.0600 
    152 H152        4.7471  -21.7946  -44.1517 H         1 UNK         0.0600 
    153 H153        4.2159  -21.5697  -45.8181 H         1 UNK         0.0600 
    154 H154        2.8909  -19.9392  -44.4395 H         1 UNK         0.3000 
    155 H155       -0.0349  -18.6074  -42.9008 H         1 UNK         0.0600 
    156 H156        1.5964  -18.8241  -41.0217 H         1 UNK         0.0600 
    157 H157        1.6406  -17.2154  -41.7257 H         1 UNK         0.0600 
    158 H158        2.9154  -18.3771  -42.0975 H         1 UNK         0.0600 
    159 H159        2.1678  -17.3819  -44.2528 H         1 UNK         0.3000 
    160 H160        0.8685  -17.7134  -47.5580 H         1 UNK         0.0600 
    161 H161        1.1011  -15.2175  -45.8051 H         1 UNK         0.0600 
    162 H162       -0.4007  -15.8036  -46.5139 H         1 UNK         0.0600 
    163 H163        0.9043  -15.2878  -47.5572 H         1 UNK         0.0600 
    164 H164        3.1407  -16.2980  -46.6994 H         1 UNK         0.3000 
    165 H165        5.3698  -18.0711  -45.9396 H         1 UNK         0.0600 
    166 H166        6.7699  -19.0591  -47.7831 H         1 UNK         0.0600 
    167 H167        5.5609  -20.1870  -47.2001 H         1 UNK         0.0600 
    168 H168        5.3092  -19.3487  -48.7267 H         1 UNK         0.0600 
    169 H169        4.8306  -16.6744  -48.5211 H         1 UNK         0.3000 
    170 H170        6.2964  -13.7504  -47.3848 H         1 UNK         0.0600 
    171 H171        8.4341  -14.7771  -48.1738 H         1 UNK         0.0600 
    172 H172        7.6007  -15.4856  -49.5518 H         1 UNK         0.0600 
    173 H173        7.7419  -13.7330  -49.4038 H         1 UNK         0.0600 
    174 H174        5.3861  -14.4665  -49.9824 H         1 UNK         0.3000 
    175 H175        3.2855  -13.3570  -50.5545 H         1 UNK         0.0600 
    176 H176        2.1476  -16.0596  -49.5894 H         1 UNK         0.0600 
    177 H177        1.7434  -15.2985  -51.1283 H         1 UNK         0.0600 
    178 H178        3.3799  -15.8481  -50.8250 H         1 UNK         0.0600 
    179 H179        1.7114  -13.3331  -48.1964 H         1 UNK         0.3000 
    180 H180       -0.6727  -11.1481  -49.4840 H         1 UNK         0.0600 
    181 H181       -1.3434  -13.8933  -48.2916 H         1 UNK         0.0600 
    182 H182       -1.9847  -13.2665  -49.8054 H         1 UNK         0.0600 
    183 H183       -2.3949  -12.4779  -48.2909 H         1 UNK         0.0600 
    184 H184       -0.3150  -12.1885  -46.8603 H         1 UNK         0.3000 
    185 H185        2.3082  -11.2143  -45.6842 H         1 UNK         0.0600 
    186 H186        2.6458   -8.8067  -46.1444 H         1 UNK         0.0600 
    187 H187        0.9566   -8.4635  -45.7829 H         1 UNK         0.0600 
    188 H188        2.0440   -9.0126  -44.5089 H         1 UNK         0.0600 
    189 H189       -0.5194  -10.4431  -45.0534 H         1 UNK         0.3000 
    190 H190       -0.8255  -22.5605  -43.5433 H         1 UNK         0.3000 
    191 H191       -2.2547  -24.5318  -42.1117 H         1 UNK         0.0600 
    192 H192        0.7409  -24.3546  -42.7342 H         1 UNK         0.0600 
    193 H193       -0.0795  -23.5890  -41.3756 H         1 UNK         0.0600 
    194 H194        0.0140  -25.3414  -41.4727 H         1 UNK         0.0600 
    195 H195       -0.4318  -24.7724  -45.1704 H         1 UNK         0.3000 
    196 H196       -0.8934  -27.6210  -45.5297 H         1 UNK         0.0600 
    197 H197        1.1318  -26.4360  -46.3972 H         1 UNK         0.0600 
    198 H198        0.1153  -25.4560  -47.4526 H         1 UNK         0.0600 
    199 H199        0.2366  -27.1941  -47.7038 H         1 UNK         0.0600 
    200 H200       -2.9758  -25.0340  -45.7992 H         1 UNK         0.3000 
    201 H201       -4.9488  -24.5950  -46.5910 H         1 UNK         0.0600 
    202 H202       -6.4455  -26.2907  -47.5635 H         1 UNK         0.0600 
    203 H203       -5.6193  -26.9550  -46.1629 H         1 UNK         0.0600 
    204 H204       -5.1113  -27.4098  -47.7891 H         1 UNK         0.0600 
    205 H205       -2.8376  -26.0921  -48.9841 H         1 UNK         0.3000 
    206 H206       -2.2451  -25.6211  -51.0884 H         1 UNK         0.0600 
    207 H207       -1.3454  -23.6050  -49.9834 H         1 UNK         0.0600 
    208 H208       -2.8592  -22.7442  -50.2279 H         1 UNK         0.0600 
    209 H209       -1.8678  -23.2000  -51.6071 H         1 UNK         0.0600 
    210 H210       -4.7581  -26.6410  -51.0153 H         1 UNK         0.3000 
    211 H211       -6.6463  -27.0124  -52.1255 H         1 UNK         0.0600 
    212 H212       -5.1565  -27.1428  -54.1051 H         1 UNK         0.0600 
    213 H213       -6.7304  -26.5115  -54.5575 H         1 UNK         0.0600 
    214 H214       -5.3590  -25.4216  -54.4085 H         1 UNK         0.0600 
    215 H215       -6.7396  -25.0030  -50.2808 H         1 UNK         0.3000 
    216 H216       -8.0066  -23.4511  -49.3716 H         1 UNK         0.0600 
    217 H217      -10.2215  -22.8475  -50.2372 H         1 UNK         0.0600 
    218 H218       -9.8670  -23.5549  -51.8044 H         1 UNK         0.0600 
    219 H219       -9.9986  -24.5839  -50.3785 H         1 UNK         0.0600 
    220 H220       -5.7418  -22.6933  -50.3047 H         1 UNK         0.3000 
    221 H221       -4.3817  -21.0836  -50.9700 H         1 UNK         0.0600 
    222 H222       -6.7284  -19.1958  -50.4240 H         1 UNK         0.0600 
    223 H223       -5.6137  -19.8282  -49.2110 H         1 UNK         0.0600 
    224 H224       -5.0236  -18.7623  -50.4763 H         1 UNK         0.0600 
    225 H225       -5.3010  -22.4410  -53.0907 H         1 UNK         0.3000 
    226 H226       -5.6812  -20.4241  -55.2826 H         1 UNK         0.0600 
    227 H227       -7.4790  -22.1493  -55.1377 H         1 UNK         0.0600 
    228 H228       -6.5329  -22.3244  -56.6095 H         1 UNK         0.0600 
    229 H229       -6.2750  -23.4273  -55.2638 H         1 UNK         0.0600 
    230 H230       -3.7068  -23.1373  -54.0442 H         1 UNK         0.3000 
    231 H231       -1.9159  -23.1553  -56.3552 H         1 UNK         0.0600 
    232 H232       -0.7618  -24.9210  -55.0828 H         1 UNK         0.0600 
    233 H233       -2.4914  -25.2322  -55.0705 H         1 UNK         0.0600 
    234 H234       -1.7024  -24.5638  -53.6427 H         1 UNK         0.0600 
    235 H235       -2.1242  -21.3861  -53.3501 H         1 UNK         0.3000 
    236 H236        0.2454  -19.8596  -53.9155 H         1 UNK         0.0600 
    237 H237        1.3508  -21.7209  -52.7006 H         1 UNK         0.0600 
    238 H238        1.2877  -20.3242  -51.6387 H         1 UNK         0.0600 
    239 H239        0.1509  -21.6500  -51.4156 H         1 UNK         0.0600 
    240 H240        0.3122  -18.0054  -52.6382 H         1 UNK         0.3000 
    241 H241       -0.4403  -16.1407  -51.9549 H         1 UNK         0.0600 
    242 H242       -4.2697  -16.7343  -52.9399 H         1 UNK         0.3800 
    243 H243       -3.1877  -18.0941  -52.7431 H         1 UNK         0.3800 
    244 H244        0.0965  -17.2663  -49.8241 H         1 UNK         0.0800 
    245 H245       -0.9328  -15.8888  -49.6555 H         1 UNK         0.0800 
    246 H246       -4.2505  -16.9539  -49.1763 H         1 UNK         0.0800 
    247 H247       -3.0519  -15.7387  -48.8503 H         1 UNK         0.0800 
@<TRIPOS>BOND
     1    1    2 1    
     2    1  127 1    
     3    1  128 1    
     4    1  129 1    
     5    2    3 2    
     6    2    4 am   BACKBONE|DICT|INTERRES
     7    4    5 1    
     8    4  130 1    
     9    5    6 1    
    10    5   65 1    
    11    5  131 1    
    12    6    7 1    
    13    6  132 1    
    14    6  133 1    
    15    7    8 1    
    16    8    9 1    
    17    8  134 1    
    18    8  135 1    
    19    9   10 ar   
    20    9   14 ar   
    21   10   11 ar   
    22   10  136 1    
    23   11   12 ar   
    24   11  126 1    
    25   12   13 ar   
    26   12  137 1    
    27   13   14 ar   
    28   13   15 1    
    29   14  138 1    
    30   15   16 1    
    31   15  139 1    
    32   15  140 1    
    33   16   17 1    
    34   17   18 1    
    35   17  141 1    
    36   17  142 1    
    37   18   19 1    
    38   18   67 1    
    39   18  143 1    
    40   19   20 am   BACKBONE|DICT|INTERRES
    41   19  144 1    
    42   20   21 2    
    43   20   22 1    
    44   22   23 1    
    45   22   24 1    
    46   22  145 1    
    47   23  146 1    
    48   23  147 1    
    49   23  148 1    
    50   24   25 am   BACKBONE|DICT|INTERRES
    51   24  149 1    
    52   25   26 2    
    53   25   27 1    
    54   27   28 1    
    55   27   29 1    
    56   27  150 1    
    57   28  151 1    
    58   28  152 1    
    59   28  153 1    
    60   29   30 am   BACKBONE|DICT|INTERRES
    61   29  154 1    
    62   30   31 2    
    63   30   32 1    
    64   32   33 1    
    65   32   34 1    
    66   32  155 1    
    67   33  156 1    
    68   33  157 1    
    69   33  158 1    
    70   34   35 am   BACKBONE|DICT|INTERRES
    71   34  159 1    
    72   35   36 2    
    73   35   37 1    
    74   37   38 1    
    75   37   39 1    
    76   37  160 1    
    77   38  161 1    
    78   38  162 1    
    79   38  163 1    
    80   39   40 am   BACKBONE|DICT|INTERRES
    81   39  164 1    
    82   40   41 2    
    83   40   42 1    
    84   42   43 1    
    85   42   44 1    
    86   42  165 1    
    87   43  166 1    
    88   43  167 1    
    89   43  168 1    
    90   44   45 am   BACKBONE|DICT|INTERRES
    91   44  169 1    
    92   45   46 2    
    93   45   47 1    
    94   47   48 1    
    95   47   49 1    
    96   47  170 1    
    97   48  171 1    
    98   48  172 1    
    99   48  173 1    
   100   49   50 am   BACKBONE|DICT|INTERRES
   101   49  174 1    
   102   50   51 2    
   103   50   52 1    
   104   52   53 1    
   105   52   54 1    
   106   52  175 1    
   107   53  176 1    
   108   53  177 1    
   109   53  178 1    
   110   54   55 am   BACKBONE|DICT|INTERRES
   111   54  179 1    
   112   55   56 2    
   113   55   57 1    
   114   57   58 1    
   115   57   59 1    
   116   57  180 1    
   117   58  181 1    
   118   58  182 1    
   119   58  183 1    
   120   59   60 am   BACKBONE|DICT|INTERRES
   121   59  184 1    
   122   60   61 2    
   123   60   62 1    
   124   62   63 1    
   125   62   64 1    
   126   62  185 1    
   127   63  186 1    
   128   63  187 1    
   129   63  188 1    
   130   64   65 am   BACKBONE|DICT|INTERRES
   131   64  189 1    
   132   65   66 2    
   133   67   68 2    
   134   67   69 am   BACKBONE|DICT|INTERRES
   135   69   70 1    
   136   69  190 1    
   137   70   71 1    
   138   70   72 1    
   139   70  191 1    
   140   71  192 1    
   141   71  193 1    
   142   71  194 1    
   143   72   73 2    
   144   72   74 am   BACKBONE|DICT|INTERRES
   145   74   75 1    
   146   74  195 1    
   147   75   76 1    
   148   75   77 1    
   149   75  196 1    
   150   76  197 1    
   151   76  198 1    
   152   76  199 1    
   153   77   78 2    
   154   77   79 am   BACKBONE|DICT|INTERRES
   155   79   80 1    
   156   79  200 1    
   157   80   81 1    
   158   80   82 1    
   159   80  201 1    
   160   81  202 1    
   161   81  203 1    
   162   81  204 1    
   163   82   83 2    
   164   82   84 am   BACKBONE|DICT|INTERRES
   165   84   85 1    
   166   84  205 1    
   167   85   86 1    
   168   85   87 1    
   169   85  206 1    
   170   86  207 1    
   171   86  208 1    
   172   86  209 1    
   173   87   88 2    
   174   87   89 am   BACKBONE|DICT|INTERRES
   175   89   90 1    
   176   89  210 1    
   177   90   91 1    
   178   90   92 1    
   179   90  211 1    
   180   91  212 1    
   181   91  213 1    
   182   91  214 1    
   183   92   93 2    
   184   92   94 am   BACKBONE|DICT|INTERRES
   185   94   95 1    
   186   94  215 1    
   187   95   96 1    
   188   95   97 1    
   189   95  216 1    
   190   96  217 1    
   191   96  218 1    
   192   96  219 1    
   193   97   98 2    
   194   97   99 am   BACKBONE|DICT|INTERRES
   195   99  100 1    
   196   99  220 1    
   197  100  101 1    
   198  100  102 1    
   199  100  221 1    
   200  101  222 1    
   201  101  223 1    
   202  101  224 1    
   203  102  103 2    
   204  102  104 am   BACKBONE|DICT|INTERRES
   205  104  105 1    
   206  104  225 1    
   207  105  106 1    
   208  105  107 1    
   209  105  226 1    
   210  106  227 1    
   211  106  228 1    
   212  106  229 1    
   213  107  108 2    
   214  107  109 am   BACKBONE|DICT|INTERRES
   215  109  110 1    
   216  109  230 1    
   217  110  111 1    
   218  110  112 1    
   219  110  231 1    
   220  111  232 1    
   221  111  233 1    
   222  111  234 1    
   223  112  113 2    
   224  112  114 am   BACKBONE|DICT|INTERRES
   225  114  115 1    
   226  114  235 1    
   227  115  116 1    
   228  115  117 1    
   229  115  236 1    
   230  116  237 1    
   231  116  238 1    
   232  116  239 1    
   233  117  118 2    
   234  117  119 am   BACKBONE|DICT|INTERRES
   235  119  120 1    
   236  119  240 1    
   237  120  121 1    
   238  120  124 1    
   239  120  241 1    
   240  121  122 am   BACKBONE|DICT|INTERRES
   241  121  123 2    
   242  122  242 1    
   243  122  243 1    
   244  124  125 1    
   245  124  244 1    
   246  124  245 1    
   247  125  126 1    
   248  126  246 1    
   249  126  247 1    
@<TRIPOS>SUBSTRUCTURE
     1 UNK         1 GROUP             0       ****    0 ROOT    
