@<TRIPOS>MOLECULE
3R540
247   249    1
SMALL
USER_CHARGES


@<TRIPOS>ATOM
      1 CA          0.3299  -17.6620  -49.0135 C.3       0 UNK        -0.1800 
      2 C           0.4307  -16.4733  -49.9582 C.2       0 UNK         0.5000 
      3 O          -0.5346  -15.7228  -50.1009 O.2       0 UNK        -0.5000 
      4 N           1.5963  -16.2824  -50.5900 N.am      1 UNK        -0.5000 
      5 CA          1.8859  -15.1871  -51.5296 C.3       1 UNK         0.1400 
      6 C6          3.2453  -15.3922  -52.2487 C.3       23 UNK        -0.0398 
      7 S7          3.1094  -16.4460  -53.7295 S.3       23 UNK        -0.2404 
      8 C8          3.6914  -18.0702  -53.1311 C.3       23 UNK        -0.0205 
      9 C9          2.6378  -18.8995  -52.3981 C.ar      23 UNK        -0.0193 
     10 C10         1.2779  -18.8170  -52.7219 C.ar      23 UNK        -0.1150 
     11 C11         0.3349  -19.6182  -52.0733 C.ar      23 UNK        -0.0193 
     12 C12         0.7645  -20.5213  -51.0988 C.ar      23 UNK        -0.1150 
     13 C13         2.1150  -20.6138  -50.7558 C.ar      23 UNK        -0.0193 
     14 C14         3.0451  -19.7997  -51.4090 C.ar      23 UNK        -0.1150 
     15 C15         2.5720  -21.5961  -49.6879 C.3       23 UNK        -0.0205 
     16 S16         2.1824  -20.9974  -48.0125 S.3       23 UNK        -0.2404 
     17 C17         0.5590  -21.7725  -47.6805 C.3       23 UNK        -0.0398 
     18 CA          0.6421  -22.7847  -46.5092 C.3       11 UNK         0.1400 
     19 N           1.0196  -22.1312  -45.2525 N.am      11 UNK        -0.5000 
     20 C           1.8054  -22.6564  -44.3053 C.2       10 UNK         0.5000 
     21 O           2.2724  -23.7944  -44.3582 O.2       10 UNK        -0.5000 
     22 CA          2.0759  -21.7738  -43.0728 C.3       10 UNK         0.1400 
     23 CB          3.1612  -20.7300  -43.3771 C.3       10 UNK        -0.1800 
     24 N           0.8667  -21.1029  -42.5905 N.am      10 UNK        -0.5000 
     25 C          -0.1801  -21.7380  -42.0446 C.2       9 UNK         0.5000 
     26 O          -0.2057  -22.9518  -41.8421 O.2       9 UNK        -0.5000 
     27 CA         -1.4129  -20.8874  -41.6840 C.3       9 UNK         0.1400 
     28 CB         -1.2381  -20.2293  -40.3073 C.3       9 UNK        -0.1800 
     29 N          -1.7138  -19.8628  -42.6845 N.am      9 UNK        -0.5000 
     30 C          -2.1121  -20.1213  -43.9382 C.2       8 UNK         0.5000 
     31 O          -2.3115  -21.2541  -44.3697 O.2       8 UNK        -0.5000 
     32 CA         -2.2695  -18.9165  -44.8852 C.3       8 UNK         0.1400 
     33 CB         -3.6153  -18.2122  -44.6547 C.3       8 UNK        -0.1800 
     34 N          -1.1761  -17.9520  -44.7518 N.am      8 UNK        -0.5000 
     35 C           0.1147  -18.2326  -44.9826 C.2       7 UNK         0.5000 
     36 O           0.5108  -19.3165  -45.4050 O.2       7 UNK        -0.5000 
     37 CA          1.1407  -17.1497  -44.6109 C.3       7 UNK         0.1400 
     38 CB          1.2828  -16.0969  -45.7199 C.3       7 UNK        -0.1800 
     39 N           0.7961  -16.4987  -43.3477 N.am      7 UNK        -0.5000 
     40 C           0.9007  -17.0859  -42.1469 C.2       6 UNK         0.5000 
     41 O           1.3405  -18.2228  -41.9796 O.2       6 UNK        -0.5000 
     42 CA          0.3907  -16.2823  -40.9362 C.3       6 UNK         0.1400 
     43 CB          1.4839  -15.3374  -40.4159 C.3       6 UNK        -0.1800 
     44 N          -0.8117  -15.5073  -41.2458 N.am      6 UNK        -0.5000 
     45 C          -2.0058  -16.0444  -41.5350 C.2       5 UNK         0.5000 
     46 O          -2.2330  -17.2528  -41.5076 O.2       5 UNK        -0.5000 
     47 CA         -3.1130  -15.0711  -41.9846 C.3       5 UNK         0.1400 
     48 CB         -3.8978  -14.5483  -40.7727 C.3       5 UNK        -0.1800 
     49 N          -2.5953  -13.9374  -42.7573 N.am      5 UNK        -0.5000 
     50 C          -1.9823  -14.0483  -43.9429 C.2       4 UNK         0.5000 
     51 O          -1.8114  -15.1223  -44.5246 O.2       4 UNK        -0.5000 
     52 CA         -1.3808  -12.7566  -44.5187 C.3       4 UNK         0.1400 
     53 CB          0.0010  -12.4972  -43.8963 C.3       4 UNK        -0.1800 
     54 N          -1.2215  -12.8294  -45.9677 N.am      4 UNK        -0.5000 
     55 C          -2.1984  -12.6619  -46.8666 C.2       3 UNK         0.5000 
     56 O          -3.3691  -12.4369  -46.5556 O.2       3 UNK        -0.5000 
     57 CA         -1.8149  -12.7567  -48.3621 C.3       3 UNK         0.1400 
     58 CB         -2.3701  -11.5624  -49.1662 C.3       3 UNK        -0.1800 
     59 N          -0.3772  -12.9392  -48.6200 N.am      3 UNK        -0.5000 
     60 C           0.6182  -12.0607  -48.4072 C.2       2 UNK         0.5000 
     61 O           0.4508  -10.9382  -47.9309 O.2       2 UNK        -0.5000 
     62 CA          2.0538  -12.5145  -48.7443 C.3       2 UNK         0.1400 
     63 CB          2.8621  -12.7365  -47.4564 C.3       2 UNK        -0.1800 
     64 N           2.1088  -13.7358  -49.5499 N.am      2 UNK        -0.5000 
     65 C           1.8377  -13.7948  -50.8613 C.2       1 UNK         0.5000 
     66 O           1.5466  -12.8090  -51.5394 O.2       1 UNK        -0.5000 
     67 C          -0.6443  -23.6334  -46.3699 C.2       11 UNK         0.5000 
     68 O          -1.2636  -23.9696  -47.3832 O.2       11 UNK        -0.5000 
     69 N          -1.0213  -24.0014  -45.1363 N.am      12 UNK        -0.5000 
     70 CA         -2.1921  -24.8243  -44.8276 C.3       12 UNK         0.1400 
     71 CB         -2.4136  -24.8738  -43.3103 C.3       12 UNK        -0.1800 
     72 C          -2.1087  -26.2412  -45.4182 C.2       12 UNK         0.5000 
     73 O          -3.1044  -26.7397  -45.9401 O.2       12 UNK        -0.5000 
     74 N          -0.9168  -26.8471  -45.3580 N.am      13 UNK        -0.5000 
     75 CA         -0.6375  -28.1517  -45.9592 C.3       13 UNK         0.1400 
     76 CB          0.5080  -28.8222  -45.1852 C.3       13 UNK        -0.1800 
     77 C          -0.2804  -28.0424  -47.4535 C.2       13 UNK         0.5000 
     78 O          -0.5404  -28.9791  -48.2090 O.2       13 UNK        -0.5000 
     79 N           0.3330  -26.9174  -47.8453 N.am      14 UNK        -0.5000 
     80 CA          0.8870  -26.7008  -49.1811 C.3       14 UNK         0.1400 
     81 CB          1.9776  -25.6213  -49.1032 C.3       14 UNK        -0.1800 
     82 C          -0.1692  -26.3105  -50.2278 C.2       14 UNK         0.5000 
     83 O          -0.0866  -26.7772  -51.3646 O.2       14 UNK        -0.5000 
     84 N          -1.1157  -25.4453  -49.8425 N.am      15 UNK        -0.5000 
     85 CA         -2.0713  -24.8118  -50.7535 C.3       15 UNK         0.1400 
     86 CB         -1.5400  -23.4202  -51.1423 C.3       15 UNK        -0.1800 
     87 C          -3.4813  -24.7269  -50.1477 C.2       15 UNK         0.5000 
     88 O          -4.2618  -23.8691  -50.5596 O.2       15 UNK        -0.5000 
     89 N          -3.7863  -25.5810  -49.1584 N.am      16 UNK        -0.5000 
     90 CA         -5.0708  -25.6597  -48.4438 C.3       16 UNK         0.1400 
     91 CB         -6.1799  -26.1740  -49.3862 C.3       16 UNK        -0.1800 
     92 C          -5.4650  -24.3447  -47.7299 C.2       16 UNK         0.5000 
     93 O          -6.6536  -24.0801  -47.5444 O.2       16 UNK        -0.5000 
     94 N          -4.4544  -23.5384  -47.3678 N.am      17 UNK        -0.5000 
     95 CA         -4.5390  -22.2015  -46.7695 C.3       17 UNK         0.1400 
     96 CB         -5.2594  -22.2380  -45.4031 C.3       17 UNK        -0.1800 
     97 C          -5.1278  -21.1243  -47.7062 C.2       17 UNK         0.5000 
     98 O          -5.5040  -20.0522  -47.2284 O.2       17 UNK        -0.5000 
     99 N          -5.1806  -21.3890  -49.0203 N.am      18 UNK        -0.5000 
    100 CA        -5.7159  -20.4840  -50.0400 C.3       18 UNK         0.1400 
    101 CB        -6.1617  -21.3109  -51.2592 C.3       18 UNK        -0.1800 
    102 C         -4.7119  -19.3722  -50.4100 C.2       18 UNK         0.5000 
    103 O         -4.2883  -19.2743  -51.5622 O.2       18 UNK        -0.5000 
    104 N         -4.3391  -18.5542  -49.4168 N.am      19 UNK        -0.5000 
    105 CA        -3.4656  -17.3887  -49.5582 C.3       19 UNK         0.1400 
    106 CB        -3.2135  -16.7785  -48.1721 C.3       19 UNK        -0.1800 
    107 C         -4.0414  -16.3447  -50.5340 C.2       19 UNK         0.5000 
    108 O         -5.2631  -16.2101  -50.6390 O.2       19 UNK        -0.5000 
    109 N         -3.1475  -15.6609  -51.2599 N.am      20 UNK        -0.5000 
    110 CA        -3.3800  -14.7296  -52.3754 C.3       20 UNK         0.1400 
    111 CB        -4.2303  -13.5241  -51.9348 C.3       20 UNK        -0.1800 
    112 C         -3.9745  -15.3753  -53.6473 C.2       20 UNK         0.5000 
    113 O         -3.5737  -15.0070  -54.7527 O.2       20 UNK        -0.5000 
    114 N         -4.8958  -16.3341  -53.4820 N.am      21 UNK        -0.5000 
    115 CA        -5.6384  -17.0313  -54.5369 C.3       21 UNK         0.1400 
    116 CB        -6.6988  -17.9324  -53.8869 C.3       21 UNK        -0.1800 
    117 C         -4.7676  -17.8382  -55.5211 C.2       21 UNK         0.5000 
    118 O         -5.2257  -18.1253  -56.6282 O.2       21 UNK        -0.5000 
    119 N         -3.5296  -18.1608  -55.1250 N.am      22 UNK        -0.5000 
    120 CA        -2.4882  -18.7247  -56.0005 C.3       22 UNK         0.1400 
    121 C         -2.0277  -17.7703  -57.1454 C.2       22 UNK         0.5000 
    122 N         -2.2610  -16.4640  -57.0644 N.am      22 UNK        -0.7600 
    123 O         -1.4460  -18.2267  -58.1258 O.2       22 UNK        -0.5000 
    124 C124       -1.2489  -19.2042  -55.2031 C.3       23 UNK        -0.0398 
    125 S125       -1.6330  -20.4062  -53.8826 S.3       23 UNK        -0.2404 
    126 C126       -1.1495  -19.4867  -52.3862 C.3       23 UNK        -0.0205 
    127 H127       -0.3000  -18.4378  -49.4449 H         1 UNK         0.0600 
    128 H128       -0.1169  -17.3562  -48.0683 H         1 UNK         0.0600 
    129 H129        1.3078  -18.0958  -48.8044 H         1 UNK         0.0600 
    130 H130        2.3382  -16.9551  -50.4601 H         1 UNK         0.3000 
    131 H131        1.0909  -15.1845  -52.2788 H         1 UNK         0.0600 
    132 H132        3.6480  -14.4432  -52.6093 H         1 UNK         0.0800 
    133 H133        3.9999  -15.7849  -51.5656 H         1 UNK         0.0800 
    134 H134        4.5728  -17.9265  -52.5044 H         1 UNK         0.0800 
    135 H135        4.0241  -18.6476  -53.9943 H         1 UNK         0.0800 
    136 H136        0.9523  -18.1182  -53.4748 H         1 UNK         0.1150 
    137 H137        0.0416  -21.1379  -50.5903 H         1 UNK         0.1150 
    138 H138        4.0929  -19.8763  -51.1541 H         1 UNK         0.1150 
    139 H139        2.1249  -22.5743  -49.8656 H         1 UNK         0.0800 
    140 H140        3.6505  -21.7458  -49.7547 H         1 UNK         0.0800 
    141 H141        0.2094  -22.2620  -48.5890 H         1 UNK         0.0800 
    142 H142       -0.1661  -20.9873  -47.4609 H         1 UNK         0.0800 
    143 H143        1.4256  -23.4994  -46.7658 H         1 UNK         0.0600 
    144 H144        0.7127  -21.1660  -45.1509 H         1 UNK         0.3000 
    145 H145        2.4444  -22.4203  -42.2736 H         1 UNK         0.0600 
    146 H146        3.4010  -20.1410  -42.4917 H         1 UNK         0.0600 
    147 H147        4.0825  -21.2107  -43.7081 H         1 UNK         0.0600 
    148 H148        2.8507  -20.0414  -44.1630 H         1 UNK         0.0600 
    149 H149        0.8417  -20.0919  -42.6688 H         1 UNK         0.3000 
    150 H150       -2.2717  -21.5595  -41.6292 H         1 UNK         0.0600 
    151 H151       -1.0393  -20.9776  -39.5391 H         1 UNK         0.0600 
    152 H152       -2.1383  -19.6904  -40.0113 H         1 UNK         0.0600 
    153 H153       -0.4082  -19.5227  -40.3003 H         1 UNK         0.0600 
    154 H154       -1.6423  -18.8956  -42.3831 H         1 UNK         0.3000 
    155 H155       -2.2524  -19.2947  -45.9093 H         1 UNK         0.0600 
    156 H156       -3.7333  -17.8928  -43.6201 H         1 UNK         0.0600 
    157 H157       -4.4461  -18.8795  -44.8853 H         1 UNK         0.0600 
    158 H158       -3.7205  -17.3309  -45.2866 H         1 UNK         0.0600 
    159 H159       -1.4247  -17.0109  -44.4603 H         1 UNK         0.3000 
    160 H160        2.1109  -17.6358  -44.4875 H         1 UNK         0.0600 
    161 H161        0.3301  -15.6323  -45.9741 H         1 UNK         0.0600 
    162 H162        1.6840  -16.5466  -46.6281 H         1 UNK         0.0600 
    163 H163        1.9737  -15.3107  -45.4183 H         1 UNK         0.0600 
    164 H164        0.3669  -15.5884  -43.4077 H         1 UNK         0.3000 
    165 H165        0.1450  -16.9920  -40.1434 H         1 UNK         0.0600 
    166 H166        1.1588  -14.8169  -39.5148 H         1 UNK         0.0600 
    167 H167        2.3887  -15.8910  -40.1614 H         1 UNK         0.0600 
    168 H168        1.7564  -14.5862  -41.1584 H         1 UNK         0.0600 
    169 H169       -0.7140  -14.5037  -41.2780 H         1 UNK         0.3000 
    170 H170       -3.8022  -15.6260  -42.6243 H         1 UNK         0.0600 
    171 H171       -4.3120  -15.3732  -40.1913 H         1 UNK         0.0600 
    172 H172       -3.2663  -13.9606  -40.1052 H         1 UNK         0.0600 
    173 H173       -4.7331  -13.9211  -41.0845 H         1 UNK         0.0600 
    174 H174       -2.6909  -13.0245  -42.3357 H         1 UNK         0.3000 
    175 H175       -2.0409  -11.9209  -44.2767 H         1 UNK         0.0600 
    176 H176        0.7010  -13.3055  -44.1116 H         1 UNK         0.0600 
    177 H177        0.4349  -11.5720  -44.2768 H         1 UNK         0.0600 
    178 H178       -0.0650  -12.3987  -42.8121 H         1 UNK         0.0600 
    179 H179       -0.2967  -13.0335  -46.3114 H         1 UNK         0.3000 
    180 H180       -2.2997  -13.6552  -48.7441 H         1 UNK         0.0600 
    181 H181       -2.0218  -10.6077  -48.7718 H         1 UNK         0.0600 
    182 H182       -3.4599  -11.5434  -49.1345 H         1 UNK         0.0600 
    183 H183       -2.0745  -11.6189  -50.2139 H         1 UNK         0.0600 
    184 H184       -0.1348  -13.8334  -49.0300 H         1 UNK         0.3000 
    185 H185        2.5267  -11.7058  -49.3057 H         1 UNK         0.0600 
    186 H186        2.8871  -11.8317  -46.8476 H         1 UNK         0.0600 
    187 H187        2.4333  -13.5296  -46.8455 H         1 UNK         0.0600 
    188 H188        3.8952  -13.0040  -47.6791 H         1 UNK         0.0600 
    189 H189        2.3449  -14.5912  -49.0689 H         1 UNK         0.3000 
    190 H190       -0.4867  -23.6613  -44.3493 H         1 UNK         0.3000 
    191 H191       -3.0594  -24.3404  -45.2700 H         1 UNK         0.0600 
    192 H192       -1.5484  -25.2841  -42.7883 H         1 UNK         0.0600 
    193 H193       -3.2757  -25.4931  -43.0596 H         1 UNK         0.0600 
    194 H194       -2.6063  -23.8772  -42.9129 H         1 UNK         0.0600 
    195 H195       -0.1529  -26.3762  -44.8950 H         1 UNK         0.3000 
    196 H196       -1.5203  -28.7891  -45.8722 H         1 UNK         0.0600 
    197 H197        0.7312  -29.8084  -45.5945 H         1 UNK         0.0600 
    198 H198        0.2466  -28.9590  -44.1357 H         1 UNK         0.0600 
    199 H199        1.4251  -28.2332  -45.2289 H         1 UNK         0.0600 
    200 H200        0.4908  -26.1953  -47.1611 H         1 UNK         0.3000 
    201 H201        1.3593  -27.6277  -49.5145 H         1 UNK         0.0600 
    202 H202        2.7594  -25.8961  -48.3949 H         1 UNK         0.0600 
    203 H203        1.5675  -24.6597  -48.7979 H         1 UNK         0.0600 
    204 H204        2.4545  -25.4784  -50.0738 H         1 UNK         0.0600 
    205 H205       -1.1130  -25.0885  -48.8899 H         1 UNK         0.3000 
    206 H206       -2.1751  -25.4058  -51.6634 H         1 UNK         0.0600 
    207 H207       -0.5259  -23.4745  -51.5386 H         1 UNK         0.0600 
    208 H208       -2.1616  -22.9586  -51.9107 H         1 UNK         0.0600 
    209 H209       -1.5347  -22.7518  -50.2814 H         1 UNK         0.0600 
    210 H210       -3.0791  -26.2404  -48.8655 H         1 UNK         0.3000 
    211 H211       -4.9487  -26.4063  -47.6603 H         1 UNK         0.0600 
    212 H212       -6.4245  -25.4462  -50.1605 H         1 UNK         0.0600 
    213 H213       -7.0970  -26.3837  -48.8346 H         1 UNK         0.0600 
    214 H214       -5.8815  -27.0998  -49.8779 H         1 UNK         0.0600 
    215 H215       -3.5148  -23.8515  -47.5812 H         1 UNK         0.3000 
    216 H216       -3.5067  -21.9003  -46.5923 H         1 UNK         0.0600 
    217 H217       -5.1590  -21.2842  -44.8846 H         1 UNK         0.0600 
    218 H218       -4.8415  -22.9990  -44.7460 H         1 UNK         0.0600 
    219 H219       -6.3260  -22.4352  -45.5095 H         1 UNK         0.0600 
    220 H220       -4.8368  -22.2813  -49.3601 H         1 UNK         0.3000 
    221 H221       -6.6056  -19.9945  -49.6383 H         1 UNK         0.0600 
    222 H222       -5.3130  -21.7640  -51.7725 H         1 UNK         0.0600 
    223 H223       -6.8426  -22.1110  -50.9680 H         1 UNK         0.0600 
    224 H224       -6.6857  -20.6868  -51.9830 H         1 UNK         0.0600 
    225 H225       -4.7430  -18.7210  -48.5012 H         1 UNK         0.3000 
    226 H226       -2.5174  -17.7450  -49.9621 H         1 UNK         0.0600 
    227 H227       -2.7398  -17.5016  -47.5100 H         1 UNK         0.0600 
    228 H228       -2.5447  -15.9210  -48.2330 H         1 UNK         0.0600 
    229 H229       -4.1395  -16.4429  -47.7038 H         1 UNK         0.0600 
    230 H230       -2.1658  -15.7985  -51.0287 H         1 UNK         0.3000 
    231 H231       -2.3925  -14.3527  -52.6467 H         1 UNK         0.0600 
    232 H232       -3.8361  -13.0755  -51.0258 H         1 UNK         0.0600 
    233 H233       -5.2674  -13.8019  -51.7451 H         1 UNK         0.0600 
    234 H234       -4.2374  -12.7524  -52.7054 H         1 UNK         0.0600 
    235 H235       -5.1634  -16.5498  -52.5262 H         1 UNK         0.3000 
    236 H236       -6.1554  -16.2686  -55.1223 H         1 UNK         0.0600 
    237 H237       -7.3209  -18.4138  -54.6425 H         1 UNK         0.0600 
    238 H238       -6.2392  -18.7201  -53.2914 H         1 UNK         0.0600 
    239 H239       -7.3608  -17.3610  -53.2360 H         1 UNK         0.0600 
    240 H240       -3.2553  -17.9310  -54.1820 H         1 UNK         0.3000 
    241 H241       -2.9238  -19.5989  -56.4879 H         1 UNK         0.0600 
    242 H242       -1.9590  -15.8624  -57.8141 H         1 UNK         0.3800 
    243 H243       -2.7376  -16.0617  -56.2641 H         1 UNK         0.3800 
    244 H244       -0.5269  -19.6783  -55.8704 H         1 UNK         0.0800 
    245 H245       -0.7434  -18.3378  -54.7804 H         1 UNK         0.0800 
    246 H246       -1.4284  -18.4361  -52.4773 H         1 UNK         0.0800 
    247 H247       -1.7299  -19.8767  -51.5495 H         1 UNK         0.0800 
@<TRIPOS>BOND
     1    1    2 1    
     2    1  127 1    
     3    1  128 1    
     4    1  129 1    
     5    2    3 2    
     6    2    4 am   BACKBONE|DICT|INTERRES
     7    4    5 1    
     8    4  130 1    
     9    5    6 1    
    10    5   65 1    
    11    5  131 1    
    12    6    7 1    
    13    6  132 1    
    14    6  133 1    
    15    7    8 1    
    16    8    9 1    
    17    8  134 1    
    18    8  135 1    
    19    9   10 ar   
    20    9   14 ar   
    21   10   11 ar   
    22   10  136 1    
    23   11   12 ar   
    24   11  126 1    
    25   12   13 ar   
    26   12  137 1    
    27   13   14 ar   
    28   13   15 1    
    29   14  138 1    
    30   15   16 1    
    31   15  139 1    
    32   15  140 1    
    33   16   17 1    
    34   17   18 1    
    35   17  141 1    
    36   17  142 1    
    37   18   19 1    
    38   18   67 1    
    39   18  143 1    
    40   19   20 am   BACKBONE|DICT|INTERRES
    41   19  144 1    
    42   20   21 2    
    43   20   22 1    
    44   22   23 1    
    45   22   24 1    
    46   22  145 1    
    47   23  146 1    
    48   23  147 1    
    49   23  148 1    
    50   24   25 am   BACKBONE|DICT|INTERRES
    51   24  149 1    
    52   25   26 2    
    53   25   27 1    
    54   27   28 1    
    55   27   29 1    
    56   27  150 1    
    57   28  151 1    
    58   28  152 1    
    59   28  153 1    
    60   29   30 am   BACKBONE|DICT|INTERRES
    61   29  154 1    
    62   30   31 2    
    63   30   32 1    
    64   32   33 1    
    65   32   34 1    
    66   32  155 1    
    67   33  156 1    
    68   33  157 1    
    69   33  158 1    
    70   34   35 am   BACKBONE|DICT|INTERRES
    71   34  159 1    
    72   35   36 2    
    73   35   37 1    
    74   37   38 1    
    75   37   39 1    
    76   37  160 1    
    77   38  161 1    
    78   38  162 1    
    79   38  163 1    
    80   39   40 am   BACKBONE|DICT|INTERRES
    81   39  164 1    
    82   40   41 2    
    83   40   42 1    
    84   42   43 1    
    85   42   44 1    
    86   42  165 1    
    87   43  166 1    
    88   43  167 1    
    89   43  168 1    
    90   44   45 am   BACKBONE|DICT|INTERRES
    91   44  169 1    
    92   45   46 2    
    93   45   47 1    
    94   47   48 1    
    95   47   49 1    
    96   47  170 1    
    97   48  171 1    
    98   48  172 1    
    99   48  173 1    
   100   49   50 am   BACKBONE|DICT|INTERRES
   101   49  174 1    
   102   50   51 2    
   103   50   52 1    
   104   52   53 1    
   105   52   54 1    
   106   52  175 1    
   107   53  176 1    
   108   53  177 1    
   109   53  178 1    
   110   54   55 am   BACKBONE|DICT|INTERRES
   111   54  179 1    
   112   55   56 2    
   113   55   57 1    
   114   57   58 1    
   115   57   59 1    
   116   57  180 1    
   117   58  181 1    
   118   58  182 1    
   119   58  183 1    
   120   59   60 am   BACKBONE|DICT|INTERRES
   121   59  184 1    
   122   60   61 2    
   123   60   62 1    
   124   62   63 1    
   125   62   64 1    
   126   62  185 1    
   127   63  186 1    
   128   63  187 1    
   129   63  188 1    
   130   64   65 am   BACKBONE|DICT|INTERRES
   131   64  189 1    
   132   65   66 2    
   133   67   68 2    
   134   67   69 am   BACKBONE|DICT|INTERRES
   135   69   70 1    
   136   69  190 1    
   137   70   71 1    
   138   70   72 1    
   139   70  191 1    
   140   71  192 1    
   141   71  193 1    
   142   71  194 1    
   143   72   73 2    
   144   72   74 am   BACKBONE|DICT|INTERRES
   145   74   75 1    
   146   74  195 1    
   147   75   76 1    
   148   75   77 1    
   149   75  196 1    
   150   76  197 1    
   151   76  198 1    
   152   76  199 1    
   153   77   78 2    
   154   77   79 am   BACKBONE|DICT|INTERRES
   155   79   80 1    
   156   79  200 1    
   157   80   81 1    
   158   80   82 1    
   159   80  201 1    
   160   81  202 1    
   161   81  203 1    
   162   81  204 1    
   163   82   83 2    
   164   82   84 am   BACKBONE|DICT|INTERRES
   165   84   85 1    
   166   84  205 1    
   167   85   86 1    
   168   85   87 1    
   169   85  206 1    
   170   86  207 1    
   171   86  208 1    
   172   86  209 1    
   173   87   88 2    
   174   87   89 am   BACKBONE|DICT|INTERRES
   175   89   90 1    
   176   89  210 1    
   177   90   91 1    
   178   90   92 1    
   179   90  211 1    
   180   91  212 1    
   181   91  213 1    
   182   91  214 1    
   183   92   93 2    
   184   92   94 am   BACKBONE|DICT|INTERRES
   185   94   95 1    
   186   94  215 1    
   187   95   96 1    
   188   95   97 1    
   189   95  216 1    
   190   96  217 1    
   191   96  218 1    
   192   96  219 1    
   193   97   98 2    
   194   97   99 am   BACKBONE|DICT|INTERRES
   195   99  100 1    
   196   99  220 1    
   197  100  101 1    
   198  100  102 1    
   199  100  221 1    
   200  101  222 1    
   201  101  223 1    
   202  101  224 1    
   203  102  103 2    
   204  102  104 am   BACKBONE|DICT|INTERRES
   205  104  105 1    
   206  104  225 1    
   207  105  106 1    
   208  105  107 1    
   209  105  226 1    
   210  106  227 1    
   211  106  228 1    
   212  106  229 1    
   213  107  108 2    
   214  107  109 am   BACKBONE|DICT|INTERRES
   215  109  110 1    
   216  109  230 1    
   217  110  111 1    
   218  110  112 1    
   219  110  231 1    
   220  111  232 1    
   221  111  233 1    
   222  111  234 1    
   223  112  113 2    
   224  112  114 am   BACKBONE|DICT|INTERRES
   225  114  115 1    
   226  114  235 1    
   227  115  116 1    
   228  115  117 1    
   229  115  236 1    
   230  116  237 1    
   231  116  238 1    
   232  116  239 1    
   233  117  118 2    
   234  117  119 am   BACKBONE|DICT|INTERRES
   235  119  120 1    
   236  119  240 1    
   237  120  121 1    
   238  120  124 1    
   239  120  241 1    
   240  121  122 am   BACKBONE|DICT|INTERRES
   241  121  123 2    
   242  122  242 1    
   243  122  243 1    
   244  124  125 1    
   245  124  244 1    
   246  124  245 1    
   247  125  126 1    
   248  126  246 1    
   249  126  247 1    
@<TRIPOS>SUBSTRUCTURE
     1 UNK         1 GROUP             0       ****    0 ROOT    
