@<TRIPOS>MOLECULE
3R540
247   249    1
SMALL
USER_CHARGES


@<TRIPOS>ATOM
      1 CA          2.1248  -20.5533  -45.6483 C.3       0 UNK        -0.1800 
      2 C           2.7502  -19.3451  -46.3311 C.2       0 UNK         0.5000 
      3 O           3.8693  -19.4377  -46.8323 O.2       0 UNK        -0.5000 
      4 N           2.0434  -18.2089  -46.3204 N.am      1 UNK        -0.5000 
      5 CA          2.3965  -16.8975  -46.8884 C.3       1 UNK         0.1400 
      6 C6          2.7690  -16.9152  -48.3944 C.3       23 UNK        -0.0398 
      7 S7          1.3767  -17.4652  -49.4294 S.3       23 UNK        -0.2404 
      8 C8          0.7620  -15.8683  -50.0435 C.3       23 UNK        -0.0205 
      9 C9         -0.5821  -16.0379  -50.7283 C.ar      23 UNK        -0.0193 
     10 C10        -0.6464  -16.4605  -52.0583 C.ar      23 UNK        -0.1150 
     11 C11        -1.8817  -16.6463  -52.6841 C.ar      23 UNK        -0.0193 
     12 C12        -3.0569  -16.4081  -51.9657 C.ar      23 UNK        -0.1150 
     13 C13        -3.0086  -15.9953  -50.6297 C.ar      23 UNK        -0.0193 
     14 C14        -1.7636  -15.7894  -50.0257 C.ar      23 UNK        -0.1150 
     15 C15        -4.3115  -15.7878  -49.8582 C.3       23 UNK        -0.0205 
     16 S16        -4.2872  -16.3847  -48.1271 S.3       23 UNK        -0.2404 
     17 C17        -3.6323  -18.0818  -48.2879 C.3       23 UNK        -0.0398 
     18 CA         -2.3490  -18.2767  -47.4235 C.3       11 UNK         0.1400 
     19 N          -2.6271  -18.2811  -45.9829 N.am      11 UNK        -0.5000 
     20 C          -3.3895  -19.1654  -45.3239 C.2       10 UNK         0.5000 
     21 O          -3.9919  -20.0919  -45.8659 O.2       10 UNK        -0.5000 
     22 CA         -3.5059  -19.0008  -43.7972 C.3       10 UNK         0.1400 
     23 CB         -2.5860  -20.0059  -43.0869 C.3       10 UNK        -0.1800 
     24 N          -3.2099  -17.6465  -43.3231 N.am      10 UNK        -0.5000 
     25 C          -3.9955  -16.5786  -43.5230 C.2       9 UNK         0.5000 
     26 O          -5.0805  -16.6291  -44.1033 O.2       9 UNK        -0.5000 
     27 CA         -3.4885  -15.2244  -42.9893 C.3       9 UNK         0.1400 
     28 CB         -3.9147  -15.0275  -41.5266 C.3       9 UNK        -0.1800 
     29 N          -2.0373  -15.0645  -43.0948 N.am      9 UNK        -0.5000 
     30 C          -1.3614  -14.9570  -44.2475 C.2       8 UNK         0.5000 
     31 O          -1.8920  -14.9515  -45.3578 O.2       8 UNK        -0.5000 
     32 CA          0.1742  -14.8998  -44.1444 C.3       8 UNK         0.1400 
     33 CB          0.6614  -13.4959  -43.7584 C.3       8 UNK        -0.1800 
     34 N           0.7083  -15.8874  -43.2061 N.am      8 UNK        -0.5000 
     35 C           0.5715  -17.2138  -43.3430 C.2       7 UNK         0.5000 
     36 O           0.0492  -17.7499  -44.3207 O.2       7 UNK        -0.5000 
     37 CA          1.0662  -18.0838  -42.1761 C.3       7 UNK         0.1400 
     38 CB          2.5772  -18.3397  -42.2821 C.3       7 UNK        -0.1800 
     39 N           0.7487  -17.4843  -40.8787 N.am      7 UNK        -0.5000 
     40 C          -0.4925  -17.3849  -40.3796 C.2       6 UNK         0.5000 
     41 O          -1.4912  -17.8225  -40.9466 O.2       6 UNK        -0.5000 
     42 CA         -0.6527  -16.6307  -39.0472 C.3       6 UNK         0.1400 
     43 CB         -0.3553  -17.5590  -37.8603 C.3       6 UNK        -0.1800 
     44 N           0.2064  -15.4503  -38.9664 N.am      6 UNK        -0.5000 
     45 C           0.0950  -14.3699  -39.7530 C.2       5 UNK         0.5000 
     46 O          -0.7952  -14.2228  -40.5892 O.2       5 UNK        -0.5000 
     47 CA          1.2037  -13.3073  -39.6223 C.3       5 UNK         0.1400 
     48 CB          0.8323  -12.2660  -38.5567 C.3       5 UNK        -0.1800 
     49 N           2.5085  -13.8937  -39.2990 N.am      5 UNK        -0.5000 
     50 C           3.1759  -14.7344  -40.1001 C.2       4 UNK         0.5000 
     51 O           2.7840  -15.0641  -41.2224 O.2       4 UNK        -0.5000 
     52 CA          4.4334  -15.3863  -39.5013 C.3       4 UNK         0.1400 
     53 CB          4.0440  -16.6380  -38.6979 C.3       4 UNK        -0.1800 
     54 N           5.3955  -15.7760  -40.5294 N.am      4 UNK        -0.5000 
     55 C           6.1722  -14.9235  -41.2094 C.2       3 UNK         0.5000 
     56 O           6.1616  -13.7044  -41.0357 O.2       3 UNK        -0.5000 
     57 CA          7.1384  -15.5272  -42.2459 C.3       3 UNK         0.1400 
     58 CB          8.5690  -15.5451  -41.6851 C.3       3 UNK        -0.1800 
     59 N           6.7742  -16.8983  -42.6274 N.am      3 UNK        -0.5000 
     60 C           6.0179  -17.2915  -43.6624 C.2       2 UNK         0.5000 
     61 O           5.7400  -18.4798  -43.8311 O.2       2 UNK        -0.5000 
     62 CA          5.5117  -16.2569  -44.6856 C.3       2 UNK         0.1400 
     63 CB          6.6206  -15.8834  -45.6915 C.3       2 UNK        -0.1800 
     64 N           4.3874  -16.8220  -45.4230 N.am      2 UNK        -0.5000 
     65 C           3.4546  -16.1226  -46.0748 C.2       1 UNK         0.5000 
     66 O           3.4015  -14.8925  -46.0574 O.2       1 UNK        -0.5000 
     67 C          -1.4817  -19.4895  -47.8440 C.2       11 UNK         0.5000 
     68 O          -0.9158  -20.1759  -46.9897 O.2       11 UNK        -0.5000 
     69 N          -1.3234  -19.6921  -49.1583 N.am      12 UNK        -0.5000 
     70 CA         -0.4772  -20.7179  -49.7608 C.3       12 UNK         0.1400 
     71 CB         -0.3957  -20.4573  -51.2713 C.3       12 UNK        -0.1800 
     72 C          -0.9882  -22.1391  -49.4682 C.2       12 UNK         0.5000 
     73 O          -1.9109  -22.6121  -50.1369 O.2       12 UNK        -0.5000 
     74 N          -0.3740  -22.8015  -48.4800 N.am      13 UNK        -0.5000 
     75 CA         -0.6860  -24.1666  -48.0468 C.3       13 UNK         0.1400 
     76 CB          0.1808  -24.5192  -46.8294 C.3       13 UNK        -0.1800 
     77 C          -0.5122  -25.2155  -49.1621 C.2       13 UNK         0.5000 
     78 O          -1.3081  -26.1505  -49.2471 O.2       13 UNK        -0.5000 
     79 N           0.4799  -24.9989  -50.0378 N.am      14 UNK        -0.5000 
     80 CA          0.7486  -25.8050  -51.2327 C.3       14 UNK         0.1400 
     81 CB          2.0988  -25.3748  -51.8258 C.3       14 UNK        -0.1800 
     82 C          -0.3599  -25.7183  -52.3033 C.2       14 UNK         0.5000 
     83 O          -0.4809  -26.6298  -53.1217 O.2       14 UNK        -0.5000 
     84 N          -1.1581  -24.6433  -52.2630 N.am      15 UNK        -0.5000 
     85 CA         -2.3290  -24.4128  -53.1084 C.3       15 UNK         0.1400 
     86 CB         -2.2635  -22.9731  -53.6447 C.3       15 UNK        -0.1800 
     87 C          -3.6378  -24.6828  -52.3365 C.2       15 UNK         0.5000 
     88 O          -4.6862  -24.1609  -52.7217 O.2       15 UNK        -0.5000 
     89 N          -3.5496  -25.4743  -51.2543 N.am      16 UNK        -0.5000 
     90 CA         -4.6266  -25.8809  -50.3480 C.3       16 UNK         0.1400 
     91 CB         -5.6475  -26.7757  -51.0819 C.3       16 UNK        -0.1800 
     92 C          -5.2677  -24.6767  -49.6329 C.2       16 UNK         0.5000 
     93 O          -6.4844  -24.5034  -49.6828 O.2       16 UNK        -0.5000 
     94 N          -4.4180  -23.8384  -49.0197 N.am      17 UNK        -0.5000 
     95 CA         -4.7527  -22.5533  -48.3862 C.3       17 UNK         0.1400 
     96 CB         -5.6950  -22.7538  -47.1798 C.3       17 UNK        -0.1800 
     97 C          -5.2856  -21.5368  -49.4186 C.2       17 UNK         0.5000 
     98 O          -6.2211  -20.7860  -49.1395 O.2       17 UNK        -0.5000 
     99 N          -4.6834  -21.5772  -50.6157 N.am      18 UNK        -0.5000 
    100 CA        -5.0488  -20.8534  -51.8342 C.3       18 UNK         0.1400 
    101 CB        -4.7541  -19.3503  -51.6946 C.3       18 UNK        -0.1800 
    102 C         -6.4693  -21.1486  -52.3633 C.2       18 UNK         0.5000 
    103 O         -7.0113  -20.3409  -53.1187 O.2       18 UNK        -0.5000 
    104 N         -7.0328  -22.3223  -52.0373 N.am      19 UNK        -0.5000 
    105 CA        -8.2848  -22.8202  -52.6198 C.3       19 UNK         0.1400 
    106 CB        -8.7775  -24.0465  -51.8407 C.3       19 UNK        -0.1800 
    107 C         -8.1476  -23.1500  -54.1196 C.2       19 UNK         0.5000 
    108 O         -9.1236  -23.0266  -54.8597 O.2       19 UNK        -0.5000 
    109 N         -6.9279  -23.5047  -54.5505 N.am      20 UNK        -0.5000 
    110 CA        -6.5435  -23.6630  -55.9553 C.3       20 UNK         0.1400 
    111 CB        -5.3610  -24.6435  -56.0319 C.3       20 UNK        -0.1800 
    112 C         -6.1991  -22.3210  -56.6439 C.2       20 UNK         0.5000 
    113 O         -5.7290  -22.3331  -57.7832 O.2       20 UNK        -0.5000 
    114 N         -6.3872  -21.1914  -55.9391 N.am      21 UNK        -0.5000 
    115 CA        -6.1408  -19.8055  -56.3646 C.3       21 UNK         0.1400 
    116 CB        -7.1112  -19.4095  -57.4964 C.3       21 UNK        -0.1800 
    117 C         -4.6679  -19.5094  -56.7203 C.2       21 UNK         0.5000 
    118 O         -4.3924  -18.5440  -57.4345 O.2       21 UNK        -0.5000 
    119 N         -3.7552  -20.3571  -56.2266 N.am      22 UNK        -0.5000 
    120 CA        -2.3207  -20.3855  -56.5564 C.3       22 UNK         0.1400 
    121 C         -2.0175  -20.7513  -58.0436 C.2       22 UNK         0.5000 
    122 N         -2.9358  -21.3822  -58.7690 N.am      22 UNK        -0.7600 
    123 O         -0.9262  -20.4924  -58.5439 O.2       22 UNK        -0.5000 
    124 C124       -1.5511  -19.1297  -56.0599 C.3       23 UNK        -0.0398 
    125 S125       -1.6948  -18.9065  -54.2535 S.3       23 UNK        -0.2404 
    126 C126       -1.9393  -17.1097  -54.1320 C.3       23 UNK        -0.0205 
    127 H127        1.1886  -20.2967  -45.1510 H         1 UNK         0.0600 
    128 H128        2.8061  -20.9574  -44.8996 H         1 UNK         0.0600 
    129 H129        1.9176  -21.3327  -46.3810 H         1 UNK         0.0600 
    130 H130        1.1579  -18.2115  -45.8202 H         1 UNK         0.3000 
    131 H131        1.4815  -16.3116  -46.8047 H         1 UNK         0.0600 
    132 H132        3.6232  -17.5656  -48.5835 H         1 UNK         0.0800 
    133 H133        3.0779  -15.9231  -48.7296 H         1 UNK         0.0800 
    134 H134        1.4855  -15.4410  -50.7395 H         1 UNK         0.0800 
    135 H135        0.6739  -15.1652  -49.2135 H         1 UNK         0.0800 
    136 H136        0.2660  -16.6593  -52.6031 H         1 UNK         0.1150 
    137 H137       -4.0130  -16.5574  -52.4469 H         1 UNK         0.1150 
    138 H138       -1.7134  -15.4568  -48.9985 H         1 UNK         0.1150 
    139 H139       -4.5491  -14.7235  -49.8571 H         1 UNK         0.0800 
    140 H140       -5.1354  -16.2859  -50.3718 H         1 UNK         0.0800 
    141 H141       -3.4436  -18.2707  -49.3409 H         1 UNK         0.0800 
    142 H142       -4.4168  -18.7862  -48.0125 H         1 UNK         0.0800 
    143 H143       -1.6995  -17.4155  -47.5848 H         1 UNK         0.0600 
    144 H144       -2.1283  -17.5920  -45.4365 H         1 UNK         0.3000 
    145 H145       -4.5365  -19.2358  -43.5233 H         1 UNK         0.0600 
    146 H146       -2.7261  -19.9766  -42.0066 H         1 UNK         0.0600 
    147 H147       -2.7956  -21.0258  -43.4120 H         1 UNK         0.0600 
    148 H148       -1.5357  -19.8056  -43.2989 H         1 UNK         0.0600 
    149 H149       -2.3724  -17.5388  -42.7613 H         1 UNK         0.3000 
    150 H150       -3.9555  -14.4390  -43.5872 H         1 UNK         0.0600 
    151 H151       -4.9962  -15.1172  -41.4183 H         1 UNK         0.0600 
    152 H152       -3.6319  -14.0394  -41.1633 H         1 UNK         0.0600 
    153 H153       -3.4554  -15.7684  -40.8712 H         1 UNK         0.0600 
    154 H154       -1.5240  -15.0014  -42.2202 H         1 UNK         0.3000 
    155 H155        0.5764  -15.1267  -45.1307 H         1 UNK         0.0600 
    156 H156        0.2736  -13.1825  -42.7902 H         1 UNK         0.0600 
    157 H157        0.3384  -12.7582  -44.4938 H         1 UNK         0.0600 
    158 H158        1.7502  -13.4562  -43.7137 H         1 UNK         0.0600 
    159 H159        1.2097  -15.5317  -42.3986 H         1 UNK         0.3000 
    160 H160        0.5578  -19.0481  -42.2389 H         1 UNK         0.0600 
    161 H161        2.9288  -18.9771  -41.4709 H         1 UNK         0.0600 
    162 H162        3.1526  -17.4150  -42.2561 H         1 UNK         0.0600 
    163 H163        2.8215  -18.8437  -43.2174 H         1 UNK         0.0600 
    164 H164        1.5094  -17.0474  -40.3818 H         1 UNK         0.3000 
    165 H165       -1.6910  -16.3004  -38.9730 H         1 UNK         0.0600 
    166 H166       -0.5391  -17.0560  -36.9108 H         1 UNK         0.0600 
    167 H167       -0.9942  -18.4428  -37.8874 H         1 UNK         0.0600 
    168 H168        0.6802  -17.9020  -37.8642 H         1 UNK         0.0600 
    169 H169        0.9599  -15.4800  -38.2964 H         1 UNK         0.3000 
    170 H170        1.2917  -12.7974  -40.5836 H         1 UNK         0.0600 
    171 H171       -0.1269  -11.7994  -38.7857 H         1 UNK         0.0600 
    172 H172        0.7514  -12.7133  -37.5652 H         1 UNK         0.0600 
    173 H173        1.5755  -11.4700  -38.5071 H         1 UNK         0.0600 
    174 H174        2.8885  -13.6730  -38.3895 H         1 UNK         0.3000 
    175 H175        4.9126  -14.6719  -38.8283 H         1 UNK         0.0600 
    176 H176        3.5741  -17.3940  -39.3280 H         1 UNK         0.0600 
    177 H177        4.9181  -17.0913  -38.2298 H         1 UNK         0.0600 
    178 H178        3.3433  -16.3934  -37.8986 H         1 UNK         0.0600 
    179 H179        5.4384  -16.7565  -40.7617 H         1 UNK         0.3000 
    180 H180        7.1384  -14.8607  -43.1071 H         1 UNK         0.0600 
    181 H181        8.6481  -16.1763  -40.7991 H         1 UNK         0.0600 
    182 H182        8.8929  -14.5422  -41.4034 H         1 UNK         0.0600 
    183 H183        9.2772  -15.9166  -42.4261 H         1 UNK         0.0600 
    184 H184        7.1257  -17.6171  -42.0121 H         1 UNK         0.3000 
    185 H185        5.1665  -15.3705  -44.1504 H         1 UNK         0.0600 
    186 H186        6.8937  -16.7368  -46.3135 H         1 UNK         0.0600 
    187 H187        7.5310  -15.5455  -45.1977 H         1 UNK         0.0600 
    188 H188        6.2980  -15.0802  -46.3541 H         1 UNK         0.0600 
    189 H189        4.3762  -17.8358  -45.4732 H         1 UNK         0.3000 
    190 H190       -1.7713  -19.0654  -49.8093 H         1 UNK         0.3000 
    191 H191        0.5292  -20.6170  -49.3490 H         1 UNK         0.0600 
    192 H192        0.1779  -21.2337  -51.7792 H         1 UNK         0.0600 
    193 H193        0.0890  -19.5039  -51.4822 H         1 UNK         0.0600 
    194 H194       -1.3873  -20.4294  -51.7220 H         1 UNK         0.0600 
    195 H195        0.3226  -22.3100  -47.9388 H         1 UNK         0.3000 
    196 H196       -1.7316  -24.1844  -47.7344 H         1 UNK         0.0600 
    197 H197       -0.0452  -25.5227  -46.4661 H         1 UNK         0.0600 
    198 H198        0.0014  -23.8284  -46.0051 H         1 UNK         0.0600 
    199 H199        1.2445  -24.4875  -47.0684 H         1 UNK         0.0600 
    200 H200        1.0804  -24.2014  -49.8885 H         1 UNK         0.3000 
    201 H201        0.8250  -26.8498  -50.9245 H         1 UNK         0.0600 
    202 H202        2.0870  -24.3290  -52.1360 H         1 UNK         0.0600 
    203 H203        2.3502  -25.9741  -52.7019 H         1 UNK         0.0600 
    204 H204        2.9061  -25.5032  -51.1045 H         1 UNK         0.0600 
    205 H205       -1.0214  -23.9640  -51.5247 H         1 UNK         0.3000 
    206 H206       -2.3215  -25.0911  -53.9636 H         1 UNK         0.0600 
    207 H207       -1.3440  -22.8074  -54.2057 H         1 UNK         0.0600 
    208 H208       -3.0960  -22.7559  -54.3130 H         1 UNK         0.0600 
    209 H209       -2.2918  -22.2457  -52.8357 H         1 UNK         0.0600 
    210 H210       -2.6320  -25.8179  -51.0001 H         1 UNK         0.3000 
    211 H211       -4.1639  -26.4866  -49.5674 H         1 UNK         0.0600 
    212 H212       -5.1632  -27.6555  -51.5053 H         1 UNK         0.0600 
    213 H213       -6.1446  -26.2473  -51.8951 H         1 UNK         0.0600 
    214 H214       -6.4212  -27.1287  -50.3992 H         1 UNK         0.0600 
    215 H215       -3.4294  -24.0213  -49.1219 H         1 UNK         0.3000 
    216 H216       -3.8178  -22.1386  -48.0058 H         1 UNK         0.0600 
    217 H217       -5.8547  -21.8151  -46.6494 H         1 UNK         0.0600 
    218 H218       -5.2744  -23.4614  -46.4656 H         1 UNK         0.0600 
    219 H219       -6.6763  -23.1205  -47.4804 H         1 UNK         0.0600 
    220 H220       -3.8957  -22.2091  -50.7059 H         1 UNK         0.3000 
    221 H221       -4.3842  -21.2299  -52.6107 H         1 UNK         0.0600 
    222 H222       -5.3649  -18.8841  -50.9215 H         1 UNK         0.0600 
    223 H223       -3.7050  -19.1880  -51.4513 H         1 UNK         0.0600 
    224 H224       -4.9451  -18.8228  -52.6296 H         1 UNK         0.0600 
    225 H225       -6.5306  -22.9571  -51.4289 H         1 UNK         0.3000 
    226 H226       -9.0370  -22.0346  -52.5220 H         1 UNK         0.0600 
    227 H227       -9.7316  -24.4009  -52.2327 H         1 UNK         0.0600 
    228 H228       -8.0704  -24.8730  -51.9042 H         1 UNK         0.0600 
    229 H229       -8.9271  -23.8105  -50.7870 H         1 UNK         0.0600 
    230 H230       -6.1869  -23.6239  -53.8639 H         1 UNK         0.3000 
    231 H231       -7.3792  -24.1011  -56.5045 H         1 UNK         0.0600 
    232 H232       -5.5987  -25.5877  -55.5414 H         1 UNK         0.0600 
    233 H233       -4.4685  -24.2369  -55.5579 H         1 UNK         0.0600 
    234 H234       -5.1061  -24.8726  -57.0673 H         1 UNK         0.0600 
    235 H235       -6.7628  -21.2754  -55.0021 H         1 UNK         0.3000 
    236 H236       -6.3692  -19.1774  -55.5026 H         1 UNK         0.0600 
    237 H237       -8.1448  -19.6173  -57.2193 H         1 UNK         0.0600 
    238 H238       -7.0449  -18.3434  -57.7161 H         1 UNK         0.0600 
    239 H239       -6.8965  -19.9473  -58.4204 H         1 UNK         0.0600 
    240 H240       -4.0889  -21.1167  -55.6550 H         1 UNK         0.3000 
    241 H241       -1.9183  -21.2324  -56.0020 H         1 UNK         0.0600 
    242 H242       -3.8419  -21.6187  -58.3808 H         1 UNK         0.3800 
    243 H243       -2.7277  -21.6239  -59.7249 H         1 UNK         0.3800 
    244 H244       -0.4876  -19.2156  -56.2877 H         1 UNK         0.0800 
    245 H245       -1.9003  -18.2362  -56.5783 H         1 UNK         0.0800 
    246 H246       -1.1682  -16.5969  -54.7089 H         1 UNK         0.0800 
    247 H247       -2.8963  -16.8441  -54.5841 H         1 UNK         0.0800 
@<TRIPOS>BOND
     1    1    2 1    
     2    1  127 1    
     3    1  128 1    
     4    1  129 1    
     5    2    3 2    
     6    2    4 am   BACKBONE|DICT|INTERRES
     7    4    5 1    
     8    4  130 1    
     9    5    6 1    
    10    5   65 1    
    11    5  131 1    
    12    6    7 1    
    13    6  132 1    
    14    6  133 1    
    15    7    8 1    
    16    8    9 1    
    17    8  134 1    
    18    8  135 1    
    19    9   10 ar   
    20    9   14 ar   
    21   10   11 ar   
    22   10  136 1    
    23   11   12 ar   
    24   11  126 1    
    25   12   13 ar   
    26   12  137 1    
    27   13   14 ar   
    28   13   15 1    
    29   14  138 1    
    30   15   16 1    
    31   15  139 1    
    32   15  140 1    
    33   16   17 1    
    34   17   18 1    
    35   17  141 1    
    36   17  142 1    
    37   18   19 1    
    38   18   67 1    
    39   18  143 1    
    40   19   20 am   BACKBONE|DICT|INTERRES
    41   19  144 1    
    42   20   21 2    
    43   20   22 1    
    44   22   23 1    
    45   22   24 1    
    46   22  145 1    
    47   23  146 1    
    48   23  147 1    
    49   23  148 1    
    50   24   25 am   BACKBONE|DICT|INTERRES
    51   24  149 1    
    52   25   26 2    
    53   25   27 1    
    54   27   28 1    
    55   27   29 1    
    56   27  150 1    
    57   28  151 1    
    58   28  152 1    
    59   28  153 1    
    60   29   30 am   BACKBONE|DICT|INTERRES
    61   29  154 1    
    62   30   31 2    
    63   30   32 1    
    64   32   33 1    
    65   32   34 1    
    66   32  155 1    
    67   33  156 1    
    68   33  157 1    
    69   33  158 1    
    70   34   35 am   BACKBONE|DICT|INTERRES
    71   34  159 1    
    72   35   36 2    
    73   35   37 1    
    74   37   38 1    
    75   37   39 1    
    76   37  160 1    
    77   38  161 1    
    78   38  162 1    
    79   38  163 1    
    80   39   40 am   BACKBONE|DICT|INTERRES
    81   39  164 1    
    82   40   41 2    
    83   40   42 1    
    84   42   43 1    
    85   42   44 1    
    86   42  165 1    
    87   43  166 1    
    88   43  167 1    
    89   43  168 1    
    90   44   45 am   BACKBONE|DICT|INTERRES
    91   44  169 1    
    92   45   46 2    
    93   45   47 1    
    94   47   48 1    
    95   47   49 1    
    96   47  170 1    
    97   48  171 1    
    98   48  172 1    
    99   48  173 1    
   100   49   50 am   BACKBONE|DICT|INTERRES
   101   49  174 1    
   102   50   51 2    
   103   50   52 1    
   104   52   53 1    
   105   52   54 1    
   106   52  175 1    
   107   53  176 1    
   108   53  177 1    
   109   53  178 1    
   110   54   55 am   BACKBONE|DICT|INTERRES
   111   54  179 1    
   112   55   56 2    
   113   55   57 1    
   114   57   58 1    
   115   57   59 1    
   116   57  180 1    
   117   58  181 1    
   118   58  182 1    
   119   58  183 1    
   120   59   60 am   BACKBONE|DICT|INTERRES
   121   59  184 1    
   122   60   61 2    
   123   60   62 1    
   124   62   63 1    
   125   62   64 1    
   126   62  185 1    
   127   63  186 1    
   128   63  187 1    
   129   63  188 1    
   130   64   65 am   BACKBONE|DICT|INTERRES
   131   64  189 1    
   132   65   66 2    
   133   67   68 2    
   134   67   69 am   BACKBONE|DICT|INTERRES
   135   69   70 1    
   136   69  190 1    
   137   70   71 1    
   138   70   72 1    
   139   70  191 1    
   140   71  192 1    
   141   71  193 1    
   142   71  194 1    
   143   72   73 2    
   144   72   74 am   BACKBONE|DICT|INTERRES
   145   74   75 1    
   146   74  195 1    
   147   75   76 1    
   148   75   77 1    
   149   75  196 1    
   150   76  197 1    
   151   76  198 1    
   152   76  199 1    
   153   77   78 2    
   154   77   79 am   BACKBONE|DICT|INTERRES
   155   79   80 1    
   156   79  200 1    
   157   80   81 1    
   158   80   82 1    
   159   80  201 1    
   160   81  202 1    
   161   81  203 1    
   162   81  204 1    
   163   82   83 2    
   164   82   84 am   BACKBONE|DICT|INTERRES
   165   84   85 1    
   166   84  205 1    
   167   85   86 1    
   168   85   87 1    
   169   85  206 1    
   170   86  207 1    
   171   86  208 1    
   172   86  209 1    
   173   87   88 2    
   174   87   89 am   BACKBONE|DICT|INTERRES
   175   89   90 1    
   176   89  210 1    
   177   90   91 1    
   178   90   92 1    
   179   90  211 1    
   180   91  212 1    
   181   91  213 1    
   182   91  214 1    
   183   92   93 2    
   184   92   94 am   BACKBONE|DICT|INTERRES
   185   94   95 1    
   186   94  215 1    
   187   95   96 1    
   188   95   97 1    
   189   95  216 1    
   190   96  217 1    
   191   96  218 1    
   192   96  219 1    
   193   97   98 2    
   194   97   99 am   BACKBONE|DICT|INTERRES
   195   99  100 1    
   196   99  220 1    
   197  100  101 1    
   198  100  102 1    
   199  100  221 1    
   200  101  222 1    
   201  101  223 1    
   202  101  224 1    
   203  102  103 2    
   204  102  104 am   BACKBONE|DICT|INTERRES
   205  104  105 1    
   206  104  225 1    
   207  105  106 1    
   208  105  107 1    
   209  105  226 1    
   210  106  227 1    
   211  106  228 1    
   212  106  229 1    
   213  107  108 2    
   214  107  109 am   BACKBONE|DICT|INTERRES
   215  109  110 1    
   216  109  230 1    
   217  110  111 1    
   218  110  112 1    
   219  110  231 1    
   220  111  232 1    
   221  111  233 1    
   222  111  234 1    
   223  112  113 2    
   224  112  114 am   BACKBONE|DICT|INTERRES
   225  114  115 1    
   226  114  235 1    
   227  115  116 1    
   228  115  117 1    
   229  115  236 1    
   230  116  237 1    
   231  116  238 1    
   232  116  239 1    
   233  117  118 2    
   234  117  119 am   BACKBONE|DICT|INTERRES
   235  119  120 1    
   236  119  240 1    
   237  120  121 1    
   238  120  124 1    
   239  120  241 1    
   240  121  122 am   BACKBONE|DICT|INTERRES
   241  121  123 2    
   242  122  242 1    
   243  122  243 1    
   244  124  125 1    
   245  124  244 1    
   246  124  245 1    
   247  125  126 1    
   248  126  246 1    
   249  126  247 1    
@<TRIPOS>SUBSTRUCTURE
     1 UNK         1 GROUP             0       ****    0 ROOT    
