@<TRIPOS>MOLECULE
3R540
247   249    1
SMALL
USER_CHARGES


@<TRIPOS>ATOM
      1 CA          7.6681  -11.8059  -45.1426 C.3       0 UNK        -0.1800 
      2 C           6.2226  -12.2478  -45.3107 C.2       0 UNK         0.5000 
      3 O           5.3398  -11.7103  -44.6449 O.2       0 UNK        -0.5000 
      4 N           5.9742  -13.2070  -46.2126 N.am      1 UNK        -0.5000 
      5 CA          4.6732  -13.8309  -46.5101 C.3       1 UNK         0.1400 
      6 C6          4.8598  -14.9458  -47.5701 C.3       23 UNK        -0.0398 
      7 S7          3.4455  -16.0868  -47.7297 S.3       23 UNK        -0.2404 
      8 C8          2.8711  -15.6460  -49.3993 C.3       23 UNK        -0.0205 
      9 C9          1.6428  -16.4480  -49.7917 C.ar      23 UNK        -0.0193 
     10 C10         0.3741  -15.8668  -49.7446 C.ar      23 UNK        -0.1150 
     11 C11        -0.7638  -16.6014  -50.0917 C.ar      23 UNK        -0.0193 
     12 C12        -0.6120  -17.9374  -50.4879 C.ar      23 UNK        -0.1150 
     13 C13         0.6512  -18.5361  -50.5361 C.ar      23 UNK        -0.0193 
     14 C14         1.7768  -17.7747  -50.2040 C.ar      23 UNK        -0.1150 
     15 C15         0.7745  -20.0033  -50.9481 C.3       23 UNK        -0.0205 
     16 S16         2.0526  -20.9415  -50.0359 S.3       23 UNK        -0.2404 
     17 C17         1.5070  -20.7202  -48.3069 C.3       23 UNK        -0.0398 
     18 CA          0.8962  -21.9844  -47.6600 C.3       11 UNK         0.1400 
     19 N           0.6712  -21.7804  -46.2281 N.am      11 UNK        -0.5000 
     20 C           0.2767  -22.7209  -45.3600 C.2       10 UNK         0.5000 
     21 O           0.1160  -23.9036  -45.6566 O.2       10 UNK        -0.5000 
     22 CA         -0.0414  -22.2503  -43.9296 C.3       10 UNK         0.1400 
     23 CB          1.2443  -22.1101  -43.1017 C.3       10 UNK        -0.1800 
     24 N          -0.7909  -20.9921  -43.9057 N.am      10 UNK        -0.5000 
     25 C          -2.0224  -20.8389  -44.4151 C.2       9 UNK         0.5000 
     26 O          -2.6718  -21.7568  -44.9144 O.2       9 UNK        -0.5000 
     27 CA         -2.6165  -19.4196  -44.4051 C.3       9 UNK         0.1400 
     28 CB         -3.1774  -19.0733  -43.0181 C.3       9 UNK        -0.1800 
     29 N          -1.6555  -18.3981  -44.8202 N.am      9 UNK        -0.5000 
     30 C          -1.0857  -18.3338  -46.0326 C.2       8 UNK         0.5000 
     31 O          -1.3367  -19.1186  -46.9467 O.2       8 UNK        -0.5000 
     32 CA         -0.0090  -17.2503  -46.2324 C.3       8 UNK         0.1400 
     33 CB         -0.6440  -15.8665  -46.4252 C.3       8 UNK        -0.1800 
     34 N           0.9387  -17.1980  -45.1194 N.am      8 UNK        -0.5000 
     35 C           1.7414  -18.2081  -44.7569 C.2       7 UNK         0.5000 
     36 O           1.8141  -19.2798  -45.3570 O.2       7 UNK        -0.5000 
     37 CA          2.5503  -18.0102  -43.4657 C.3       7 UNK         0.1400 
     38 CB          3.8322  -17.2067  -43.7352 C.3       7 UNK        -0.1800 
     39 N           1.7493  -17.3550  -42.4299 N.am      7 UNK        -0.5000 
     40 C           0.7405  -17.9506  -41.7755 C.2       6 UNK         0.5000 
     41 O           0.4116  -19.1228  -41.9547 O.2       6 UNK        -0.5000 
     42 CA         -0.0605  -17.0883  -40.7812 C.3       6 UNK         0.1400 
     43 CB          0.6267  -17.0700  -39.4079 C.3       6 UNK        -0.1800 
     44 N          -0.2516  -15.7141  -41.2442 N.am      6 UNK        -0.5000 
     45 C          -0.9713  -15.3661  -42.3204 C.2       5 UNK         0.5000 
     46 O          -1.6102  -16.1684  -42.9989 O.2       5 UNK        -0.5000 
     47 CA         -0.9296  -13.8827  -42.7393 C.3       5 UNK         0.1400 
     48 CB         -2.0967  -13.1116  -42.1060 C.3       5 UNK        -0.1800 
     49 N           0.3300  -13.2108  -42.4063 N.am      5 UNK        -0.5000 
     50 C           1.5414  -13.5880  -42.8345 C.2       4 UNK         0.5000 
     51 O           1.7300  -14.5496  -43.5818 O.2       4 UNK        -0.5000 
     52 CA          2.7316  -12.7666  -42.3108 C.3       4 UNK         0.1400 
     53 CB          4.0173  -13.6077  -42.2232 C.3       4 UNK        -0.1800 
     54 N           2.9801  -11.6019  -43.1532 N.am      4 UNK        -0.5000 
     55 C           2.2505  -10.4788  -43.1673 C.2       3 UNK         0.5000 
     56 O           1.2686  -10.2949  -42.4463 O.2       3 UNK        -0.5000 
     57 CA          2.6929   -9.3738  -44.1409 C.3       3 UNK         0.1400 
     58 CB          3.8382   -8.5505  -43.5305 C.3       3 UNK        -0.1800 
     59 N           3.1373   -9.9338  -45.4174 N.am      3 UNK        -0.5000 
     60 C           2.4487   -9.8700  -46.5653 C.2       2 UNK         0.5000 
     61 O           1.3667   -9.2931  -46.6827 O.2       2 UNK        -0.5000 
     62 CA          3.0668  -10.5591  -47.8012 C.3       2 UNK         0.1400 
     63 CB          3.8385   -9.5396  -48.6531 C.3       2 UNK        -0.1800 
     64 N           3.9600  -11.6713  -47.4709 N.am      2 UNK        -0.5000 
     65 C           3.5653  -12.8240  -46.9113 C.2       1 UNK         0.5000 
     66 O           2.3858  -13.0867  -46.6788 O.2       1 UNK        -0.5000 
     67 C          -0.3909  -22.4499  -48.3732 C.2       11 UNK         0.5000 
     68 O          -0.3574  -23.4547  -49.0835 O.2       11 UNK        -0.5000 
     69 N          -1.5079  -21.7480  -48.1335 N.am      12 UNK        -0.5000 
     70 CA         -2.8279  -22.0878  -48.6663 C.3       12 UNK         0.1400 
     71 CB         -3.8291  -20.9829  -48.2994 C.3       12 UNK        -0.1800 
     72 C          -3.3317  -23.4664  -48.1987 C.2       12 UNK         0.5000 
     73 O          -3.8746  -24.2215  -49.0061 O.2       12 UNK        -0.5000 
     74 N          -3.1082  -23.7901  -46.9171 N.am      13 UNK        -0.5000 
     75 CA         -3.4168  -25.0905  -46.3233 C.3       13 UNK         0.1400 
     76 CB         -3.2467  -25.0219  -44.7984 C.3       13 UNK        -0.1800 
     77 C          -2.5722  -26.2298  -46.9213 C.2       13 UNK         0.5000 
     78 O          -3.1277  -27.2746  -47.2602 O.2       13 UNK        -0.5000 
     79 N          -1.2603  -26.0004  -47.0799 N.am      14 UNK        -0.5000 
     80 CA         -0.3155  -26.9388  -47.6932 C.3       14 UNK         0.1400 
     81 CB          1.1189  -26.4223  -47.5057 C.3       14 UNK        -0.1800 
     82 C          -0.6085  -27.2016  -49.1823 C.2       14 UNK         0.5000 
     83 O          -0.4752  -28.3378  -49.6382 O.2       14 UNK        -0.5000 
     84 N          -1.0377  -26.1565  -49.9016 N.am      15 UNK        -0.5000 
     85 CA         -1.4923  -26.2209  -51.2917 C.3       15 UNK         0.1400 
     86 CB         -1.5001  -24.7987  -51.8699 C.3       15 UNK        -0.1800 
     87 C          -2.8815  -26.8721  -51.4600 C.2       15 UNK         0.5000 
     88 O          -3.2510  -27.2035  -52.5870 O.2       15 UNK        -0.5000 
     89 N          -3.6183  -27.0367  -50.3506 N.am      16 UNK        -0.5000 
     90 CA         -4.9906  -27.5390  -50.2498 C.3       16 UNK         0.1400 
     91 CB         -5.0770  -29.0162  -50.6878 C.3       16 UNK        -0.1800 
     92 C          -6.0017  -26.6216  -50.9679 C.2       16 UNK         0.5000 
     93 O          -6.8870  -27.1068  -51.6754 O.2       16 UNK        -0.5000 
     94 N          -5.8450  -25.3065  -50.7557 N.am      17 UNK        -0.5000 
     95 CA         -6.6239  -24.2125  -51.3354 C.3       17 UNK         0.1400 
     96 CB         -8.0701  -24.2219  -50.7885 C.3       17 UNK        -0.1800 
     97 C          -6.5148  -24.1912  -52.8759 C.2       17 UNK         0.5000 
     98 O          -5.4001  -24.1036  -53.3965 O.2       17 UNK        -0.5000 
     99 N          -7.6593  -24.2569  -53.5734 N.am      18 UNK        -0.5000 
    100 CA        -7.8098  -24.2639  -55.0314 C.3       18 UNK         0.1400 
    101 CB        -7.2856  -25.5939  -55.6195 C.3       18 UNK        -0.1800 
    102 C         -7.1947  -23.0022  -55.6712 C.2       18 UNK         0.5000 
    103 O         -7.7186  -21.9076  -55.4597 O.2       18 UNK        -0.5000 
    104 N         -6.0931  -23.1656  -56.4163 N.am      19 UNK        -0.5000 
    105 CA        -5.3363  -22.0861  -57.0548 C.3       19 UNK         0.1400 
    106 CB        -4.3035  -22.7022  -58.0110 C.3       19 UNK        -0.1800 
    107 C         -4.6454  -21.1348  -56.0563 C.2       19 UNK         0.5000 
    108 O         -4.3821  -19.9844  -56.4079 O.2       19 UNK        -0.5000 
    109 N         -4.3824  -21.6163  -54.8352 N.am      20 UNK        -0.5000 
    110 CA        -3.8300  -20.8490  -53.7241 C.3       20 UNK         0.1400 
    111 CB        -2.4669  -21.4398  -53.3265 C.3       20 UNK        -0.1800 
    112 C         -4.8493  -20.8641  -52.5758 C.2       20 UNK         0.5000 
    113 O         -4.5462  -21.3391  -51.4839 O.2       20 UNK        -0.5000 
    114 N         -6.0545  -20.3570  -52.8668 N.am      21 UNK        -0.5000 
    115 CA        -7.2104  -20.2644  -51.9704 C.3       21 UNK         0.1400 
    116 CB        -8.3505  -19.5068  -52.6698 C.3       21 UNK        -0.1800 
    117 C         -6.9600  -19.7043  -50.5470 C.2       21 UNK         0.5000 
    118 O         -7.4392  -20.3247  -49.5997 O.2       21 UNK        -0.5000 
    119 N         -6.2439  -18.5895  -50.3317 N.am      22 UNK        -0.5000 
    120 CA        -5.6557  -17.6349  -51.2877 C.3       22 UNK         0.1400 
    121 C         -6.3047  -16.2202  -51.2387 C.2       22 UNK         0.5000 
    122 N         -7.3679  -16.0032  -50.4733 N.am      22 UNK        -0.7600 
    123 O         -5.8566  -15.3102  -51.9304 O.2       22 UNK        -0.5000 
    124 C124       -4.1101  -17.5993  -51.1502 C.3       23 UNK        -0.0398 
    125 S125       -3.5111  -16.9859  -49.5328 S.3       23 UNK        -0.2404 
    126 C126       -2.1275  -15.9096  -50.0449 C.3       23 UNK        -0.0205 
    127 H127        7.9914  -11.9708  -44.1149 H         1 UNK         0.0600 
    128 H128        7.7624  -10.7428  -45.3641 H         1 UNK         0.0600 
    129 H129        8.3403  -12.3534  -45.8036 H         1 UNK         0.0600 
    130 H130        6.7558  -13.5832  -46.7304 H         1 UNK         0.3000 
    131 H131        4.3399  -14.3020  -45.5837 H         1 UNK         0.0600 
    132 H132        5.1093  -14.5137  -48.5409 H         1 UNK         0.0800 
    133 H133        5.7156  -15.5655  -47.2984 H         1 UNK         0.0800 
    134 H134        2.6544  -14.5772  -49.4369 H         1 UNK         0.0800 
    135 H135        3.6696  -15.8281  -50.1202 H         1 UNK         0.0800 
    136 H136        0.2732  -14.8371  -49.4309 H         1 UNK         0.1150 
    137 H137       -1.4772  -18.5238  -50.7543 H         1 UNK         0.1150 
    138 H138        2.7617  -18.2179  -50.2426 H         1 UNK         0.1150 
    139 H139       -0.1804  -20.5139  -50.8136 H         1 UNK         0.0800 
    140 H140        1.0012  -20.0472  -52.0139 H         1 UNK         0.0800 
    141 H141        0.8149  -19.8822  -48.2319 H         1 UNK         0.0800 
    142 H142        2.3888  -20.4166  -47.7414 H         1 UNK         0.0800 
    143 H143        1.6265  -22.7912  -47.7517 H         1 UNK         0.0600 
    144 H144        0.8266  -20.8373  -45.8818 H         1 UNK         0.3000 
    145 H145       -0.6628  -23.0155  -43.4603 H         1 UNK         0.0600 
    146 H146        1.0192  -21.8634  -42.0641 H         1 UNK         0.0600 
    147 H147        1.8104  -23.0424  -43.0987 H         1 UNK         0.0600 
    148 H148        1.8961  -21.3309  -43.4970 H         1 UNK         0.0600 
    149 H149       -0.3367  -20.2000  -43.4621 H         1 UNK         0.3000 
    150 H150       -3.4432  -19.4024  -45.1181 H         1 UNK         0.0600 
    151 H151       -3.9081  -19.8160  -42.6954 H         1 UNK         0.0600 
    152 H152       -3.6794  -18.1057  -43.0268 H         1 UNK         0.0600 
    153 H153       -2.3914  -19.0353  -42.2635 H         1 UNK         0.0600 
    154 H154       -1.4353  -17.6792  -44.1361 H         1 UNK         0.3000 
    155 H155        0.5494  -17.4996  -47.1370 H         1 UNK         0.0600 
    156 H156       -1.1674  -15.5310  -45.5318 H         1 UNK         0.0600 
    157 H157       -1.3721  -15.8853  -47.2345 H         1 UNK         0.0600 
    158 H158        0.1100  -15.1192  -46.6754 H         1 UNK         0.0600 
    159 H159        0.9748  -16.3386  -44.5838 H         1 UNK         0.3000 
    160 H160        2.8439  -18.9955  -43.0974 H         1 UNK         0.0600 
    161 H161        3.6178  -16.2304  -44.1684 H         1 UNK         0.0600 
    162 H162        4.4773  -17.7350  -44.4382 H         1 UNK         0.0600 
    163 H163        4.4039  -17.0517  -42.8203 H         1 UNK         0.0600 
    164 H164        1.9027  -16.3643  -42.3017 H         1 UNK         0.3000 
    165 H165       -1.0455  -17.5449  -40.6638 H         1 UNK         0.0600 
    166 H166        0.0289  -16.5282  -38.6748 H         1 UNK         0.0600 
    167 H167        0.7650  -18.0831  -39.0278 H         1 UNK         0.0600 
    168 H168        1.6098  -16.5997  -39.4543 H         1 UNK         0.0600 
    169 H169        0.2353  -14.9891  -40.7387 H         1 UNK         0.3000 
    170 H170       -1.0433  -13.8438  -43.8240 H         1 UNK         0.0600 
    171 H171       -3.0524  -13.5729  -42.3588 H         1 UNK         0.0600 
    172 H172       -2.0204  -13.0879  -41.0182 H         1 UNK         0.0600 
    173 H173       -2.1294  -12.0822  -42.4634 H         1 UNK         0.0600 
    174 H174        0.2621  -12.3706  -41.8472 H         1 UNK         0.3000 
    175 H175        2.4938  -12.4251  -41.3011 H         1 UNK         0.0600 
    176 H176        4.3425  -13.9559  -43.2034 H         1 UNK         0.0600 
    177 H177        4.8347  -13.0318  -41.7890 H         1 UNK         0.0600 
    178 H178        3.8684  -14.4871  -41.5954 H         1 UNK         0.0600 
    179 H179        3.7938  -11.6632  -43.7612 H         1 UNK         0.3000 
    180 H180        1.8426   -8.7051  -44.2898 H         1 UNK         0.0600 
    181 H181        4.7262   -9.1598  -43.3566 H         1 UNK         0.0600 
    182 H182        3.5424   -8.1184  -42.5737 H         1 UNK         0.0600 
    183 H183        4.1216   -7.7267  -44.1858 H         1 UNK         0.0600 
    184 H184        3.9995  -10.4680  -45.3940 H         1 UNK         0.3000 
    185 H185        2.2447  -10.9536  -48.4022 H         1 UNK         0.0600 
    186 H186        4.2137   -9.9943  -49.5701 H         1 UNK         0.0600 
    187 H187        3.1959   -8.7075  -48.9441 H         1 UNK         0.0600 
    188 H188        4.6884   -9.1236  -48.1106 H         1 UNK         0.0600 
    189 H189        4.9471  -11.5229  -47.6210 H         1 UNK         0.3000 
    190 H190       -1.4522  -20.9081  -47.5617 H         1 UNK         0.3000 
    191 H191       -2.7395  -22.1236  -49.7534 H         1 UNK         0.0600 
    192 H192       -3.9135  -20.8541  -47.2205 H         1 UNK         0.0600 
    193 H193       -4.8231  -21.2153  -48.6832 H         1 UNK         0.0600 
    194 H194       -3.5316  -20.0266  -48.7299 H         1 UNK         0.0600 
    195 H195       -2.7109  -23.0888  -46.2975 H         1 UNK         0.3000 
    196 H196       -4.4654  -25.3102  -46.5346 H         1 UNK         0.0600 
    197 H197       -3.4909  -25.9783  -44.3346 H         1 UNK         0.0600 
    198 H198       -3.9060  -24.2711  -44.3626 H         1 UNK         0.0600 
    199 H199       -2.2240  -24.7714  -44.5165 H         1 UNK         0.0600 
    200 H200       -0.8690  -25.1268  -46.7362 H         1 UNK         0.3000 
    201 H201       -0.4043  -27.8912  -47.1667 H         1 UNK         0.0600 
    202 H202        1.3659  -26.3216  -46.4488 H         1 UNK         0.0600 
    203 H203        1.2606  -25.4487  -47.9761 H         1 UNK         0.0600 
    204 H204        1.8434  -27.1092  -47.9450 H         1 UNK         0.0600 
    205 H205       -1.0415  -25.2368  -49.4679 H         1 UNK         0.3000 
    206 H206       -0.7779  -26.8184  -51.8615 H         1 UNK         0.0600 
    207 H207       -0.5120  -24.3416  -51.8151 H         1 UNK         0.0600 
    208 H208       -1.7991  -24.8048  -52.9188 H         1 UNK         0.0600 
    209 H209       -2.1975  -24.1556  -51.3315 H         1 UNK         0.0600 
    210 H210       -3.2149  -26.7226  -49.4773 H         1 UNK         0.3000 
    211 H211       -5.2477  -27.4989  -49.1904 H         1 UNK         0.0600 
    212 H212       -4.8938  -29.1371  -51.7556 H         1 UNK         0.0600 
    213 H213       -6.0658  -29.4262  -50.4790 H         1 UNK         0.0600 
    214 H214       -4.3524  -29.6284  -50.1508 H         1 UNK         0.0600 
    215 H215       -5.0642  -25.0077  -50.1731 H         1 UNK         0.3000 
    216 H216       -6.1538  -23.2958  -50.9817 H         1 UNK         0.0600 
    217 H217       -8.6325  -23.3544  -51.1349 H         1 UNK         0.0600 
    218 H218       -8.0698  -24.1824  -49.6991 H         1 UNK         0.0600 
    219 H219       -8.6199  -25.1162  -51.0837 H         1 UNK         0.0600 
    220 H220       -8.5223  -24.3087  -53.0514 H         1 UNK         0.3000 
    221 H221       -8.8806  -24.2154  -55.2343 H         1 UNK         0.0600 
    222 H222       -6.2245  -25.7485  -55.4206 H         1 UNK         0.0600 
    223 H223       -7.8219  -26.4417  -55.1929 H         1 UNK         0.0600 
    224 H224       -7.4336  -25.6332  -56.6995 H         1 UNK         0.0600 
    225 H225       -5.7177  -24.0978  -56.5137 H         1 UNK         0.3000 
    226 H226       -6.0352  -21.4891  -57.6442 H         1 UNK         0.0600 
    227 H227       -4.7862  -23.3145  -58.7730 H         1 UNK         0.0600 
    228 H228       -3.7390  -21.9261  -58.5298 H         1 UNK         0.0600 
    229 H229       -3.5869  -23.3290  -57.4789 H         1 UNK         0.0600 
    230 H230       -4.6815  -22.5593  -54.6045 H         1 UNK         0.3000 
    231 H231       -3.6771  -19.8040  -54.0009 H         1 UNK         0.0600 
    232 H232       -2.0367  -20.9029  -52.4804 H         1 UNK         0.0600 
    233 H233       -1.7552  -21.3786  -54.1496 H         1 UNK         0.0600 
    234 H234       -2.5611  -22.4865  -53.0423 H         1 UNK         0.0600 
    235 H235       -6.2120  -20.0428  -53.8136 H         1 UNK         0.3000 
    236 H236       -7.5534  -21.2907  -51.8353 H         1 UNK         0.0600 
    237 H237       -8.0673  -18.4878  -52.9323 H         1 UNK         0.0600 
    238 H238       -8.6557  -20.0143  -53.5851 H         1 UNK         0.0600 
    239 H239       -9.2307  -19.4459  -52.0283 H         1 UNK         0.0600 
    240 H240       -6.0971  -18.3205  -49.3704 H         1 UNK         0.3000 
    241 H241       -5.8678  -17.9475  -52.3054 H         1 UNK         0.0600 
    242 H242       -7.7861  -15.0861  -50.4565 H         1 UNK         0.3800 
    243 H243       -7.7650  -16.7433  -49.9166 H         1 UNK         0.3800 
    244 H244       -3.7108  -18.6033  -51.2831 H         1 UNK         0.0800 
    245 H245       -3.6816  -17.0079  -51.9602 H         1 UNK         0.0800 
    246 H246       -2.0906  -15.0787  -49.3393 H         1 UNK         0.0800 
    247 H247       -2.3331  -15.4579  -51.0156 H         1 UNK         0.0800 
@<TRIPOS>BOND
     1    1    2 1    
     2    1  127 1    
     3    1  128 1    
     4    1  129 1    
     5    2    3 2    
     6    2    4 am   BACKBONE|DICT|INTERRES
     7    4    5 1    
     8    4  130 1    
     9    5    6 1    
    10    5   65 1    
    11    5  131 1    
    12    6    7 1    
    13    6  132 1    
    14    6  133 1    
    15    7    8 1    
    16    8    9 1    
    17    8  134 1    
    18    8  135 1    
    19    9   10 ar   
    20    9   14 ar   
    21   10   11 ar   
    22   10  136 1    
    23   11   12 ar   
    24   11  126 1    
    25   12   13 ar   
    26   12  137 1    
    27   13   14 ar   
    28   13   15 1    
    29   14  138 1    
    30   15   16 1    
    31   15  139 1    
    32   15  140 1    
    33   16   17 1    
    34   17   18 1    
    35   17  141 1    
    36   17  142 1    
    37   18   19 1    
    38   18   67 1    
    39   18  143 1    
    40   19   20 am   BACKBONE|DICT|INTERRES
    41   19  144 1    
    42   20   21 2    
    43   20   22 1    
    44   22   23 1    
    45   22   24 1    
    46   22  145 1    
    47   23  146 1    
    48   23  147 1    
    49   23  148 1    
    50   24   25 am   BACKBONE|DICT|INTERRES
    51   24  149 1    
    52   25   26 2    
    53   25   27 1    
    54   27   28 1    
    55   27   29 1    
    56   27  150 1    
    57   28  151 1    
    58   28  152 1    
    59   28  153 1    
    60   29   30 am   BACKBONE|DICT|INTERRES
    61   29  154 1    
    62   30   31 2    
    63   30   32 1    
    64   32   33 1    
    65   32   34 1    
    66   32  155 1    
    67   33  156 1    
    68   33  157 1    
    69   33  158 1    
    70   34   35 am   BACKBONE|DICT|INTERRES
    71   34  159 1    
    72   35   36 2    
    73   35   37 1    
    74   37   38 1    
    75   37   39 1    
    76   37  160 1    
    77   38  161 1    
    78   38  162 1    
    79   38  163 1    
    80   39   40 am   BACKBONE|DICT|INTERRES
    81   39  164 1    
    82   40   41 2    
    83   40   42 1    
    84   42   43 1    
    85   42   44 1    
    86   42  165 1    
    87   43  166 1    
    88   43  167 1    
    89   43  168 1    
    90   44   45 am   BACKBONE|DICT|INTERRES
    91   44  169 1    
    92   45   46 2    
    93   45   47 1    
    94   47   48 1    
    95   47   49 1    
    96   47  170 1    
    97   48  171 1    
    98   48  172 1    
    99   48  173 1    
   100   49   50 am   BACKBONE|DICT|INTERRES
   101   49  174 1    
   102   50   51 2    
   103   50   52 1    
   104   52   53 1    
   105   52   54 1    
   106   52  175 1    
   107   53  176 1    
   108   53  177 1    
   109   53  178 1    
   110   54   55 am   BACKBONE|DICT|INTERRES
   111   54  179 1    
   112   55   56 2    
   113   55   57 1    
   114   57   58 1    
   115   57   59 1    
   116   57  180 1    
   117   58  181 1    
   118   58  182 1    
   119   58  183 1    
   120   59   60 am   BACKBONE|DICT|INTERRES
   121   59  184 1    
   122   60   61 2    
   123   60   62 1    
   124   62   63 1    
   125   62   64 1    
   126   62  185 1    
   127   63  186 1    
   128   63  187 1    
   129   63  188 1    
   130   64   65 am   BACKBONE|DICT|INTERRES
   131   64  189 1    
   132   65   66 2    
   133   67   68 2    
   134   67   69 am   BACKBONE|DICT|INTERRES
   135   69   70 1    
   136   69  190 1    
   137   70   71 1    
   138   70   72 1    
   139   70  191 1    
   140   71  192 1    
   141   71  193 1    
   142   71  194 1    
   143   72   73 2    
   144   72   74 am   BACKBONE|DICT|INTERRES
   145   74   75 1    
   146   74  195 1    
   147   75   76 1    
   148   75   77 1    
   149   75  196 1    
   150   76  197 1    
   151   76  198 1    
   152   76  199 1    
   153   77   78 2    
   154   77   79 am   BACKBONE|DICT|INTERRES
   155   79   80 1    
   156   79  200 1    
   157   80   81 1    
   158   80   82 1    
   159   80  201 1    
   160   81  202 1    
   161   81  203 1    
   162   81  204 1    
   163   82   83 2    
   164   82   84 am   BACKBONE|DICT|INTERRES
   165   84   85 1    
   166   84  205 1    
   167   85   86 1    
   168   85   87 1    
   169   85  206 1    
   170   86  207 1    
   171   86  208 1    
   172   86  209 1    
   173   87   88 2    
   174   87   89 am   BACKBONE|DICT|INTERRES
   175   89   90 1    
   176   89  210 1    
   177   90   91 1    
   178   90   92 1    
   179   90  211 1    
   180   91  212 1    
   181   91  213 1    
   182   91  214 1    
   183   92   93 2    
   184   92   94 am   BACKBONE|DICT|INTERRES
   185   94   95 1    
   186   94  215 1    
   187   95   96 1    
   188   95   97 1    
   189   95  216 1    
   190   96  217 1    
   191   96  218 1    
   192   96  219 1    
   193   97   98 2    
   194   97   99 am   BACKBONE|DICT|INTERRES
   195   99  100 1    
   196   99  220 1    
   197  100  101 1    
   198  100  102 1    
   199  100  221 1    
   200  101  222 1    
   201  101  223 1    
   202  101  224 1    
   203  102  103 2    
   204  102  104 am   BACKBONE|DICT|INTERRES
   205  104  105 1    
   206  104  225 1    
   207  105  106 1    
   208  105  107 1    
   209  105  226 1    
   210  106  227 1    
   211  106  228 1    
   212  106  229 1    
   213  107  108 2    
   214  107  109 am   BACKBONE|DICT|INTERRES
   215  109  110 1    
   216  109  230 1    
   217  110  111 1    
   218  110  112 1    
   219  110  231 1    
   220  111  232 1    
   221  111  233 1    
   222  111  234 1    
   223  112  113 2    
   224  112  114 am   BACKBONE|DICT|INTERRES
   225  114  115 1    
   226  114  235 1    
   227  115  116 1    
   228  115  117 1    
   229  115  236 1    
   230  116  237 1    
   231  116  238 1    
   232  116  239 1    
   233  117  118 2    
   234  117  119 am   BACKBONE|DICT|INTERRES
   235  119  120 1    
   236  119  240 1    
   237  120  121 1    
   238  120  124 1    
   239  120  241 1    
   240  121  122 am   BACKBONE|DICT|INTERRES
   241  121  123 2    
   242  122  242 1    
   243  122  243 1    
   244  124  125 1    
   245  124  244 1    
   246  124  245 1    
   247  125  126 1    
   248  126  246 1    
   249  126  247 1    
@<TRIPOS>SUBSTRUCTURE
     1 UNK         1 GROUP             0       ****    0 ROOT    
