@<TRIPOS>MOLECULE
3R540
247   249    1
SMALL
USER_CHARGES


@<TRIPOS>ATOM
      1 CA         -2.5425  -11.8252  -50.9327 C.3       0 UNK        -0.1800 
      2 C          -2.2960  -12.5114  -49.5981 C.2       0 UNK         0.5000 
      3 O          -1.1959  -12.4211  -49.0553 O.2       0 UNK        -0.5000 
      4 N          -3.3191  -13.1833  -49.0522 N.am      1 UNK        -0.5000 
      5 CA         -3.2689  -13.9260  -47.7808 C.3       1 UNK         0.1400 
      6 C6         -4.5436  -14.7766  -47.5364 C.3       23 UNK        -0.0398 
      7 S7         -5.1099  -15.7354  -48.9907 S.3       23 UNK        -0.2404 
      8 C8         -4.4428  -17.4116  -48.6858 C.3       23 UNK        -0.0205 
      9 C9         -3.0091  -17.6711  -49.1593 C.ar      23 UNK        -0.0193 
     10 C10        -2.2003  -16.6859  -49.7410 C.ar      23 UNK        -0.1150 
     11 C11        -0.9037  -16.9789  -50.1697 C.ar      23 UNK        -0.0193 
     12 C12        -0.4102  -18.2766  -50.0272 C.ar      23 UNK        -0.1150 
     13 C13        -1.2052  -19.2753  -49.4623 C.ar      23 UNK        -0.0193 
     14 C14        -2.4943  -18.9638  -49.0218 C.ar      23 UNK        -0.1150 
     15 C15        -0.6829  -20.6962  -49.3574 C.3       23 UNK        -0.0205 
     16 S16         0.4427  -20.8902  -47.9447 S.3       23 UNK        -0.2404 
     17 C17         0.5758  -22.7092  -47.8873 C.3       23 UNK        -0.0398 
     18 CA         -0.2150  -23.3666  -46.7323 C.3       11 UNK         0.1400 
     19 N           0.2648  -22.9207  -45.4275 N.am      11 UNK        -0.5000 
     20 C           0.0071  -23.5226  -44.2604 C.2       10 UNK         0.5000 
     21 O          -0.7560  -24.4839  -44.1553 O.2       10 UNK        -0.5000 
     22 CA          0.7032  -22.9405  -43.0120 C.3       10 UNK         0.1400 
     23 CB          1.0503  -24.0226  -41.9706 C.3       10 UNK        -0.1800 
     24 N           1.8776  -22.1181  -43.3323 N.am      10 UNK        -0.5000 
     25 C           3.0174  -22.4911  -43.9372 C.2       9 UNK         0.5000 
     26 O           3.2785  -23.6494  -44.2621 O.2       9 UNK        -0.5000 
     27 CA          4.0179  -21.3697  -44.2802 C.3       9 UNK         0.1400 
     28 CB          4.0413  -21.1239  -45.7976 C.3       9 UNK        -0.1800 
     29 N           3.6923  -20.1136  -43.5993 N.am      9 UNK        -0.5000 
     30 C           4.0996  -19.8116  -42.3586 C.2       8 UNK         0.5000 
     31 O           4.8699  -20.5127  -41.7013 O.2       8 UNK        -0.5000 
     32 CA          3.5203  -18.5328  -41.7294 C.3       8 UNK         0.1400 
     33 CB          4.2805  -17.2913  -42.2183 C.3       8 UNK        -0.1800 
     34 N           2.0870  -18.3642  -41.9800 N.am      8 UNK        -0.5000 
     35 C           1.1272  -19.1706  -41.5026 C.2       7 UNK         0.5000 
     36 O           1.3530  -20.1824  -40.8403 O.2       7 UNK        -0.5000 
     37 CA         -0.3289  -18.8002  -41.8214 C.3       7 UNK         0.1400 
     38 CB         -0.8483  -17.7622  -40.8148 C.3       7 UNK        -0.1800 
     39 N          -0.4674  -18.2612  -43.1698 N.am      7 UNK        -0.5000 
     40 C          -0.8043  -18.9723  -44.2534 C.2       6 UNK         0.5000 
     41 O          -1.0176  -20.1867  -44.2545 O.2       6 UNK        -0.5000 
     42 CA         -0.9181  -18.1752  -45.5659 C.3       6 UNK         0.1400 
     43 CB         -2.2224  -17.3609  -45.5704 C.3       6 UNK        -0.1800 
     44 N           0.1749  -17.2326  -45.7889 N.am      6 UNK        -0.5000 
     45 C           1.4932  -17.4465  -45.6778 C.2       5 UNK         0.5000 
     46 O           2.0145  -18.5290  -45.4110 O.2       5 UNK        -0.5000 
     47 CA          2.3646  -16.1810  -45.7897 C.3       5 UNK         0.1400 
     48 CB          2.6752  -15.8742  -47.2627 C.3       5 UNK        -0.1800 
     49 N           1.7385  -15.0034  -45.1733 N.am      5 UNK        -0.5000 
     50 C           1.3021  -14.9156  -43.9063 C.2       4 UNK         0.5000 
     51 O           1.4121  -15.8290  -43.0875 O.2       4 UNK        -0.5000 
     52 CA          0.5363  -13.6455  -43.4957 C.3       4 UNK         0.1400 
     53 CB          1.1076  -13.0112  -42.2117 C.3       4 UNK        -0.1800 
     54 N           0.3645  -12.6640  -44.5729 N.am      4 UNK        -0.5000 
     55 C           1.2646  -11.8102  -45.0871 C.2       3 UNK         0.5000 
     56 O           2.4442  -11.7674  -44.7390 O.2       3 UNK        -0.5000 
     57 CA          0.7755  -10.8532  -46.1981 C.3       3 UNK         0.1400 
     58 CB          1.4463  -11.2015  -47.5363 C.3       3 UNK        -0.1800 
     59 N          -0.6799  -10.8628  -46.3792 N.am      3 UNK        -0.5000 
     60 C          -1.5640  -10.3540  -45.5057 C.2       2 UNK         0.5000 
     61 O          -1.2337   -9.7076  -44.5111 O.2       2 UNK        -0.5000 
     62 CA         -3.0622  -10.6393  -45.7474 C.3       2 UNK         0.1400 
     63 CB         -3.7787   -9.3702  -46.2341 C.3       2 UNK        -0.1800 
     64 N          -3.3304  -11.7211  -46.6982 N.am      2 UNK        -0.5000 
     65 C          -2.9823  -13.0108  -46.5675 C.2       1 UNK         0.5000 
     66 O          -2.4097  -13.4666  -45.5764 O.2       1 UNK        -0.5000 
     67 C          -1.7432  -23.2188  -46.8850 C.2       11 UNK         0.5000 
     68 O          -2.3584  -24.0224  -47.5874 O.2       11 UNK        -0.5000 
     69 N          -2.3379  -22.2340  -46.1936 N.am      12 UNK        -0.5000 
     70 CA         -3.7857  -22.0385  -46.1578 C.3       12 UNK         0.1400 
     71 CB         -4.1176  -20.6289  -45.6595 C.3       12 UNK        -0.1800 
     72 C          -4.5051  -23.1049  -45.3182 C.2       12 UNK         0.5000 
     73 O          -5.6026  -23.5237  -45.6846 O.2       12 UNK        -0.5000 
     74 N          -3.8617  -23.5609  -44.2353 N.am      13 UNK        -0.5000 
     75 CA         -4.3391  -24.6811  -43.4246 C.3       13 UNK         0.1400 
     76 CB         -3.5865  -24.7080  -42.0851 C.3       13 UNK        -0.1800 
     77 C          -4.1960  -26.0215  -44.1690 C.2       13 UNK         0.5000 
     78 O          -5.0594  -26.8886  -44.0305 O.2       13 UNK        -0.5000 
     79 N          -3.1176  -26.1555  -44.9533 N.am      14 UNK        -0.5000 
     80 CA         -2.8209  -27.3327  -45.7620 C.3       14 UNK         0.1400 
     81 CB         -1.3517  -27.2933  -46.2106 C.3       14 UNK        -0.1800 
     82 C          -3.7560  -27.4903  -46.9749 C.2       14 UNK         0.5000 
     83 O          -4.2995  -28.5795  -47.1664 O.2       14 UNK        -0.5000 
     84 N          -3.9033  -26.4340  -47.7903 N.am      15 UNK        -0.5000 
     85 CA         -4.5288  -26.5311  -49.1127 C.3       15 UNK         0.1400 
     86 CB         -3.5124  -27.1136  -50.1182 C.3       15 UNK        -0.1800 
     87 C          -5.1593  -25.2129  -49.6020 C.2       15 UNK         0.5000 
     88 O          -5.1821  -24.9735  -50.8123 O.2       15 UNK        -0.5000 
     89 N          -5.6814  -24.3906  -48.6785 N.am      16 UNK        -0.5000 
     90 CA         -6.4597  -23.1542  -48.8860 C.3       16 UNK         0.1400 
     91 CB         -7.7776  -23.4434  -49.6310 C.3       16 UNK        -0.1800 
     92 C          -5.6889  -21.9929  -49.5478 C.2       16 UNK         0.5000 
     93 O          -5.5939  -20.9146  -48.9623 O.2       16 UNK        -0.5000 
     94 N          -5.1511  -22.2397  -50.7426 N.am      17 UNK        -0.5000 
     95 CA         -4.2853  -21.3431  -51.5043 C.3       17 UNK         0.1400 
     96 CB         -5.0721  -20.7599  -52.6882 C.3       17 UNK        -0.1800 
     97 C          -3.0166  -22.0618  -51.9949 C.2       17 UNK         0.5000 
     98 O          -2.0723  -21.3830  -52.3940 O.2       17 UNK        -0.5000 
     99 N          -3.0069  -23.4071  -51.9808 N.am      18 UNK        -0.5000 
    100 CA        -1.8811  -24.2968  -52.3043 C.3       18 UNK         0.1400 
    101 CB        -0.8360  -24.2382  -51.1744 C.3       18 UNK        -0.1800 
    102 C         -1.2479  -24.0723  -53.6969 C.2       18 UNK         0.5000 
    103 O         -0.0675  -24.3692  -53.8883 O.2       18 UNK        -0.5000 
    104 N         -2.0433  -23.5363  -54.6351 N.am      19 UNK        -0.5000 
    105 CA        -1.6621  -23.1051  -55.9847 C.3       19 UNK         0.1400 
    106 CB        -1.2571  -24.3130  -56.8560 C.3       19 UNK        -0.1800 
    107 C         -0.6116  -21.9690  -56.0045 C.2       19 UNK         0.5000 
    108 O          0.1214  -21.8355  -56.9861 O.2       19 UNK        -0.5000 
    109 N         -0.5644  -21.1513  -54.9397 N.am      20 UNK        -0.5000 
    110 CA         0.3446  -20.0068  -54.8102 C.3       20 UNK         0.1400 
    111 CB         0.3907  -19.5633  -53.3398 C.3       20 UNK        -0.1800 
    112 C         -0.0284  -18.8178  -55.7199 C.2       20 UNK         0.5000 
    113 O          0.8299  -17.9771  -55.9901 O.2       20 UNK        -0.5000 
    114 N         -1.2918  -18.7769  -56.1746 N.am      21 UNK        -0.5000 
    115 CA        -1.8880  -17.7763  -57.0700 C.3       21 UNK         0.1400 
    116 CB        -1.2177  -17.8090  -58.4600 C.3       21 UNK        -0.1800 
    117 C         -1.9454  -16.3597  -56.4574 C.2       21 UNK         0.5000 
    118 O         -1.8551  -15.3655  -57.1802 O.2       21 UNK        -0.5000 
    119 N         -2.1112  -16.2979  -55.1307 N.am      22 UNK        -0.5000 
    120 CA        -2.2160  -15.0573  -54.3445 C.3       22 UNK         0.1400 
    121 C         -3.5804  -14.3170  -54.4769 C.2       22 UNK         0.5000 
    122 N         -4.6125  -14.9120  -55.0628 N.am      22 UNK        -0.7600 
    123 O         -3.7019  -13.1744  -54.0456 O.2       22 UNK        -0.5000 
    124 C124       -1.8762  -15.3081  -52.8548 C.3       23 UNK        -0.0398 
    125 S125       -0.1680  -15.9024  -52.6140 S.3       23 UNK        -0.2404 
    126 C126       -0.0414  -15.8954  -50.7983 C.3       23 UNK        -0.0205 
    127 H127       -3.4864  -12.1384  -51.3794 H         1 UNK         0.0600 
    128 H128       -2.5688  -10.7441  -50.7976 H         1 UNK         0.0600 
    129 H129       -1.7408  -12.0607  -51.6324 H         1 UNK         0.0600 
    130 H130       -4.1995  -13.2344  -49.5460 H         1 UNK         0.3000 
    131 H131       -2.4208  -14.6097  -47.8434 H         1 UNK         0.0600 
    132 H132       -5.3742  -14.1285  -47.2506 H         1 UNK         0.0800 
    133 H133       -4.3941  -15.4520  -46.6929 H         1 UNK         0.0800 
    134 H134       -5.0945  -18.1171  -49.2037 H         1 UNK         0.0800 
    135 H135       -4.5274  -17.6517  -47.6256 H         1 UNK         0.0800 
    136 H136       -2.5715  -15.6851  -49.8878 H         1 UNK         0.1150 
    137 H137        0.5871  -18.5143  -50.3697 H         1 UNK         0.1150 
    138 H138       -3.1107  -19.7397  -48.5903 H         1 UNK         0.1150 
    139 H139       -1.5168  -21.3937  -49.2653 H         1 UNK         0.0800 
    140 H140       -0.1600  -20.9618  -50.2772 H         1 UNK         0.0800 
    141 H141        1.6334  -22.9562  -47.7839 H         1 UNK         0.0800 
    142 H142        0.2770  -23.1355  -48.8435 H         1 UNK         0.0800 
    143 H143       -0.0069  -24.4364  -46.7864 H         1 UNK         0.0600 
    144 H144        0.8520  -22.0997  -45.4238 H         1 UNK         0.3000 
    145 H145       -0.0210  -22.2652  -42.5545 H         1 UNK         0.0600 
    146 H146        1.5336  -23.5856  -41.0967 H         1 UNK         0.0600 
    147 H147        0.1516  -24.5326  -41.6220 H         1 UNK         0.0600 
    148 H148        1.7169  -24.7818  -42.3804 H         1 UNK         0.0600 
    149 H149        1.7929  -21.1415  -43.0900 H         1 UNK         0.3000 
    150 H150        5.0119  -21.7054  -43.9775 H         1 UNK         0.0600 
    151 H151        4.3620  -22.0182  -46.3332 H         1 UNK         0.0600 
    152 H152        4.7333  -20.3230  -46.0581 H         1 UNK         0.0600 
    153 H153        3.0565  -20.8527  -46.1788 H         1 UNK         0.0600 
    154 H154        3.0720  -19.4783  -44.0961 H         1 UNK         0.3000 
    155 H155        3.6583  -18.6054  -40.6485 H         1 UNK         0.0600 
    156 H156        4.1853  -17.1617  -43.2955 H         1 UNK         0.0600 
    157 H157        5.3441  -17.3700  -41.9901 H         1 UNK         0.0600 
    158 H158        3.9101  -16.3858  -41.7373 H         1 UNK         0.0600 
    159 H159        1.8160  -17.5235  -42.4845 H         1 UNK         0.3000 
    160 H160       -0.9364  -19.7025  -41.7209 H         1 UNK         0.0600 
    161 H161       -1.8981  -17.5308  -40.9956 H         1 UNK         0.0600 
    162 H162       -0.2856  -16.8292  -40.8694 H         1 UNK         0.0600 
    163 H163       -0.7691  -18.1352  -39.7929 H         1 UNK         0.0600 
    164 H164       -0.2386  -17.2830  -43.2859 H         1 UNK         0.3000 
    165 H165       -0.9389  -18.8817  -46.3951 H         1 UNK         0.0600 
    166 H166       -2.3877  -16.8998  -46.5422 H         1 UNK         0.0600 
    167 H167       -3.0901  -17.9776  -45.3442 H         1 UNK         0.0600 
    168 H168       -2.2008  -16.5609  -44.8290 H         1 UNK         0.0600 
    169 H169       -0.1091  -16.2889  -46.0026 H         1 UNK         0.3000 
    170 H170        3.3051  -16.3713  -45.2721 H         1 UNK         0.0600 
    171 H171        3.1550  -16.7266  -47.7456 H         1 UNK         0.0600 
    172 H172        3.3532  -15.0255  -47.3547 H         1 UNK         0.0600 
    173 H173        1.7706  -15.6443  -47.8277 H         1 UNK         0.0600 
    174 H174        1.6092  -14.1977  -45.7662 H         1 UNK         0.3000 
    175 H175       -0.4742  -13.9830  -43.2604 H         1 UNK         0.0600 
    176 H176        0.5477  -12.1199  -41.9282 H         1 UNK         0.0600 
    177 H177        1.0502  -13.7093  -41.3756 H         1 UNK         0.0600 
    178 H178        2.1550  -12.7314  -42.3242 H         1 UNK         0.0600 
    179 H179       -0.5683  -12.6493  -44.9714 H         1 UNK         0.3000 
    180 H180        1.0789   -9.8429  -45.9163 H         1 UNK         0.0600 
    181 H181        1.2212  -12.2229  -47.8454 H         1 UNK         0.0600 
    182 H182        2.5312  -11.1131  -47.4656 H         1 UNK         0.0600 
    183 H183        1.1178  -10.5309  -48.3306 H         1 UNK         0.0600 
    184 H184       -1.0239  -11.3698  -47.1873 H         1 UNK         0.3000 
    185 H185       -3.4924  -10.9304  -44.7870 H         1 UNK         0.0600 
    186 H186       -3.4036   -9.0449  -47.2053 H         1 UNK         0.0600 
    187 H187       -4.8529   -9.5327  -46.3250 H         1 UNK         0.0600 
    188 H188       -3.6357   -8.5458  -45.5341 H         1 UNK         0.0600 
    189 H189       -3.7767  -11.4483  -47.5617 H         1 UNK         0.3000 
    190 H190       -1.7710  -21.6172  -45.6210 H         1 UNK         0.3000 
    191 H191       -4.1539  -22.1278  -47.1778 H         1 UNK         0.0600 
    192 H192       -3.7011  -19.8826  -46.3325 H         1 UNK         0.0600 
    193 H193       -3.7277  -20.4481  -44.6575 H         1 UNK         0.0600 
    194 H194       -5.1961  -20.4684  -45.6301 H         1 UNK         0.0600 
    195 H195       -2.9456  -23.1962  -44.0195 H         1 UNK         0.3000 
    196 H196       -5.3994  -24.5270  -43.2124 H         1 UNK         0.0600 
    197 H197       -3.9634  -25.5069  -41.4452 H         1 UNK         0.0600 
    198 H198       -3.7126  -23.7709  -41.5427 H         1 UNK         0.0600 
    199 H199       -2.5182  -24.8764  -42.2204 H         1 UNK         0.0600 
    200 H200       -2.4198  -25.4203  -44.9417 H         1 UNK         0.3000 
    201 H201       -2.9479  -28.2122  -45.1270 H         1 UNK         0.0600 
    202 H202       -0.6789  -27.1950  -45.3583 H         1 UNK         0.0600 
    203 H203       -1.1584  -26.4633  -46.8891 H         1 UNK         0.0600 
    204 H204       -1.0819  -28.2106  -46.7351 H         1 UNK         0.0600 
    205 H205       -3.4048  -25.5679  -47.5920 H         1 UNK         0.3000 
    206 H206       -5.3692  -27.2256  -49.0527 H         1 UNK         0.0600 
    207 H207       -3.1872  -28.1105  -49.8212 H         1 UNK         0.0600 
    208 H208       -3.9400  -27.2075  -51.1171 H         1 UNK         0.0600 
    209 H209       -2.6256  -26.4851  -50.1915 H         1 UNK         0.0600 
    210 H210       -5.5789  -24.6557  -47.7068 H         1 UNK         0.3000 
    211 H211       -6.7371  -22.8054  -47.8912 H         1 UNK         0.0600 
    212 H212       -7.6085  -23.8127  -50.6427 H         1 UNK         0.0600 
    213 H213       -8.3836  -22.5403  -49.7127 H         1 UNK         0.0600 
    214 H214       -8.3732  -24.1859  -49.0999 H         1 UNK         0.0600 
    215 H215       -5.2769  -23.1820  -51.1013 H         1 UNK         0.3000 
    216 H216       -3.9521  -20.5182  -50.8731 H         1 UNK         0.0600 
    217 H217       -4.4520  -20.0800  -53.2740 H         1 UNK         0.0600 
    218 H218       -5.9364  -20.1929  -52.3420 H         1 UNK         0.0600 
    219 H219       -5.4304  -21.5424  -53.3580 H         1 UNK         0.0600 
    220 H220       -3.8339  -23.8942  -51.6528 H         1 UNK         0.3000 
    221 H221       -2.2920  -25.3067  -52.3256 H         1 UNK         0.0600 
    222 H222       -0.3167  -23.2799  -51.1661 H         1 UNK         0.0600 
    223 H223       -1.3024  -24.3806  -50.1996 H         1 UNK         0.0600 
    224 H224       -0.0837  -25.0190  -51.2909 H         1 UNK         0.0600 
    225 H225       -2.9947  -23.3314  -54.3654 H         1 UNK         0.3000 
    226 H226       -2.5637  -22.6774  -56.4253 H         1 UNK         0.0600 
    227 H227       -2.0178  -25.0931  -56.8272 H         1 UNK         0.0600 
    228 H228       -1.1357  -24.0202  -57.8995 H         1 UNK         0.0600 
    229 H229       -0.3138  -24.7515  -56.5296 H         1 UNK         0.0600 
    230 H230       -1.1694  -21.3327  -54.1432 H         1 UNK         0.3000 
    231 H231        1.3463  -20.3354  -55.0947 H         1 UNK         0.0600 
    232 H232        0.6783  -20.3868  -52.6860 H         1 UNK         0.0600 
    233 H233       -0.5763  -19.1890  -53.0010 H         1 UNK         0.0600 
    234 H234        1.1181  -18.7638  -53.1947 H         1 UNK         0.0600 
    235 H235       -1.9077  -19.5197  -55.8773 H         1 UNK         0.3000 
    236 H236       -2.9267  -18.0799  -57.2072 H         1 UNK         0.0600 
    237 H237       -1.7617  -17.1868  -59.1715 H         1 UNK         0.0600 
    238 H238       -0.1916  -17.4422  -58.4250 H         1 UNK         0.0600 
    239 H239       -1.1985  -18.8210  -58.8645 H         1 UNK         0.0600 
    240 H240       -2.1530  -17.1607  -54.6099 H         1 UNK         0.3000 
    241 H241       -1.4700  -14.3619  -54.7344 H         1 UNK         0.0600 
    242 H242       -5.4867  -14.4173  -55.1462 H         1 UNK         0.3800 
    243 H243       -4.5302  -15.8478  -55.4248 H         1 UNK         0.3800 
    244 H244       -1.9947  -14.3945  -52.2718 H         1 UNK         0.0800 
    245 H245       -2.5698  -16.0368  -52.4332 H         1 UNK         0.0800 
    246 H246       -0.3157  -14.9125  -50.4119 H         1 UNK         0.0800 
    247 H247        1.0014  -16.0504  -50.5178 H         1 UNK         0.0800 
@<TRIPOS>BOND
     1    1    2 1    
     2    1  127 1    
     3    1  128 1    
     4    1  129 1    
     5    2    3 2    
     6    2    4 am   BACKBONE|DICT|INTERRES
     7    4    5 1    
     8    4  130 1    
     9    5    6 1    
    10    5   65 1    
    11    5  131 1    
    12    6    7 1    
    13    6  132 1    
    14    6  133 1    
    15    7    8 1    
    16    8    9 1    
    17    8  134 1    
    18    8  135 1    
    19    9   10 ar   
    20    9   14 ar   
    21   10   11 ar   
    22   10  136 1    
    23   11   12 ar   
    24   11  126 1    
    25   12   13 ar   
    26   12  137 1    
    27   13   14 ar   
    28   13   15 1    
    29   14  138 1    
    30   15   16 1    
    31   15  139 1    
    32   15  140 1    
    33   16   17 1    
    34   17   18 1    
    35   17  141 1    
    36   17  142 1    
    37   18   19 1    
    38   18   67 1    
    39   18  143 1    
    40   19   20 am   BACKBONE|DICT|INTERRES
    41   19  144 1    
    42   20   21 2    
    43   20   22 1    
    44   22   23 1    
    45   22   24 1    
    46   22  145 1    
    47   23  146 1    
    48   23  147 1    
    49   23  148 1    
    50   24   25 am   BACKBONE|DICT|INTERRES
    51   24  149 1    
    52   25   26 2    
    53   25   27 1    
    54   27   28 1    
    55   27   29 1    
    56   27  150 1    
    57   28  151 1    
    58   28  152 1    
    59   28  153 1    
    60   29   30 am   BACKBONE|DICT|INTERRES
    61   29  154 1    
    62   30   31 2    
    63   30   32 1    
    64   32   33 1    
    65   32   34 1    
    66   32  155 1    
    67   33  156 1    
    68   33  157 1    
    69   33  158 1    
    70   34   35 am   BACKBONE|DICT|INTERRES
    71   34  159 1    
    72   35   36 2    
    73   35   37 1    
    74   37   38 1    
    75   37   39 1    
    76   37  160 1    
    77   38  161 1    
    78   38  162 1    
    79   38  163 1    
    80   39   40 am   BACKBONE|DICT|INTERRES
    81   39  164 1    
    82   40   41 2    
    83   40   42 1    
    84   42   43 1    
    85   42   44 1    
    86   42  165 1    
    87   43  166 1    
    88   43  167 1    
    89   43  168 1    
    90   44   45 am   BACKBONE|DICT|INTERRES
    91   44  169 1    
    92   45   46 2    
    93   45   47 1    
    94   47   48 1    
    95   47   49 1    
    96   47  170 1    
    97   48  171 1    
    98   48  172 1    
    99   48  173 1    
   100   49   50 am   BACKBONE|DICT|INTERRES
   101   49  174 1    
   102   50   51 2    
   103   50   52 1    
   104   52   53 1    
   105   52   54 1    
   106   52  175 1    
   107   53  176 1    
   108   53  177 1    
   109   53  178 1    
   110   54   55 am   BACKBONE|DICT|INTERRES
   111   54  179 1    
   112   55   56 2    
   113   55   57 1    
   114   57   58 1    
   115   57   59 1    
   116   57  180 1    
   117   58  181 1    
   118   58  182 1    
   119   58  183 1    
   120   59   60 am   BACKBONE|DICT|INTERRES
   121   59  184 1    
   122   60   61 2    
   123   60   62 1    
   124   62   63 1    
   125   62   64 1    
   126   62  185 1    
   127   63  186 1    
   128   63  187 1    
   129   63  188 1    
   130   64   65 am   BACKBONE|DICT|INTERRES
   131   64  189 1    
   132   65   66 2    
   133   67   68 2    
   134   67   69 am   BACKBONE|DICT|INTERRES
   135   69   70 1    
   136   69  190 1    
   137   70   71 1    
   138   70   72 1    
   139   70  191 1    
   140   71  192 1    
   141   71  193 1    
   142   71  194 1    
   143   72   73 2    
   144   72   74 am   BACKBONE|DICT|INTERRES
   145   74   75 1    
   146   74  195 1    
   147   75   76 1    
   148   75   77 1    
   149   75  196 1    
   150   76  197 1    
   151   76  198 1    
   152   76  199 1    
   153   77   78 2    
   154   77   79 am   BACKBONE|DICT|INTERRES
   155   79   80 1    
   156   79  200 1    
   157   80   81 1    
   158   80   82 1    
   159   80  201 1    
   160   81  202 1    
   161   81  203 1    
   162   81  204 1    
   163   82   83 2    
   164   82   84 am   BACKBONE|DICT|INTERRES
   165   84   85 1    
   166   84  205 1    
   167   85   86 1    
   168   85   87 1    
   169   85  206 1    
   170   86  207 1    
   171   86  208 1    
   172   86  209 1    
   173   87   88 2    
   174   87   89 am   BACKBONE|DICT|INTERRES
   175   89   90 1    
   176   89  210 1    
   177   90   91 1    
   178   90   92 1    
   179   90  211 1    
   180   91  212 1    
   181   91  213 1    
   182   91  214 1    
   183   92   93 2    
   184   92   94 am   BACKBONE|DICT|INTERRES
   185   94   95 1    
   186   94  215 1    
   187   95   96 1    
   188   95   97 1    
   189   95  216 1    
   190   96  217 1    
   191   96  218 1    
   192   96  219 1    
   193   97   98 2    
   194   97   99 am   BACKBONE|DICT|INTERRES
   195   99  100 1    
   196   99  220 1    
   197  100  101 1    
   198  100  102 1    
   199  100  221 1    
   200  101  222 1    
   201  101  223 1    
   202  101  224 1    
   203  102  103 2    
   204  102  104 am   BACKBONE|DICT|INTERRES
   205  104  105 1    
   206  104  225 1    
   207  105  106 1    
   208  105  107 1    
   209  105  226 1    
   210  106  227 1    
   211  106  228 1    
   212  106  229 1    
   213  107  108 2    
   214  107  109 am   BACKBONE|DICT|INTERRES
   215  109  110 1    
   216  109  230 1    
   217  110  111 1    
   218  110  112 1    
   219  110  231 1    
   220  111  232 1    
   221  111  233 1    
   222  111  234 1    
   223  112  113 2    
   224  112  114 am   BACKBONE|DICT|INTERRES
   225  114  115 1    
   226  114  235 1    
   227  115  116 1    
   228  115  117 1    
   229  115  236 1    
   230  116  237 1    
   231  116  238 1    
   232  116  239 1    
   233  117  118 2    
   234  117  119 am   BACKBONE|DICT|INTERRES
   235  119  120 1    
   236  119  240 1    
   237  120  121 1    
   238  120  124 1    
   239  120  241 1    
   240  121  122 am   BACKBONE|DICT|INTERRES
   241  121  123 2    
   242  122  242 1    
   243  122  243 1    
   244  124  125 1    
   245  124  244 1    
   246  124  245 1    
   247  125  126 1    
   248  126  246 1    
   249  126  247 1    
@<TRIPOS>SUBSTRUCTURE
     1 UNK         1 GROUP             0       ****    0 ROOT    
