@<TRIPOS>MOLECULE
3R540
247   249    1
SMALL
USER_CHARGES


@<TRIPOS>ATOM
      1 CA          7.4143  -11.4742  -50.4891 C.3       0 UNK        -0.1800 
      2 C           6.7319  -12.4585  -49.5497 C.2       0 UNK         0.5000 
      3 O           7.3583  -13.4250  -49.1154 O.2       0 UNK        -0.5000 
      4 N           5.4526  -12.2153  -49.2337 N.am      1 UNK        -0.5000 
      5 CA          4.6379  -13.0452  -48.3342 C.3       1 UNK         0.1400 
      6 C6          3.1205  -12.8238  -48.5851 C.3       23 UNK        -0.0398 
      7 S7          2.1375  -14.3569  -48.4449 S.3       23 UNK        -0.2404 
      8 C8          2.1741  -14.9291  -50.1701 C.3       23 UNK        -0.0205 
      9 C9          1.3497  -16.1913  -50.3786 C.ar      23 UNK        -0.0193 
     10 C10         0.0041  -16.0971  -50.7451 C.ar      23 UNK        -0.1150 
     11 C11        -0.7381  -17.2477  -51.0296 C.ar      23 UNK        -0.0193 
     12 C12        -0.1307  -18.5024  -50.9263 C.ar      23 UNK        -0.1150 
     13 C13         1.2102  -18.6104  -50.5478 C.ar      23 UNK        -0.0193 
     14 C14         1.9444  -17.4520  -50.2710 C.ar      23 UNK        -0.1150 
     15 C15         1.8815  -19.9730  -50.4832 C.3       23 UNK        -0.0205 
     16 S16         1.9065  -20.6309  -48.7903 S.3       23 UNK        -0.2404 
     17 C17         0.1870  -21.2074  -48.5834 C.3       23 UNK        -0.0398 
     18 CA          0.1275  -22.4174  -47.6231 C.3       11 UNK         0.1400 
     19 N           0.4263  -22.0473  -46.2389 N.am      11 UNK        -0.5000 
     20 C           0.6729  -22.9170  -45.2515 C.2       10 UNK         0.5000 
     21 O           0.7445  -24.1343  -45.4179 O.2       10 UNK        -0.5000 
     22 CA          0.8134  -22.3335  -43.8331 C.3       10 UNK         0.1400 
     23 CB          2.2313  -21.7926  -43.5960 C.3       10 UNK        -0.1800 
     24 N          -0.1694  -21.2826  -43.5601 N.am      10 UNK        -0.5000 
     25 C          -1.4940  -21.4824  -43.5070 C.2       9 UNK         0.5000 
     26 O          -2.0199  -22.5895  -43.6277 O.2       9 UNK        -0.5000 
     27 CA         -2.3833  -20.2358  -43.3347 C.3       9 UNK         0.1400 
     28 CB         -2.4430  -19.7996  -41.8635 C.3       9 UNK        -0.1800 
     29 N          -1.9529  -19.1134  -44.1716 N.am      9 UNK        -0.5000 
     30 C          -1.9843  -19.1221  -45.5129 C.2       8 UNK         0.5000 
     31 O          -2.4309  -20.0560  -46.1746 O.2       8 UNK        -0.5000 
     32 CA         -1.3734  -17.9160  -46.2473 C.3       8 UNK         0.1400 
     33 CB         -2.3992  -16.7809  -46.3732 C.3       8 UNK        -0.1800 
     34 N          -0.1505  -17.4242  -45.6119 N.am      8 UNK        -0.5000 
     35 C           0.9676  -18.1508  -45.4696 C.2       7 UNK         0.5000 
     36 O           1.0825  -19.3055  -45.8730 O.2       7 UNK        -0.5000 
     37 CA          2.1251  -17.5198  -44.6790 C.3       7 UNK         0.1400 
     38 CB          2.8660  -16.4709  -45.5152 C.3       7 UNK        -0.1800 
     39 N           1.6782  -16.9239  -43.4226 N.am      7 UNK        -0.5000 
     40 C           1.1202  -17.6054  -42.4131 C.2       6 UNK         0.5000 
     41 O           0.9655  -18.8265  -42.4116 O.2       6 UNK        -0.5000 
     42 CA          0.6088  -16.7745  -41.2258 C.3       6 UNK         0.1400 
     43 CB          1.7529  -16.4321  -40.2594 C.3       6 UNK        -0.1800 
     44 N          -0.0451  -15.5444  -41.6707 N.am      6 UNK        -0.5000 
     45 C          -1.2424  -15.5009  -42.2709 C.2       5 UNK         0.5000 
     46 O          -1.9363  -16.4947  -42.4878 O.2       5 UNK        -0.5000 
     47 CA         -1.7278  -14.1151  -42.7353 C.3       5 UNK         0.1400 
     48 CB         -2.3293  -13.3271  -41.5619 C.3       5 UNK        -0.1800 
     49 N          -0.6663  -13.3235  -43.3608 N.am      5 UNK        -0.5000 
     50 C          -0.0858  -13.6408  -44.5259 C.2       4 UNK         0.5000 
     51 O          -0.3946  -14.6238  -45.1946 O.2       4 UNK        -0.5000 
     52 CA          1.0531  -12.7326  -45.0168 C.3       4 UNK         0.1400 
     53 CB          0.4910  -11.5403  -45.8046 C.3       4 UNK        -0.1800 
     54 N           1.9524  -12.2389  -43.9735 N.am      4 UNK        -0.5000 
     55 C           2.6161  -12.9849  -43.0809 C.2       3 UNK         0.5000 
     56 O           2.4127  -14.1859  -42.8968 O.2       3 UNK        -0.5000 
     57 CA          3.7440  -12.2637  -42.3174 C.3       3 UNK         0.1400 
     58 CB          4.1933  -13.0373  -41.0651 C.3       3 UNK        -0.1800 
     59 N           4.8954  -12.0821  -43.2016 N.am      3 UNK        -0.5000 
     60 C           4.9711  -11.1936  -44.2016 C.2       2 UNK         0.5000 
     61 O           4.1320  -10.3097  -44.3897 O.2       2 UNK        -0.5000 
     62 CA          6.1495  -11.3257  -45.1876 C.3       2 UNK         0.1400 
     63 CB          7.2869  -12.2523  -44.7010 C.3       2 UNK        -0.1800 
     64 N           5.6834  -11.7337  -46.5182 N.am      2 UNK        -0.5000 
     65 C           5.0154  -12.8545  -46.8446 C.2       1 UNK         0.5000 
     66 O           4.7095  -13.7263  -46.0326 O.2       1 UNK        -0.5000 
     67 C          -1.2094  -23.1762  -47.7296 C.2       11 UNK         0.5000 
     68 O          -1.2610  -24.1920  -48.4209 O.2       11 UNK        -0.5000 
     69 N          -2.2471  -22.7343  -47.0047 N.am      12 UNK        -0.5000 
     70 CA         -3.5455  -23.4068  -46.9305 C.3       12 UNK         0.1400 
     71 CB         -4.5573  -22.5347  -46.1737 C.3       12 UNK        -0.1800 
     72 C          -3.4653  -24.8166  -46.3218 C.2       12 UNK         0.5000 
     73 O          -4.1197  -25.7284  -46.8277 O.2       12 UNK        -0.5000 
     74 N          -2.6138  -24.9938  -45.3020 N.am      13 UNK        -0.5000 
     75 CA         -2.2861  -26.2955  -44.7118 C.3       13 UNK         0.1400 
     76 CB         -1.4730  -26.0819  -43.4262 C.3       13 UNK        -0.1800 
     77 C          -1.5459  -27.2410  -45.6841 C.2       13 UNK         0.5000 
     78 O          -1.6462  -28.4591  -45.5361 O.2       13 UNK        -0.5000 
     79 N          -0.8557  -26.6693  -46.6802 N.am      14 UNK        -0.5000 
     80 CA         -0.2071  -27.3696  -47.7909 C.3       14 UNK         0.1400 
     81 CB          1.1109  -26.6484  -48.1242 C.3       14 UNK        -0.1800 
     82 C          -1.1204  -27.4869  -49.0341 C.2       14 UNK         0.5000 
     83 O          -0.6371  -27.8753  -50.0981 O.2       14 UNK        -0.5000 
     84 N          -2.4129  -27.1557  -48.8840 N.am      15 UNK        -0.5000 
     85 CA         -3.4909  -27.2018  -49.8798 C.3       15 UNK         0.1400 
     86 CB         -3.6542  -28.6137  -50.4810 C.3       15 UNK        -0.1800 
     87 C          -3.4305  -26.0995  -50.9590 C.2       15 UNK         0.5000 
     88 O          -4.2022  -26.1546  -51.9170 O.2       15 UNK        -0.5000 
     89 N          -2.5835  -25.0809  -50.7693 N.am      16 UNK        -0.5000 
     90 CA         -2.5254  -23.8621  -51.5776 C.3       16 UNK         0.1400 
     91 CB         -1.0502  -23.4858  -51.8090 C.3       16 UNK        -0.1800 
     92 C          -3.3356  -22.7576  -50.8712 C.2       16 UNK         0.5000 
     93 O          -2.7961  -21.7081  -50.5203 O.2       16 UNK        -0.5000 
     94 N          -4.6150  -23.0608  -50.6222 N.am      17 UNK        -0.5000 
     95 CA         -5.5765  -22.2232  -49.9092 C.3       17 UNK         0.1400 
     96 CB         -6.5853  -23.1574  -49.2094 C.3       17 UNK        -0.1800 
     97 C          -6.2801  -21.2244  -50.8499 C.2       17 UNK         0.5000 
     98 O          -5.8159  -20.9766  -51.9664 O.2       17 UNK        -0.5000 
     99 N          -7.4104  -20.6739  -50.3861 N.am      18 UNK        -0.5000 
    100 CA        -8.3259  -19.8411  -51.1665 C.3       18 UNK         0.1400 
    101 CB        -9.4733  -19.3677  -50.2628 C.3       18 UNK        -0.1800 
    102 C         -8.8728  -20.5943  -52.3932 C.2       18 UNK         0.5000 
    103 O         -9.2370  -21.7661  -52.2750 O.2       18 UNK        -0.5000 
    104 N         -8.8703  -19.9199  -53.5485 N.am      19 UNK        -0.5000 
    105 CA        -9.2146  -20.3888  -54.8973 C.3       19 UNK         0.1400 
    106 CB       -10.6392  -20.9723  -54.9631 C.3       19 UNK        -0.1800 
    107 C         -8.1778  -21.3516  -55.5112 C.2       19 UNK         0.5000 
    108 O         -7.9750  -21.3142  -56.7255 O.2       19 UNK        -0.5000 
    109 N         -7.5207  -22.1718  -54.6807 N.am      20 UNK        -0.5000 
    110 CA        -6.4210  -23.0553  -55.0670 C.3       20 UNK         0.1400 
    111 CB        -6.1620  -24.0662  -53.9409 C.3       20 UNK        -0.1800 
    112 C         -5.1373  -22.2774  -55.4129 C.2       20 UNK         0.5000 
    113 O         -4.4352  -22.6580  -56.3506 O.2       20 UNK        -0.5000 
    114 N         -4.8697  -21.1958  -54.6711 N.am      21 UNK        -0.5000 
    115 CA        -3.7605  -20.2761  -54.9086 C.3       21 UNK         0.1400 
    116 CB        -2.4979  -20.7599  -54.1752 C.3       21 UNK        -0.1800 
    117 C         -4.1263  -18.8460  -54.4885 C.2       21 UNK         0.5000 
    118 O         -3.8929  -17.9137  -55.2589 O.2       21 UNK        -0.5000 
    119 N         -4.6726  -18.6899  -53.2764 N.am      22 UNK        -0.5000 
    120 CA        -5.0446  -17.3904  -52.6965 C.3       22 UNK         0.1400 
    121 C         -6.4177  -16.8719  -53.2075 C.2       22 UNK         0.5000 
    122 N         -6.6801  -15.5779  -53.0881 N.am      22 UNK        -0.7600 
    123 O         -7.2635  -17.6254  -53.6831 O.2       22 UNK        -0.5000 
    124 C124       -4.9928  -17.4236  -51.1428 C.3       23 UNK        -0.0398 
    125 S125       -3.3812  -17.8660  -50.3883 S.3       23 UNK        -0.2404 
    126 C126       -2.1680  -17.1300  -51.5309 C.3       23 UNK        -0.0205 
    127 H127        6.7423  -10.6720  -50.7950 H         1 UNK         0.0600 
    128 H128        7.7588  -11.9892  -51.3858 H         1 UNK         0.0600 
    129 H129        8.2784  -11.0256  -49.9991 H         1 UNK         0.0600 
    130 H130        4.9944  -11.4048  -49.6264 H         1 UNK         0.3000 
    131 H131        4.8716  -14.0844  -48.5771 H         1 UNK         0.0600 
    132 H132        2.7072  -12.0770  -47.9055 H         1 UNK         0.0800 
    133 H133        2.9515  -12.4175  -49.5832 H         1 UNK         0.0800 
    134 H134        1.8008  -14.1381  -50.8225 H         1 UNK         0.0800 
    135 H135        3.2088  -15.1073  -50.4674 H         1 UNK         0.0800 
    136 H136       -0.4539  -15.1228  -50.8427 H         1 UNK         0.1150 
    137 H137       -0.7010  -19.3920  -51.1577 H         1 UNK         0.1150 
    138 H138        2.9859  -17.5317  -49.9928 H         1 UNK         0.1150 
    139 H139        1.3907  -20.6807  -51.1533 H         1 UNK         0.0800 
    140 H140        2.9094  -19.8868  -50.8382 H         1 UNK         0.0800 
    141 H141       -0.2107  -21.4717  -49.5635 H         1 UNK         0.0800 
    142 H142       -0.4285  -20.3846  -48.2178 H         1 UNK         0.0800 
    143 H143        0.8985  -23.1243  -47.9379 H         1 UNK         0.0600 
    144 H144        0.4705  -21.0504  -46.0370 H         1 UNK         0.3000 
    145 H145        0.6387  -23.1448  -43.1235 H         1 UNK         0.0600 
    146 H146        2.3512  -21.4385  -42.5720 H         1 UNK         0.0600 
    147 H147        2.9779  -22.5701  -43.7624 H         1 UNK         0.0600 
    148 H148        2.4655  -20.9641  -44.2645 H         1 UNK         0.0600 
    149 H149        0.1931  -20.3454  -43.4106 H         1 UNK         0.3000 
    150 H150       -3.3948  -20.5086  -43.6422 H         1 UNK         0.0600 
    151 H151       -2.7867  -20.6170  -41.2285 H         1 UNK         0.0600 
    152 H152       -3.1355  -18.9688  -41.7273 H         1 UNK         0.0600 
    153 H153       -1.4675  -19.4850  -41.4935 H         1 UNK         0.0600 
    154 H154       -1.6014  -18.2927  -43.6925 H         1 UNK         0.3000 
    155 H155       -1.1105  -18.2405  -47.2563 H         1 UNK         0.0600 
    156 H156       -2.6654  -16.3692  -45.3989 H         1 UNK         0.0600 
    157 H157       -2.0110  -15.9687  -46.9882 H         1 UNK         0.0600 
    158 H158       -3.3162  -17.1341  -46.8466 H         1 UNK         0.0600 
    159 H159       -0.1670  -16.4599  -45.2872 H         1 UNK         0.3000 
    160 H160        2.8321  -18.3157  -44.4356 H         1 UNK         0.0600 
    161 H161        3.7474  -16.1014  -44.9912 H         1 UNK         0.0600 
    162 H162        2.2290  -15.6159  -45.7357 H         1 UNK         0.0600 
    163 H163        3.1996  -16.8872  -46.4666 H         1 UNK         0.0600 
    164 H164        1.8058  -15.9201  -43.3188 H         1 UNK         0.3000 
    165 H165       -0.1232  -17.3775  -40.6843 H         1 UNK         0.0600 
    166 H166        1.3861  -15.8807  -39.3936 H         1 UNK         0.0600 
    167 H167        2.2320  -17.3390  -39.8884 H         1 UNK         0.0600 
    168 H168        2.5236  -15.8284  -40.7396 H         1 UNK         0.0600 
    169 H169        0.5005  -14.6960  -41.6127 H         1 UNK         0.3000 
    170 H170       -2.5142  -14.2720  -43.4769 H         1 UNK         0.0600 
    171 H171       -1.5836  -13.1094  -40.7962 H         1 UNK         0.0600 
    172 H172       -2.7515  -12.3801  -41.8985 H         1 UNK         0.0600 
    173 H173       -3.1338  -13.8897  -41.0864 H         1 UNK         0.0600 
    174 H174       -0.3457  -12.5037  -42.8669 H         1 UNK         0.3000 
    175 H175        1.6672  -13.3240  -45.6964 H         1 UNK         0.0600 
    176 H176        1.2907  -10.9316  -46.2267 H         1 UNK         0.0600 
    177 H177       -0.1227  -10.8956  -45.1743 H         1 UNK         0.0600 
    178 H178       -0.1307  -11.8800  -46.6343 H         1 UNK         0.0600 
    179 H179        2.2598  -11.2790  -44.0771 H         1 UNK         0.3000 
    180 H180        3.3733  -11.2874  -41.9981 H         1 UNK         0.0600 
    181 H181        4.6050  -14.0153  -41.3181 H         1 UNK         0.0600 
    182 H182        3.3553  -13.1997  -40.3860 H         1 UNK         0.0600 
    183 H183        4.9555  -12.4859  -40.5145 H         1 UNK         0.0600 
    184 H184        5.6014  -12.8025  -43.1601 H         1 UNK         0.3000 
    185 H185        6.5675  -10.3240  -45.2972 H         1 UNK         0.0600 
    186 H186        6.9659  -13.2893  -44.5981 H         1 UNK         0.0600 
    187 H187        8.1222  -12.2381  -45.4013 H         1 UNK         0.0600 
    188 H188        7.6743  -11.9253  -43.7352 H         1 UNK         0.0600 
    189 H189        5.8684  -11.0749  -47.2608 H         1 UNK         0.3000 
    190 H190       -2.1660  -21.8495  -46.5084 H         1 UNK         0.3000 
    191 H191       -3.8971  -23.5260  -47.9540 H         1 UNK         0.0600 
    192 H192       -4.6850  -21.5668  -46.6581 H         1 UNK         0.0600 
    193 H193       -5.5370  -23.0128  -46.1403 H         1 UNK         0.0600 
    194 H194       -4.2449  -22.3554  -45.1453 H         1 UNK         0.0600 
    195 H195       -2.1528  -24.1806  -44.9056 H         1 UNK         0.3000 
    196 H196       -3.2254  -26.7810  -44.4391 H         1 UNK         0.0600 
    197 H197       -1.2670  -27.0324  -42.9327 H         1 UNK         0.0600 
    198 H198       -2.0148  -25.4568  -42.7161 H         1 UNK         0.0600 
    199 H199       -0.5149  -25.6041  -43.6282 H         1 UNK         0.0600 
    200 H200       -0.8279  -25.6583  -46.7256 H         1 UNK         0.3000 
    201 H201        0.0405  -28.3868  -47.4818 H         1 UNK         0.0600 
    202 H202        1.7427  -26.5539  -47.2408 H         1 UNK         0.0600 
    203 H203        0.9375  -25.6473  -48.5181 H         1 UNK         0.0600 
    204 H204        1.6815  -27.1993  -48.8726 H         1 UNK         0.0600 
    205 H205       -2.7021  -26.8090  -47.9769 H         1 UNK         0.3000 
    206 H206       -4.4014  -26.9942  -49.3162 H         1 UNK         0.0600 
    207 H207       -3.7065  -29.3725  -49.7001 H         1 UNK         0.0600 
    208 H208       -4.5740  -28.6861  -51.0625 H         1 UNK         0.0600 
    209 H209       -2.8310  -28.8710  -51.1475 H         1 UNK         0.0600 
    210 H210       -2.0350  -25.0556  -49.9128 H         1 UNK         0.3000 
    211 H211       -2.9830  -24.0228  -52.5560 H         1 UNK         0.0600 
    212 H212       -0.5056  -23.3814  -50.8718 H         1 UNK         0.0600 
    213 H213       -0.9596  -22.5440  -52.3503 H         1 UNK         0.0600 
    214 H214       -0.5436  -24.2492  -52.3994 H         1 UNK         0.0600 
    215 H215       -4.9666  -23.9391  -50.9754 H         1 UNK         0.3000 
    216 H216       -5.0490  -21.6423  -49.1502 H         1 UNK         0.0600 
    217 H217       -7.2004  -22.6156  -48.4904 H         1 UNK         0.0600 
    218 H218       -6.0843  -23.9519  -48.6568 H         1 UNK         0.0600 
    219 H219       -7.2553  -23.6331  -49.9274 H         1 UNK         0.0600 
    220 H220       -7.7381  -20.9494  -49.4725 H         1 UNK         0.3000 
    221 H221       -7.7741  -18.9649  -51.5027 H         1 UNK         0.0600 
    222 H222      -10.0512  -20.2068  -49.8729 H         1 UNK         0.0600 
    223 H223       -9.0981  -18.7939  -49.4151 H         1 UNK         0.0600 
    224 H224      -10.1605  -18.7228  -50.8121 H         1 UNK         0.0600 
    225 H225       -8.4474  -18.9918  -53.5406 H         1 UNK         0.3000 
    226 H226       -9.2035  -19.4924  -55.5193 H         1 UNK         0.0600 
    227 H227      -11.3702  -20.2778  -54.5492 H         1 UNK         0.0600 
    228 H228      -10.9271  -21.1700  -55.9963 H         1 UNK         0.0600 
    229 H229      -10.7233  -21.9140  -54.4205 H         1 UNK         0.0600 
    230 H230       -7.7848  -22.1602  -53.7027 H         1 UNK         0.3000 
    231 H231       -6.7247  -23.6099  -55.9574 H         1 UNK         0.0600 
    232 H232       -5.8978  -23.5682  -53.0098 H         1 UNK         0.0600 
    233 H233       -5.3427  -24.7390  -54.1979 H         1 UNK         0.0600 
    234 H234       -7.0416  -24.6819  -53.7526 H         1 UNK         0.0600 
    235 H235       -5.4763  -20.9809  -53.8854 H         1 UNK         0.3000 
    236 H236       -3.5461  -20.2469  -55.9793 H         1 UNK         0.0600 
    237 H237       -2.2065  -21.7581  -54.5018 H         1 UNK         0.0600 
    238 H238       -1.6556  -20.0944  -54.3676 H         1 UNK         0.0600 
    239 H239       -2.6505  -20.7887  -53.0965 H         1 UNK         0.0600 
    240 H240       -4.8759  -19.5064  -52.7078 H         1 UNK         0.3000 
    241 H241       -4.3207  -16.6514  -53.0415 H         1 UNK         0.0600 
    242 H242       -6.0099  -14.9288  -52.7058 H         1 UNK         0.3800 
    243 H243       -7.5710  -15.2319  -53.4093 H         1 UNK         0.3800 
    244 H244       -5.2702  -16.4487  -50.7388 H         1 UNK         0.0800 
    245 H245       -5.7328  -18.1237  -50.7560 H         1 UNK         0.0800 
    246 H246       -2.4262  -16.0833  -51.6980 H         1 UNK         0.0800 
    247 H247       -2.2226  -17.6278  -52.4987 H         1 UNK         0.0800 
@<TRIPOS>BOND
     1    1    2 1    
     2    1  127 1    
     3    1  128 1    
     4    1  129 1    
     5    2    3 2    
     6    2    4 am   BACKBONE|DICT|INTERRES
     7    4    5 1    
     8    4  130 1    
     9    5    6 1    
    10    5   65 1    
    11    5  131 1    
    12    6    7 1    
    13    6  132 1    
    14    6  133 1    
    15    7    8 1    
    16    8    9 1    
    17    8  134 1    
    18    8  135 1    
    19    9   10 ar   
    20    9   14 ar   
    21   10   11 ar   
    22   10  136 1    
    23   11   12 ar   
    24   11  126 1    
    25   12   13 ar   
    26   12  137 1    
    27   13   14 ar   
    28   13   15 1    
    29   14  138 1    
    30   15   16 1    
    31   15  139 1    
    32   15  140 1    
    33   16   17 1    
    34   17   18 1    
    35   17  141 1    
    36   17  142 1    
    37   18   19 1    
    38   18   67 1    
    39   18  143 1    
    40   19   20 am   BACKBONE|DICT|INTERRES
    41   19  144 1    
    42   20   21 2    
    43   20   22 1    
    44   22   23 1    
    45   22   24 1    
    46   22  145 1    
    47   23  146 1    
    48   23  147 1    
    49   23  148 1    
    50   24   25 am   BACKBONE|DICT|INTERRES
    51   24  149 1    
    52   25   26 2    
    53   25   27 1    
    54   27   28 1    
    55   27   29 1    
    56   27  150 1    
    57   28  151 1    
    58   28  152 1    
    59   28  153 1    
    60   29   30 am   BACKBONE|DICT|INTERRES
    61   29  154 1    
    62   30   31 2    
    63   30   32 1    
    64   32   33 1    
    65   32   34 1    
    66   32  155 1    
    67   33  156 1    
    68   33  157 1    
    69   33  158 1    
    70   34   35 am   BACKBONE|DICT|INTERRES
    71   34  159 1    
    72   35   36 2    
    73   35   37 1    
    74   37   38 1    
    75   37   39 1    
    76   37  160 1    
    77   38  161 1    
    78   38  162 1    
    79   38  163 1    
    80   39   40 am   BACKBONE|DICT|INTERRES
    81   39  164 1    
    82   40   41 2    
    83   40   42 1    
    84   42   43 1    
    85   42   44 1    
    86   42  165 1    
    87   43  166 1    
    88   43  167 1    
    89   43  168 1    
    90   44   45 am   BACKBONE|DICT|INTERRES
    91   44  169 1    
    92   45   46 2    
    93   45   47 1    
    94   47   48 1    
    95   47   49 1    
    96   47  170 1    
    97   48  171 1    
    98   48  172 1    
    99   48  173 1    
   100   49   50 am   BACKBONE|DICT|INTERRES
   101   49  174 1    
   102   50   51 2    
   103   50   52 1    
   104   52   53 1    
   105   52   54 1    
   106   52  175 1    
   107   53  176 1    
   108   53  177 1    
   109   53  178 1    
   110   54   55 am   BACKBONE|DICT|INTERRES
   111   54  179 1    
   112   55   56 2    
   113   55   57 1    
   114   57   58 1    
   115   57   59 1    
   116   57  180 1    
   117   58  181 1    
   118   58  182 1    
   119   58  183 1    
   120   59   60 am   BACKBONE|DICT|INTERRES
   121   59  184 1    
   122   60   61 2    
   123   60   62 1    
   124   62   63 1    
   125   62   64 1    
   126   62  185 1    
   127   63  186 1    
   128   63  187 1    
   129   63  188 1    
   130   64   65 am   BACKBONE|DICT|INTERRES
   131   64  189 1    
   132   65   66 2    
   133   67   68 2    
   134   67   69 am   BACKBONE|DICT|INTERRES
   135   69   70 1    
   136   69  190 1    
   137   70   71 1    
   138   70   72 1    
   139   70  191 1    
   140   71  192 1    
   141   71  193 1    
   142   71  194 1    
   143   72   73 2    
   144   72   74 am   BACKBONE|DICT|INTERRES
   145   74   75 1    
   146   74  195 1    
   147   75   76 1    
   148   75   77 1    
   149   75  196 1    
   150   76  197 1    
   151   76  198 1    
   152   76  199 1    
   153   77   78 2    
   154   77   79 am   BACKBONE|DICT|INTERRES
   155   79   80 1    
   156   79  200 1    
   157   80   81 1    
   158   80   82 1    
   159   80  201 1    
   160   81  202 1    
   161   81  203 1    
   162   81  204 1    
   163   82   83 2    
   164   82   84 am   BACKBONE|DICT|INTERRES
   165   84   85 1    
   166   84  205 1    
   167   85   86 1    
   168   85   87 1    
   169   85  206 1    
   170   86  207 1    
   171   86  208 1    
   172   86  209 1    
   173   87   88 2    
   174   87   89 am   BACKBONE|DICT|INTERRES
   175   89   90 1    
   176   89  210 1    
   177   90   91 1    
   178   90   92 1    
   179   90  211 1    
   180   91  212 1    
   181   91  213 1    
   182   91  214 1    
   183   92   93 2    
   184   92   94 am   BACKBONE|DICT|INTERRES
   185   94   95 1    
   186   94  215 1    
   187   95   96 1    
   188   95   97 1    
   189   95  216 1    
   190   96  217 1    
   191   96  218 1    
   192   96  219 1    
   193   97   98 2    
   194   97   99 am   BACKBONE|DICT|INTERRES
   195   99  100 1    
   196   99  220 1    
   197  100  101 1    
   198  100  102 1    
   199  100  221 1    
   200  101  222 1    
   201  101  223 1    
   202  101  224 1    
   203  102  103 2    
   204  102  104 am   BACKBONE|DICT|INTERRES
   205  104  105 1    
   206  104  225 1    
   207  105  106 1    
   208  105  107 1    
   209  105  226 1    
   210  106  227 1    
   211  106  228 1    
   212  106  229 1    
   213  107  108 2    
   214  107  109 am   BACKBONE|DICT|INTERRES
   215  109  110 1    
   216  109  230 1    
   217  110  111 1    
   218  110  112 1    
   219  110  231 1    
   220  111  232 1    
   221  111  233 1    
   222  111  234 1    
   223  112  113 2    
   224  112  114 am   BACKBONE|DICT|INTERRES
   225  114  115 1    
   226  114  235 1    
   227  115  116 1    
   228  115  117 1    
   229  115  236 1    
   230  116  237 1    
   231  116  238 1    
   232  116  239 1    
   233  117  118 2    
   234  117  119 am   BACKBONE|DICT|INTERRES
   235  119  120 1    
   236  119  240 1    
   237  120  121 1    
   238  120  124 1    
   239  120  241 1    
   240  121  122 am   BACKBONE|DICT|INTERRES
   241  121  123 2    
   242  122  242 1    
   243  122  243 1    
   244  124  125 1    
   245  124  244 1    
   246  124  245 1    
   247  125  126 1    
   248  126  246 1    
   249  126  247 1    
@<TRIPOS>SUBSTRUCTURE
     1 UNK         1 GROUP             0       ****    0 ROOT    
