@<TRIPOS>MOLECULE
3R540
247   249    1
SMALL
USER_CHARGES


@<TRIPOS>ATOM
      1 CA          2.3497  -12.7133  -45.6707 C.3       0 UNK        -0.1800 
      2 C           1.3414  -11.7876  -46.3475 C.2       0 UNK         0.5000 
      3 O           1.5199  -10.5724  -46.3131 O.2       0 UNK        -0.5000 
      4 N           0.2737  -12.3021  -46.9741 N.am      1 UNK        -0.5000 
      5 CA         -0.0926  -13.7225  -47.0973 C.3       1 UNK         0.1400 
      6 C6         -1.0103  -13.9724  -48.3188 C.3       23 UNK        -0.0398 
      7 S7         -0.1489  -13.6176  -49.8884 S.3       23 UNK        -0.2404 
      8 C8         -1.3967  -14.1187  -51.1247 C.3       23 UNK        -0.0205 
      9 C9         -1.8318  -15.5800  -51.0310 C.ar      23 UNK        -0.0193 
     10 C10        -3.1716  -15.9132  -51.2525 C.ar      23 UNK        -0.1150 
     11 C11        -3.6014  -17.2410  -51.1716 C.ar      23 UNK        -0.0193 
     12 C12        -2.6816  -18.2409  -50.8413 C.ar      23 UNK        -0.1150 
     13 C13        -1.3352  -17.9275  -50.6435 C.ar      23 UNK        -0.0193 
     14 C14        -0.9149  -16.5996  -50.7509 C.ar      23 UNK        -0.1150 
     15 C15        -0.3261  -19.0211  -50.3346 C.3       23 UNK        -0.0205 
     16 S16         0.1419  -19.0271  -48.5789 S.3       23 UNK        -0.2404 
     17 C17        -1.3336  -19.7685  -47.7954 C.3       23 UNK        -0.0398 
     18 CA         -1.0929  -21.2409  -47.3902 C.3       11 UNK         0.1400 
     19 N           0.0433  -21.4026  -46.4768 N.am      11 UNK        -0.5000 
     20 C           0.6975  -22.5575  -46.3019 C.2       10 UNK         0.5000 
     21 O           0.3917  -23.6005  -46.8797 O.2       10 UNK        -0.5000 
     22 CA          1.8596  -22.5662  -45.2926 C.3       10 UNK         0.1400 
     23 CB          3.1450  -22.0242  -45.9335 C.3       10 UNK        -0.1800 
     24 N           1.5787  -21.8348  -44.0551 N.am      10 UNK        -0.5000 
     25 C           0.6397  -22.1916  -43.1669 C.2       9 UNK         0.5000 
     26 O          -0.1608  -23.1061  -43.3564 O.2       9 UNK        -0.5000 
     27 CA          0.5790  -21.3991  -41.8527 C.3       9 UNK         0.1400 
     28 CB          1.7341  -21.8005  -40.9220 C.3       9 UNK        -0.1800 
     29 N           0.6411  -19.9646  -42.1097 N.am      9 UNK        -0.5000 
     30 C          -0.4270  -19.1608  -42.1991 C.2       8 UNK         0.5000 
     31 O          -1.5828  -19.5279  -41.9881 O.2       8 UNK        -0.5000 
     32 CA         -0.1643  -17.6954  -42.6038 C.3       8 UNK         0.1400 
     33 CB          0.0668  -16.8434  -41.3473 C.3       8 UNK        -0.1800 
     34 N           0.9807  -17.5195  -43.4984 N.am      8 UNK        -0.5000 
     35 C           1.1369  -18.1206  -44.6886 C.2       7 UNK         0.5000 
     36 O           0.3122  -18.8874  -45.1801 O.2       7 UNK        -0.5000 
     37 CA          2.4868  -17.9104  -45.4033 C.3       7 UNK         0.1400 
     38 CB          2.4228  -16.6696  -46.3048 C.3       7 UNK        -0.1800 
     39 N           3.6145  -17.7667  -44.4792 N.am      7 UNK        -0.5000 
     40 C           3.9222  -18.5876  -43.4634 C.2       6 UNK         0.5000 
     41 O           3.3788  -19.6788  -43.2813 O.2       6 UNK        -0.5000 
     42 CA          4.9514  -18.0753  -42.4346 C.3       6 UNK         0.1400 
     43 CB          6.2683  -18.8549  -42.5654 C.3       6 UNK        -0.1800 
     44 N           5.2399  -16.6357  -42.5085 N.am      6 UNK        -0.5000 
     45 C           4.3634  -15.6302  -42.3620 C.2       5 UNK         0.5000 
     46 O           3.1551  -15.7861  -42.1606 O.2       5 UNK        -0.5000 
     47 CA          4.9394  -14.2200  -42.5470 C.3       5 UNK         0.1400 
     48 CB          5.3995  -14.0056  -44.0034 C.3       5 UNK        -0.1800 
     49 N           3.9418  -13.2140  -42.1893 N.am      5 UNK        -0.5000 
     50 C           4.2278  -11.9566  -41.8300 C.2       4 UNK         0.5000 
     51 O           5.3789  -11.5254  -41.7430 O.2       4 UNK        -0.5000 
     52 CA          3.0573  -11.0005  -41.5300 C.3       4 UNK         0.1400 
     53 CB          2.8923   -9.9766  -42.6642 C.3       4 UNK        -0.1800 
     54 N           1.7684  -11.6560  -41.3111 N.am      4 UNK        -0.5000 
     55 C           1.3929  -12.2752  -40.1883 C.2       3 UNK         0.5000 
     56 O           2.1538  -12.4836  -39.2429 O.2       3 UNK        -0.5000 
     57 CA         -0.0846  -12.7119  -40.0800 C.3       3 UNK         0.1400 
     58 CB         -0.9619  -11.5380  -39.6058 C.3       3 UNK        -0.1800 
     59 N          -0.6644  -13.3454  -41.2748 N.am      3 UNK        -0.5000 
     60 C          -0.8623  -12.8428  -42.5009 C.2       2 UNK         0.5000 
     61 O          -0.5430  -11.7029  -42.8490 O.2       2 UNK        -0.5000 
     62 CA         -1.5302  -13.7815  -43.5135 C.3       2 UNK         0.1400 
     63 CB         -3.0610  -13.6622  -43.4548 C.3       2 UNK        -0.1800 
     64 N          -1.0625  -13.4254  -44.8471 N.am      2 UNK        -0.5000 
     65 C          -0.7286  -14.2925  -45.8091 C.2       1 UNK         0.5000 
     66 O          -0.8822  -15.5082  -45.7047 O.2       1 UNK        -0.5000 
     67 C          -2.3720  -21.8756  -46.8099 C.2       11 UNK         0.5000 
     68 O          -3.2074  -22.3565  -47.5767 O.2       11 UNK        -0.5000 
     69 N          -2.4821  -21.9088  -45.4729 N.am      12 UNK        -0.5000 
     70 CA         -3.5461  -22.6005  -44.7460 C.3       12 UNK         0.1400 
     71 CB         -3.5735  -22.1292  -43.2848 C.3       12 UNK        -0.1800 
     72 C          -3.3975  -24.1294  -44.8368 C.2       12 UNK         0.5000 
     73 O          -4.3932  -24.8194  -45.0511 O.2       12 UNK        -0.5000 
     74 N          -2.1573  -24.6313  -44.7401 N.am      13 UNK        -0.5000 
     75 CA         -1.8047  -26.0378  -44.9591 C.3       13 UNK         0.1400 
     76 CB         -0.3416  -26.2706  -44.5537 C.3       13 UNK        -0.1800 
     77 C          -2.0531  -26.4947  -46.4108 C.2       13 UNK         0.5000 
     78 O          -2.4563  -27.6372  -46.6291 O.2       13 UNK        -0.5000 
     79 N          -1.8661  -25.5758  -47.3686 N.am      14 UNK        -0.5000 
     80 CA         -2.2180  -25.7366  -48.7823 C.3       14 UNK         0.1400 
     81 CB         -1.3748  -24.7590  -49.6162 C.3       14 UNK        -0.1800 
     82 C          -3.7263  -25.5482  -49.0693 C.2       14 UNK         0.5000 
     83 O          -4.1292  -25.6299  -50.2304 O.2       14 UNK        -0.5000 
     84 N          -4.5281  -25.2870  -48.0244 N.am      15 UNK        -0.5000 
     85 CA         -5.9869  -25.1343  -48.0135 C.3       15 UNK         0.1400 
     86 CB         -6.6704  -26.4584  -48.4150 C.3       15 UNK        -0.1800 
     87 C          -6.5117  -23.9296  -48.8216 C.2       15 UNK         0.5000 
     88 O          -7.6893  -23.9198  -49.1849 O.2       15 UNK        -0.5000 
     89 N          -5.6429  -22.9376  -49.0798 N.am      16 UNK        -0.5000 
     90 CA         -5.8875  -21.7303  -49.8782 C.3       16 UNK         0.1400 
     91 CB         -6.7557  -20.7338  -49.0844 C.3       16 UNK        -0.1800 
     92 C          -6.4500  -22.0437  -51.2832 C.2       16 UNK         0.5000 
     93 O          -7.4255  -21.4282  -51.7184 O.2       16 UNK        -0.5000 
     94 N          -5.8443  -23.0382  -51.9462 N.am      17 UNK        -0.5000 
     95 CA         -6.2184  -23.5045  -53.2781 C.3       17 UNK         0.1400 
     96 CB         -5.4375  -24.7893  -53.5877 C.3       17 UNK        -0.1800 
     97 C          -5.9638  -22.4346  -54.3558 C.2       17 UNK         0.5000 
     98 O          -4.8430  -21.9273  -54.4621 O.2       17 UNK        -0.5000 
     99 N          -6.9988  -22.1278  -55.1482 N.am      18 UNK        -0.5000 
    100 CA        -6.9520  -21.1666  -56.2503 C.3       18 UNK         0.1400 
    101 CB        -8.3506  -21.0367  -56.8717 C.3       18 UNK        -0.1800 
    102 C         -5.9173  -21.5757  -57.3133 C.2       18 UNK         0.5000 
    103 O         -5.9143  -22.7322  -57.7421 O.2       18 UNK        -0.5000 
    104 N         -5.0387  -20.6324  -57.6770 N.am      19 UNK        -0.5000 
    105 CA        -3.8808  -20.7493  -58.5752 C.3       19 UNK         0.1400 
    106 CB        -4.3053  -21.1585  -59.9985 C.3       19 UNK        -0.1800 
    107 C         -2.7463  -21.6550  -58.0497 C.2       19 UNK         0.5000 
    108 O         -1.5801  -21.2759  -58.1585 O.2       19 UNK        -0.5000 
    109 N         -3.0922  -22.8173  -57.4838 N.am      20 UNK        -0.5000 
    110 CA        -2.1626  -23.8099  -56.9452 C.3       20 UNK         0.1400 
    111 CB        -2.9265  -25.1059  -56.6389 C.3       20 UNK        -0.1800 
    112 C         -1.3931  -23.3148  -55.7069 C.2       20 UNK         0.5000 
    113 O         -0.1872  -23.5499  -55.6172 O.2       20 UNK        -0.5000 
    114 N         -2.0914  -22.6255  -54.7956 N.am      21 UNK        -0.5000 
    115 CA        -1.5071  -21.9607  -53.6318 C.3       21 UNK         0.1400 
    116 CB        -2.2769  -22.3601  -52.3599 C.3       21 UNK        -0.1800 
    117 C         -1.5426  -20.4395  -53.8343 C.2       21 UNK         0.5000 
    118 O         -0.5249  -19.7787  -53.6299 O.2       21 UNK        -0.5000 
    119 N         -2.7069  -19.9174  -54.2431 N.am      22 UNK        -0.5000 
    120 CA        -2.9744  -18.4747  -54.3864 C.3       22 UNK         0.1400 
    121 C         -2.4063  -17.8163  -55.6782 C.2       22 UNK         0.5000 
    122 N         -1.7334  -18.5398  -56.5631 N.am      22 UNK        -0.7600 
    123 O         -2.5746  -16.6175  -55.8830 O.2       22 UNK        -0.5000 
    124 C124       -4.4788  -18.1334  -54.1966 C.3       23 UNK        -0.0398 
    125 S125       -5.2345  -18.8948  -52.7170 S.3       23 UNK        -0.2404 
    126 C126       -5.0561  -17.5911  -51.4549 C.3       23 UNK        -0.0205 
    127 H127        2.7757  -13.4136  -46.3885 H         1 UNK         0.0600 
    128 H128        1.8897  -13.2716  -44.8558 H         1 UNK         0.0600 
    129 H129        3.1737  -12.1359  -45.2514 H         1 UNK         0.0600 
    130 H130       -0.3607  -11.6621  -47.4303 H         1 UNK         0.3000 
    131 H131        0.8184  -14.2988  -47.2636 H         1 UNK         0.0600 
    132 H132       -1.3366  -15.0140  -48.3423 H         1 UNK         0.0800 
    133 H133       -1.9156  -13.3658  -48.2597 H         1 UNK         0.0800 
    134 H134       -2.2596  -13.4585  -51.0239 H         1 UNK         0.0800 
    135 H135       -0.9896  -13.9438  -52.1212 H         1 UNK         0.0800 
    136 H136       -3.8820  -15.1357  -51.4961 H         1 UNK         0.1150 
    137 H137       -3.0104  -19.2684  -50.7761 H         1 UNK         0.1150 
    138 H138        0.1286  -16.3622  -50.6000 H         1 UNK         0.1150 
    139 H139       -0.7117  -20.0013  -50.6159 H         1 UNK         0.0800 
    140 H140        0.5682  -18.8634  -50.9392 H         1 UNK         0.0800 
    141 H141       -2.1825  -19.6964  -48.4757 H         1 UNK         0.0800 
    142 H142       -1.5987  -19.1653  -46.9259 H         1 UNK         0.0800 
    143 H143       -0.8609  -21.7871  -48.3068 H         1 UNK         0.0600 
    144 H144        0.3191  -20.5704  -45.9598 H         1 UNK         0.3000 
    145 H145        2.0411  -23.6075  -45.0178 H         1 UNK         0.0600 
    146 H146        3.9826  -22.0643  -45.2368 H         1 UNK         0.0600 
    147 H147        3.4206  -22.6130  -46.8092 H         1 UNK         0.0600 
    148 H148        3.0288  -20.9920  -46.2591 H         1 UNK         0.0600 
    149 H149        2.2081  -21.0713  -43.8235 H         1 UNK         0.3000 
    150 H150       -0.3570  -21.6529  -41.3504 H         1 UNK         0.0600 
    151 H151        1.7108  -22.8704  -40.7113 H         1 UNK         0.0600 
    152 H152        1.6666  -21.2796  -39.9668 H         1 UNK         0.0600 
    153 H153        2.7076  -21.5727  -41.3579 H         1 UNK         0.0600 
    154 H154        1.5518  -19.5922  -42.3513 H         1 UNK         0.3000 
    155 H155       -1.0482  -17.3255  -43.1271 H         1 UNK         0.0600 
    156 H156        0.8809  -17.2406  -40.7391 H         1 UNK         0.0600 
    157 H157        0.3307  -15.8206  -41.6079 H         1 UNK         0.0600 
    158 H158       -0.8272  -16.8129  -40.7233 H         1 UNK         0.0600 
    159 H159        1.7304  -16.9300  -43.1526 H         1 UNK         0.3000 
    160 H160        2.6735  -18.7807  -46.0316 H         1 UNK         0.0600 
    161 H161        2.2736  -15.7621  -45.7196 H         1 UNK         0.0600 
    162 H162        1.5959  -16.7440  -47.0125 H         1 UNK         0.0600 
    163 H163        3.3378  -16.5519  -46.8855 H         1 UNK         0.0600 
    164 H164        4.1293  -16.9020  -44.5408 H         1 UNK         0.3000 
    165 H165        4.5330  -18.2734  -41.4459 H         1 UNK         0.0600 
    166 H166        6.9714  -18.5780  -41.7797 H         1 UNK         0.0600 
    167 H167        6.0983  -19.9293  -42.4814 H         1 UNK         0.0600 
    168 H168        6.7489  -18.6731  -43.5275 H         1 UNK         0.0600 
    169 H169        6.2054  -16.3993  -42.6876 H         1 UNK         0.3000 
    170 H170        5.7963  -14.1252  -41.8767 H         1 UNK         0.0600 
    171 H171        5.7590  -12.9895  -44.1658 H         1 UNK         0.0600 
    172 H172        4.5910  -14.1904  -44.7104 H         1 UNK         0.0600 
    173 H173        6.2190  -14.6762  -44.2635 H         1 UNK         0.0600 
    174 H174        2.9847  -13.5406  -42.1729 H         1 UNK         0.3000 
    175 H175        3.3195  -10.4535  -40.6219 H         1 UNK         0.0600 
    176 H176        2.1465   -9.2237  -42.4086 H         1 UNK         0.0600 
    177 H177        2.5786  -10.4529  -43.5930 H         1 UNK         0.0600 
    178 H178        3.8274   -9.4512  -42.8625 H         1 UNK         0.0600 
    179 H179        1.0554  -11.5239  -42.0255 H         1 UNK         0.3000 
    180 H180       -0.1193  -13.4762  -39.3017 H         1 UNK         0.0600 
    181 H181       -0.9846  -10.7263  -40.3336 H         1 UNK         0.0600 
    182 H182       -0.5866  -11.1242  -38.6689 H         1 UNK         0.0600 
    183 H183       -1.9885  -11.8592  -39.4302 H         1 UNK         0.0600 
    184 H184       -0.9677  -14.2956  -41.1180 H         1 UNK         0.3000 
    185 H185       -1.2396  -14.8065  -43.2763 H         1 UNK         0.0600 
    186 H186       -3.4372  -13.9209  -42.4643 H         1 UNK         0.0600 
    187 H187       -3.3938  -12.6480  -43.6797 H         1 UNK         0.0600 
    188 H188       -3.5348  -14.3360  -44.1689 H         1 UNK         0.0600 
    189 H189       -0.8640  -12.4412  -44.9763 H         1 UNK         0.3000 
    190 H190       -1.7350  -21.5149  -44.9195 H         1 UNK         0.3000 
    191 H191       -4.5007  -22.3316  -45.2038 H         1 UNK         0.0600 
    192 H192       -3.7354  -21.0530  -43.2217 H         1 UNK         0.0600 
    193 H193       -4.3824  -22.6122  -42.7354 H         1 UNK         0.0600 
    194 H194       -2.6435  -22.3566  -42.7641 H         1 UNK         0.0600 
    195 H195       -1.3961  -24.0090  -44.4813 H         1 UNK         0.3000 
    196 H196       -2.4376  -26.6450  -44.3088 H         1 UNK         0.0600 
    197 H197       -0.0648  -27.3185  -44.6753 H         1 UNK         0.0600 
    198 H198       -0.1763  -26.0093  -43.5083 H         1 UNK         0.0600 
    199 H199        0.3445  -25.6775  -45.1582 H         1 UNK         0.0600 
    200 H200       -1.4572  -24.6872  -47.1046 H         1 UNK         0.3000 
    201 H201       -1.9563  -26.7512  -49.0889 H         1 UNK         0.0600 
    202 H202       -0.3135  -24.8503  -49.3842 H         1 UNK         0.0600 
    203 H203       -1.6699  -23.7247  -49.4429 H         1 UNK         0.0600 
    204 H204       -1.4893  -24.9603  -50.6814 H         1 UNK         0.0600 
    205 H205       -4.0968  -25.2040  -47.1122 H         1 UNK         0.3000 
    206 H206       -6.2591  -24.9310  -46.9774 H         1 UNK         0.0600 
    207 H207       -6.2908  -27.2925  -47.8247 H         1 UNK         0.0600 
    208 H208       -7.7473  -26.4114  -48.2496 H         1 UNK         0.0600 
    209 H209       -6.5122  -26.6922  -49.4682 H         1 UNK         0.0600 
    210 H210       -4.7127  -23.0082  -48.6765 H         1 UNK         0.3000 
    211 H211       -4.9144  -21.2633  -50.0384 H         1 UNK         0.0600 
    212 H212       -7.7515  -21.1327  -48.8887 H         1 UNK         0.0600 
    213 H213       -6.8791  -19.7992  -49.6321 H         1 UNK         0.0600 
    214 H214       -6.2967  -20.4904  -48.1262 H         1 UNK         0.0600 
    215 H215       -5.0780  -23.5222  -51.4997 H         1 UNK         0.3000 
    216 H216       -7.2826  -23.7481  -53.2603 H         1 UNK         0.0600 
    217 H217       -5.7139  -25.1875  -54.5646 H         1 UNK         0.0600 
    218 H218       -5.6466  -25.5647  -52.8502 H         1 UNK         0.0600 
    219 H219       -4.3607  -24.6150  -53.5896 H         1 UNK         0.0600 
    220 H220       -7.8779  -22.6032  -55.0093 H         1 UNK         0.3000 
    221 H221       -6.6715  -20.1988  -55.8302 H         1 UNK         0.0600 
    222 H222       -8.6995  -21.9863  -57.2799 H         1 UNK         0.0600 
    223 H223       -9.0802  -20.6986  -56.1355 H         1 UNK         0.0600 
    224 H224       -8.3500  -20.3102  -57.6852 H         1 UNK         0.0600 
    225 H225       -5.1335  -19.7237  -57.2472 H         1 UNK         0.3000 
    226 H226       -3.4652  -19.7426  -58.6422 H         1 UNK         0.0600 
    227 H227       -5.0655  -20.4840  -60.3924 H         1 UNK         0.0600 
    228 H228       -3.4550  -21.1235  -60.6807 H         1 UNK         0.0600 
    229 H229       -4.7052  -22.1721  -60.0328 H         1 UNK         0.0600 
    230 H230       -4.0833  -23.0412  -57.4534 H         1 UNK         0.3000 
    231 H231       -1.4265  -24.0299  -57.7212 H         1 UNK         0.0600 
    232 H232       -3.7333  -24.9346  -55.9281 H         1 UNK         0.0600 
    233 H233       -2.2650  -25.8618  -56.2137 H         1 UNK         0.0600 
    234 H234       -3.3639  -25.5275  -57.5440 H         1 UNK         0.0600 
    235 H235       -3.0856  -22.4736  -54.9393 H         1 UNK         0.3000 
    236 H236       -0.4658  -22.2614  -53.4993 H         1 UNK         0.0600 
    237 H237       -2.3842  -23.4418  -52.2876 H         1 UNK         0.0600 
    238 H238       -1.7515  -22.0229  -51.4665 H         1 UNK         0.0600 
    239 H239       -3.2752  -21.9249  -52.3302 H         1 UNK         0.0600 
    240 H240       -3.5073  -20.5331  -54.3531 H         1 UNK         0.3000 
    241 H241       -2.4354  -17.9737  -53.5826 H         1 UNK         0.0600 
    242 H242       -1.3613  -18.0914  -57.3851 H         1 UNK         0.3800 
    243 H243       -1.5533  -19.5189  -56.4051 H         1 UNK         0.3800 
    244 H244       -4.6227  -17.0528  -54.1441 H         1 UNK         0.0800 
    245 H245       -5.0484  -18.4710  -55.0627 H         1 UNK         0.0800 
    246 H246       -5.5199  -17.9309  -50.5287 H         1 UNK         0.0800 
    247 H247       -5.6160  -16.7115  -51.7759 H         1 UNK         0.0800 
@<TRIPOS>BOND
     1    1    2 1    
     2    1  127 1    
     3    1  128 1    
     4    1  129 1    
     5    2    3 2    
     6    2    4 am   BACKBONE|DICT|INTERRES
     7    4    5 1    
     8    4  130 1    
     9    5    6 1    
    10    5   65 1    
    11    5  131 1    
    12    6    7 1    
    13    6  132 1    
    14    6  133 1    
    15    7    8 1    
    16    8    9 1    
    17    8  134 1    
    18    8  135 1    
    19    9   10 ar   
    20    9   14 ar   
    21   10   11 ar   
    22   10  136 1    
    23   11   12 ar   
    24   11  126 1    
    25   12   13 ar   
    26   12  137 1    
    27   13   14 ar   
    28   13   15 1    
    29   14  138 1    
    30   15   16 1    
    31   15  139 1    
    32   15  140 1    
    33   16   17 1    
    34   17   18 1    
    35   17  141 1    
    36   17  142 1    
    37   18   19 1    
    38   18   67 1    
    39   18  143 1    
    40   19   20 am   BACKBONE|DICT|INTERRES
    41   19  144 1    
    42   20   21 2    
    43   20   22 1    
    44   22   23 1    
    45   22   24 1    
    46   22  145 1    
    47   23  146 1    
    48   23  147 1    
    49   23  148 1    
    50   24   25 am   BACKBONE|DICT|INTERRES
    51   24  149 1    
    52   25   26 2    
    53   25   27 1    
    54   27   28 1    
    55   27   29 1    
    56   27  150 1    
    57   28  151 1    
    58   28  152 1    
    59   28  153 1    
    60   29   30 am   BACKBONE|DICT|INTERRES
    61   29  154 1    
    62   30   31 2    
    63   30   32 1    
    64   32   33 1    
    65   32   34 1    
    66   32  155 1    
    67   33  156 1    
    68   33  157 1    
    69   33  158 1    
    70   34   35 am   BACKBONE|DICT|INTERRES
    71   34  159 1    
    72   35   36 2    
    73   35   37 1    
    74   37   38 1    
    75   37   39 1    
    76   37  160 1    
    77   38  161 1    
    78   38  162 1    
    79   38  163 1    
    80   39   40 am   BACKBONE|DICT|INTERRES
    81   39  164 1    
    82   40   41 2    
    83   40   42 1    
    84   42   43 1    
    85   42   44 1    
    86   42  165 1    
    87   43  166 1    
    88   43  167 1    
    89   43  168 1    
    90   44   45 am   BACKBONE|DICT|INTERRES
    91   44  169 1    
    92   45   46 2    
    93   45   47 1    
    94   47   48 1    
    95   47   49 1    
    96   47  170 1    
    97   48  171 1    
    98   48  172 1    
    99   48  173 1    
   100   49   50 am   BACKBONE|DICT|INTERRES
   101   49  174 1    
   102   50   51 2    
   103   50   52 1    
   104   52   53 1    
   105   52   54 1    
   106   52  175 1    
   107   53  176 1    
   108   53  177 1    
   109   53  178 1    
   110   54   55 am   BACKBONE|DICT|INTERRES
   111   54  179 1    
   112   55   56 2    
   113   55   57 1    
   114   57   58 1    
   115   57   59 1    
   116   57  180 1    
   117   58  181 1    
   118   58  182 1    
   119   58  183 1    
   120   59   60 am   BACKBONE|DICT|INTERRES
   121   59  184 1    
   122   60   61 2    
   123   60   62 1    
   124   62   63 1    
   125   62   64 1    
   126   62  185 1    
   127   63  186 1    
   128   63  187 1    
   129   63  188 1    
   130   64   65 am   BACKBONE|DICT|INTERRES
   131   64  189 1    
   132   65   66 2    
   133   67   68 2    
   134   67   69 am   BACKBONE|DICT|INTERRES
   135   69   70 1    
   136   69  190 1    
   137   70   71 1    
   138   70   72 1    
   139   70  191 1    
   140   71  192 1    
   141   71  193 1    
   142   71  194 1    
   143   72   73 2    
   144   72   74 am   BACKBONE|DICT|INTERRES
   145   74   75 1    
   146   74  195 1    
   147   75   76 1    
   148   75   77 1    
   149   75  196 1    
   150   76  197 1    
   151   76  198 1    
   152   76  199 1    
   153   77   78 2    
   154   77   79 am   BACKBONE|DICT|INTERRES
   155   79   80 1    
   156   79  200 1    
   157   80   81 1    
   158   80   82 1    
   159   80  201 1    
   160   81  202 1    
   161   81  203 1    
   162   81  204 1    
   163   82   83 2    
   164   82   84 am   BACKBONE|DICT|INTERRES
   165   84   85 1    
   166   84  205 1    
   167   85   86 1    
   168   85   87 1    
   169   85  206 1    
   170   86  207 1    
   171   86  208 1    
   172   86  209 1    
   173   87   88 2    
   174   87   89 am   BACKBONE|DICT|INTERRES
   175   89   90 1    
   176   89  210 1    
   177   90   91 1    
   178   90   92 1    
   179   90  211 1    
   180   91  212 1    
   181   91  213 1    
   182   91  214 1    
   183   92   93 2    
   184   92   94 am   BACKBONE|DICT|INTERRES
   185   94   95 1    
   186   94  215 1    
   187   95   96 1    
   188   95   97 1    
   189   95  216 1    
   190   96  217 1    
   191   96  218 1    
   192   96  219 1    
   193   97   98 2    
   194   97   99 am   BACKBONE|DICT|INTERRES
   195   99  100 1    
   196   99  220 1    
   197  100  101 1    
   198  100  102 1    
   199  100  221 1    
   200  101  222 1    
   201  101  223 1    
   202  101  224 1    
   203  102  103 2    
   204  102  104 am   BACKBONE|DICT|INTERRES
   205  104  105 1    
   206  104  225 1    
   207  105  106 1    
   208  105  107 1    
   209  105  226 1    
   210  106  227 1    
   211  106  228 1    
   212  106  229 1    
   213  107  108 2    
   214  107  109 am   BACKBONE|DICT|INTERRES
   215  109  110 1    
   216  109  230 1    
   217  110  111 1    
   218  110  112 1    
   219  110  231 1    
   220  111  232 1    
   221  111  233 1    
   222  111  234 1    
   223  112  113 2    
   224  112  114 am   BACKBONE|DICT|INTERRES
   225  114  115 1    
   226  114  235 1    
   227  115  116 1    
   228  115  117 1    
   229  115  236 1    
   230  116  237 1    
   231  116  238 1    
   232  116  239 1    
   233  117  118 2    
   234  117  119 am   BACKBONE|DICT|INTERRES
   235  119  120 1    
   236  119  240 1    
   237  120  121 1    
   238  120  124 1    
   239  120  241 1    
   240  121  122 am   BACKBONE|DICT|INTERRES
   241  121  123 2    
   242  122  242 1    
   243  122  243 1    
   244  124  125 1    
   245  124  244 1    
   246  124  245 1    
   247  125  126 1    
   248  126  246 1    
   249  126  247 1    
@<TRIPOS>SUBSTRUCTURE
     1 UNK         1 GROUP             0       ****    0 ROOT    
