@<TRIPOS>MOLECULE
3R540
247   249    1
SMALL
USER_CHARGES


@<TRIPOS>ATOM
      1 CA         -4.8760  -12.3219  -49.9760 C.3       0 UNK        -0.1800 
      2 C          -3.4387  -12.3856  -49.4780 C.2       0 UNK         0.5000 
      3 O          -2.6946  -11.4159  -49.6254 O.2       0 UNK        -0.5000 
      4 N          -3.0456  -13.5253  -48.8972 N.am      1 UNK        -0.5000 
      5 CA         -1.7278  -13.7487  -48.3002 C.3       1 UNK         0.1400 
      6 C6         -1.4146  -15.2625  -48.2250 C.3       23 UNK        -0.0398 
      7 S7          0.3125  -15.6084  -47.7634 S.3       23 UNK        -0.2404 
      8 C8          1.1497  -15.6002  -49.3790 C.3       23 UNK        -0.0205 
      9 C9          0.9988  -16.9247  -50.1096 C.ar      23 UNK        -0.0193 
     10 C10         0.3227  -16.9977  -51.3315 C.ar      23 UNK        -0.1150 
     11 C11         0.2347  -18.2132  -52.0178 C.ar      23 UNK        -0.0193 
     12 C12         0.8018  -19.3626  -51.4587 C.ar      23 UNK        -0.1150 
     13 C13         1.4758  -19.3036  -50.2365 C.ar      23 UNK        -0.0193 
     14 C14         1.5807  -18.0767  -49.5752 C.ar      23 UNK        -0.1150 
     15 C15         2.1247  -20.5568  -49.6606 C.3       23 UNK        -0.0205 
     16 S16         1.7510  -20.8048  -47.8948 S.3       23 UNK        -0.2404 
     17 C17        -0.0465  -21.1158  -47.9295 C.3       23 UNK        -0.0398 
     18 CA         -0.4115  -22.4246  -47.1960 C.3       11 UNK         0.1400 
     19 N          -0.0016  -22.4029  -45.7886 N.am      11 UNK        -0.5000 
     20 C           0.0032  -23.4714  -44.9815 C.2       10 UNK         0.5000 
     21 O          -0.3219  -24.6018  -45.3410 O.2       10 UNK        -0.5000 
     22 CA          0.3764  -23.2194  -43.5130 C.3       10 UNK         0.1400 
     23 CB          1.8996  -23.1244  -43.3378 C.3       10 UNK        -0.1800 
     24 N          -0.2610  -22.0047  -43.0066 N.am      10 UNK        -0.5000 
     25 C          -1.5723  -21.9002  -42.7490 C.2       9 UNK         0.5000 
     26 O          -2.3681  -22.8322  -42.8733 O.2       9 UNK        -0.5000 
     27 CA         -2.0857  -20.5136  -42.3161 C.3       9 UNK         0.1400 
     28 CB         -1.9119  -20.3207  -40.8023 C.3       9 UNK        -0.1800 
     29 N          -1.4292  -19.4103  -43.0202 N.am      9 UNK        -0.5000 
     30 C          -1.5346  -19.1779  -44.3362 C.2       8 UNK         0.5000 
     31 O          -2.2001  -19.8699  -45.1011 O.2       8 UNK        -0.5000 
     32 CA         -0.7343  -17.9941  -44.9033 C.3       8 UNK         0.1400 
     33 CB         -1.5589  -16.7072  -44.7569 C.3       8 UNK        -0.1800 
     34 N           0.5853  -17.8153  -44.2884 N.am      8 UNK        -0.5000 
     35 C           1.5440  -18.7543  -44.2312 C.2       7 UNK         0.5000 
     36 O           1.3749  -19.9167  -44.6055 O.2       7 UNK        -0.5000 
     37 CA          2.8969  -18.3403  -43.6146 C.3       7 UNK         0.1400 
     38 CB          4.0548  -19.2705  -44.0323 C.3       7 UNK        -0.1800 
     39 N           3.2437  -16.9344  -43.8445 N.am      7 UNK        -0.5000 
     40 C           3.4732  -16.3206  -45.0166 C.2       6 UNK         0.5000 
     41 O           3.4572  -16.8953  -46.1051 O.2       6 UNK        -0.5000 
     42 CA          3.7848  -14.8093  -44.9661 C.3       6 UNK         0.1400 
     43 CB          2.8951  -14.0168  -45.9336 C.3       6 UNK        -0.1800 
     44 N           3.6039  -14.2563  -43.6233 N.am      6 UNK        -0.5000 
     45 C           4.5909  -13.9218  -42.7821 C.2       5 UNK         0.5000 
     46 O           5.7871  -13.9817  -43.0684 O.2       5 UNK        -0.5000 
     47 CA          4.1750  -13.4729  -41.3661 C.3       5 UNK         0.1400 
     48 CB          4.0490  -11.9434  -41.3008 C.3       5 UNK        -0.1800 
     49 N           2.9197  -14.0760  -40.9110 N.am      5 UNK        -0.5000 
     50 C           2.7281  -15.3855  -40.6958 C.2       4 UNK         0.5000 
     51 O           3.6133  -16.2321  -40.8131 O.2       4 UNK        -0.5000 
     52 CA          1.2962  -15.8405  -40.3534 C.3       4 UNK         0.1400 
     53 CB          1.1248  -15.9857  -38.8344 C.3       4 UNK        -0.1800 
     54 N           0.2497  -14.9553  -40.8722 N.am      4 UNK        -0.5000 
     55 C           0.0272  -14.6907  -42.1669 C.2       3 UNK         0.5000 
     56 O           0.7034  -15.1781  -43.0766 O.2       3 UNK        -0.5000 
     57 CA         -1.1562  -13.7498  -42.4897 C.3       3 UNK         0.1400 
     58 CB         -1.4353  -12.7206  -41.3711 C.3       3 UNK        -0.1800 
     59 N          -1.0305  -13.0586  -43.7766 N.am      3 UNK        -0.5000 
     60 C          -0.0476  -12.2388  -44.1701 C.2       2 UNK         0.5000 
     61 O           0.9755  -12.0308  -43.5142 O.2       2 UNK        -0.5000 
     62 CA         -0.2764  -11.5016  -45.5088 C.3       2 UNK         0.1400 
     63 CB          0.8701  -10.5361  -45.8609 C.3       2 UNK        -0.1800 
     64 N          -0.5093  -12.3887  -46.6525 N.am      2 UNK        -0.5000 
     65 C          -1.6491  -13.0360  -46.9296 C.2       1 UNK         0.5000 
     66 O          -2.6174  -13.0703  -46.1650 O.2       1 UNK        -0.5000 
     67 C          -1.9111  -22.7536  -47.3560 C.2       11 UNK         0.5000 
     68 O          -2.2835  -23.4387  -48.3111 O.2       11 UNK        -0.5000 
     69 N          -2.7413  -22.2869  -46.4117 N.am      12 UNK        -0.5000 
     70 CA         -4.1683  -22.5851  -46.3248 C.3       12 UNK         0.1400 
     71 CB         -4.8491  -21.6792  -45.2892 C.3       12 UNK        -0.1800 
     72 C          -4.4297  -24.0666  -46.0256 C.2       12 UNK         0.5000 
     73 O          -5.2399  -24.6874  -46.7145 O.2       12 UNK        -0.5000 
     74 N          -3.7019  -24.6130  -45.0420 N.am      13 UNK        -0.5000 
     75 CA         -3.7287  -26.0321  -44.6886 C.3       13 UNK         0.1400 
     76 CB         -2.9177  -26.2521  -43.4025 C.3       13 UNK        -0.1800 
     77 C          -3.2160  -26.9397  -45.8236 C.2       13 UNK         0.5000 
     78 O          -3.7622  -28.0255  -46.0225 O.2       13 UNK        -0.5000 
     79 N          -2.1898  -26.4739  -46.5489 N.am      14 UNK        -0.5000 
     80 CA         -1.5971  -27.1639  -47.6899 C.3       14 UNK         0.1400 
     81 CB         -0.2470  -26.5212  -48.0463 C.3       14 UNK        -0.1800 
     82 C          -2.5258  -27.2071  -48.9159 C.2       14 UNK         0.5000 
     83 O          -2.8014  -28.2994  -49.4154 O.2       14 UNK        -0.5000 
     84 N          -2.9677  -26.0361  -49.3995 N.am      15 UNK        -0.5000 
     85 CA         -3.6710  -25.9131  -50.6792 C.3       15 UNK         0.1400 
     86 CB         -2.6734  -26.0832  -51.8478 C.3       15 UNK        -0.1800 
     87 C          -4.5055  -24.6233  -50.7914 C.2       15 UNK         0.5000 
     88 O          -4.5996  -24.0605  -51.8797 O.2       15 UNK        -0.5000 
     89 N          -5.1198  -24.1793  -49.6854 N.am      16 UNK        -0.5000 
     90 CA         -6.0814  -23.0660  -49.6105 C.3       16 UNK         0.1400 
     91 CB         -7.3516  -23.3763  -50.4308 C.3       16 UNK        -0.1800 
     92 C          -5.5070  -21.6575  -49.9046 C.2       16 UNK         0.5000 
     93 O          -6.2839  -20.7213  -50.0953 O.2       16 UNK        -0.5000 
     94 N          -4.1736  -21.5153  -49.8629 N.am      17 UNK        -0.5000 
     95 CA         -3.4088  -20.2660  -49.9483 C.3       17 UNK         0.1400 
     96 CB         -3.5675  -19.4442  -48.6469 C.3       17 UNK        -0.1800 
     97 C          -3.6683  -19.4540  -51.2379 C.2       17 UNK         0.5000 
     98 O          -3.5254  -20.0033  -52.3322 O.2       17 UNK        -0.5000 
     99 N          -3.9720  -18.1562  -51.0868 N.am      18 UNK        -0.5000 
    100 CA        -4.0773  -17.1394  -52.1347 C.3       18 UNK         0.1400 
    101 CB        -4.5921  -15.8317  -51.5151 C.3       18 UNK        -0.1800 
    102 C         -4.9446  -17.5583  -53.3362 C.2       18 UNK         0.5000 
    103 O         -6.1224  -17.8747  -53.1625 O.2       18 UNK        -0.5000 
    104 N         -4.3201  -17.5588  -54.5229 N.am      19 UNK        -0.5000 
    105 CA        -4.8677  -17.9141  -55.8392 C.3       19 UNK         0.1400 
    106 CB        -6.0257  -16.9708  -56.2262 C.3       19 UNK        -0.1800 
    107 C         -5.2514  -19.4006  -56.0192 C.2       19 UNK         0.5000 
    108 O         -5.7377  -19.7577  -57.0933 O.2       19 UNK        -0.5000 
    109 N         -5.0135  -20.2433  -55.0058 N.am      20 UNK        -0.5000 
    110 CA        -5.2968  -21.6767  -55.0293 C.3       20 UNK         0.1400 
    111 CB        -6.1965  -22.0352  -53.8390 C.3       20 UNK        -0.1800 
    112 C         -3.9800  -22.4638  -55.0129 C.2       20 UNK         0.5000 
    113 O         -3.7029  -23.2062  -55.9559 O.2       20 UNK        -0.5000 
    114 N         -3.1482  -22.2242  -53.9901 N.am      21 UNK        -0.5000 
    115 CA        -1.8100  -22.8023  -53.8385 C.3       21 UNK         0.1400 
    116 CB        -1.3096  -22.5316  -52.4100 C.3       21 UNK        -0.1800 
    117 C         -0.8140  -22.2480  -54.8754 C.2       21 UNK         0.5000 
    118 O          0.1558  -22.9237  -55.2198 O.2       21 UNK        -0.5000 
    119 N         -1.1006  -21.0364  -55.3631 N.am      22 UNK        -0.5000 
    120 CA        -0.3929  -20.3452  -56.4485 C.3       22 UNK         0.1400 
    121 C         -1.0135  -20.6148  -57.8530 C.2       22 UNK         0.5000 
    122 N         -2.0201  -21.4707  -57.9953 N.am      22 UNK        -0.7600 
    123 O         -0.5645  -20.0449  -58.8435 O.2       22 UNK        -0.5000 
    124 C124       -0.2760  -18.8261  -56.1521 C.3       23 UNK        -0.0398 
    125 S125        0.7828  -18.4877  -54.7044 S.3       23 UNK        -0.2404 
    126 C126       -0.4447  -18.2904  -53.3756 C.3       23 UNK        -0.0205 
    127 H127       -5.4009  -11.4921  -49.5029 H         1 UNK         0.0600 
    128 H128       -5.4231  -13.2392  -49.7565 H         1 UNK         0.0600 
    129 H129       -4.8924  -12.1671  -51.0549 H         1 UNK         0.0600 
    130 H130       -3.7232  -14.2584  -48.7490 H         1 UNK         0.3000 
    131 H131       -0.9887  -13.2921  -48.9625 H         1 UNK         0.0600 
    132 H132       -2.0741  -15.7576  -47.5116 H         1 UNK         0.0800 
    133 H133       -1.6103  -15.7355  -49.1884 H         1 UNK         0.0800 
    134 H134        0.7833  -14.7700  -49.9842 H         1 UNK         0.0800 
    135 H135        2.2121  -15.4136  -49.2163 H         1 UNK         0.0800 
    136 H136       -0.1111  -16.1053  -51.7600 H         1 UNK         0.1150 
    137 H137        0.7474  -20.2976  -51.9971 H         1 UNK         0.1150 
    138 H138        2.1154  -18.0145  -48.6368 H         1 UNK         0.1150 
    139 H139        1.8202  -21.4459  -50.2151 H         1 UNK         0.0800 
    140 H140        3.2055  -20.4728  -49.7802 H         1 UNK         0.0800 
    141 H141       -0.3748  -21.1630  -48.9682 H         1 UNK         0.0800 
    142 H142       -0.5547  -20.2606  -47.4807 H         1 UNK         0.0800 
    143 H143        0.1391  -23.2345  -47.6783 H         1 UNK         0.0600 
    144 H144        0.3241  -21.5134  -45.4234 H         1 UNK         0.3000 
    145 H145        0.0205  -24.0678  -42.9243 H         1 UNK         0.0600 
    146 H146        2.1678  -22.9615  -42.2940 H         1 UNK         0.0600 
    147 H147        2.3841  -24.0475  -43.6581 H         1 UNK         0.0600 
    148 H148        2.3273  -22.3120  -43.9255 H         1 UNK         0.0600 
    149 H149        0.3131  -21.1741  -42.9665 H         1 UNK         0.3000 
    150 H150       -3.1525  -20.4699  -42.5449 H         1 UNK         0.0600 
    151 H151       -2.4085  -21.1184  -40.2481 H         1 UNK         0.0600 
    152 H152       -2.3477  -19.3775  -40.4722 H         1 UNK         0.0600 
    153 H153       -0.8603  -20.3250  -40.5126 H         1 UNK         0.0600 
    154 H154       -0.8511  -18.7939  -42.4694 H         1 UNK         0.3000 
    155 H155       -0.5701  -18.1788  -45.9668 H         1 UNK         0.0600 
    156 H156       -2.4930  -16.7780  -45.3152 H         1 UNK         0.0600 
    157 H157       -1.0187  -15.8381  -45.1306 H         1 UNK         0.0600 
    158 H158       -1.8186  -16.5180  -43.7158 H         1 UNK         0.0600 
    159 H159        0.7953  -16.8815  -43.9454 H         1 UNK         0.3000 
    160 H160        2.7732  -18.4424  -42.5358 H         1 UNK         0.0600 
    161 H161        4.1831  -19.2956  -45.1149 H         1 UNK         0.0600 
    162 H162        3.8724  -20.2940  -43.7034 H         1 UNK         0.0600 
    163 H163        4.9977  -18.9520  -43.5880 H         1 UNK         0.0600 
    164 H164        3.3094  -16.3687  -43.0085 H         1 UNK         0.3000 
    165 H165        4.8201  -14.6909  -45.2909 H         1 UNK         0.0600 
    166 H166        1.8418  -14.1057  -45.6666 H         1 UNK         0.0600 
    167 H167        3.1586  -12.9602  -45.9248 H         1 UNK         0.0600 
    168 H168        3.0120  -14.3701  -46.9584 H         1 UNK         0.0600 
    169 H169        2.6431  -14.1795  -43.3076 H         1 UNK         0.3000 
    170 H170        4.9643  -13.7816  -40.6775 H         1 UNK         0.0600 
    171 H171        4.9781  -11.4614  -41.6081 H         1 UNK         0.0600 
    172 H172        3.2574  -11.5771  -41.9557 H         1 UNK         0.0600 
    173 H173        3.8294  -11.6076  -40.2872 H         1 UNK         0.0600 
    174 H174        2.1291  -13.4550  -40.8183 H         1 UNK         0.3000 
    175 H175        1.1517  -16.8227  -40.8083 H         1 UNK         0.0600 
    176 H176        1.2277  -15.0270  -38.3245 H         1 UNK         0.0600 
    177 H177        0.1464  -16.3967  -38.5847 H         1 UNK         0.0600 
    178 H178        1.8743  -16.6608  -38.4189 H         1 UNK         0.0600 
    179 H179       -0.3466  -14.5192  -40.1838 H         1 UNK         0.3000 
    180 H180       -2.0361  -14.3874  -42.5776 H         1 UNK         0.0600 
    181 H181       -0.5556  -12.1148  -41.1490 H         1 UNK         0.0600 
    182 H182       -1.7498  -13.2050  -40.4463 H         1 UNK         0.0600 
    183 H183       -2.2391  -12.0417  -41.6567 H         1 UNK         0.0600 
    184 H184       -1.7972  -13.1912  -44.4302 H         1 UNK         0.3000 
    185 H185       -1.1723  -10.8925  -45.3707 H         1 UNK         0.0600 
    186 H186        1.0420   -9.8205  -45.0558 H         1 UNK         0.0600 
    187 H187        1.8065  -11.0650  -46.0347 H         1 UNK         0.0600 
    188 H188        0.6392   -9.9605  -46.7574 H         1 UNK         0.0600 
    189 H189        0.2522  -12.4556  -47.3118 H         1 UNK         0.3000 
    190 H190       -2.3779  -21.6368  -45.7199 H         1 UNK         0.3000 
    191 H191       -4.6081  -22.3572  -47.2910 H         1 UNK         0.0600 
    192 H192       -4.7577  -20.6288  -45.5656 H         1 UNK         0.0600 
    193 H193       -4.4195  -21.8036  -44.2958 H         1 UNK         0.0600 
    194 H194       -5.9143  -21.9018  -45.2163 H         1 UNK         0.0600 
    195 H195       -3.0757  -24.0216  -44.5070 H         1 UNK         0.3000 
    196 H196       -4.7664  -26.3065  -44.4878 H         1 UNK         0.0600 
    197 H197       -2.9442  -27.2991  -43.0982 H         1 UNK         0.0600 
    198 H198       -3.3193  -25.6626  -42.5780 H         1 UNK         0.0600 
    199 H199       -1.8716  -25.9737  -43.5325 H         1 UNK         0.0600 
    200 H200       -1.7446  -25.6091  -46.2585 H         1 UNK         0.3000 
    201 H201       -1.3998  -28.1948  -47.3883 H         1 UNK         0.0600 
    202 H202        0.4448  -26.5649  -47.2050 H         1 UNK         0.0600 
    203 H203       -0.3586  -25.4763  -48.3337 H         1 UNK         0.0600 
    204 H204        0.2238  -27.0413  -48.8814 H         1 UNK         0.0600 
    205 H205       -2.7080  -25.1657  -48.9394 H         1 UNK         0.3000 
    206 H206       -4.4021  -26.7212  -50.7476 H         1 UNK         0.0600 
    207 H207       -2.2158  -27.0721  -51.8415 H         1 UNK         0.0600 
    208 H208       -3.1636  -25.9723  -52.8159 H         1 UNK         0.0600 
    209 H209       -1.8708  -25.3485  -51.7952 H         1 UNK         0.0600 
    210 H210       -4.9825  -24.6845  -48.8165 H         1 UNK         0.3000 
    211 H211       -6.4015  -23.0290  -48.5694 H         1 UNK         0.0600 
    212 H212       -7.1510  -23.4057  -51.5004 H         1 UNK         0.0600 
    213 H213       -7.7775  -24.3380  -50.1449 H         1 UNK         0.0600 
    214 H214       -8.1224  -22.6227  -50.2658 H         1 UNK         0.0600 
    215 H215       -3.6262  -22.3526  -49.7064 H         1 UNK         0.3000 
    216 H216       -2.3640  -20.5675  -50.0130 H         1 UNK         0.0600 
    217 H217       -3.3059  -20.0348  -47.7720 H         1 UNK         0.0600 
    218 H218       -4.5905  -19.0935  -48.5061 H         1 UNK         0.0600 
    219 H219       -2.9067  -18.5761  -48.6388 H         1 UNK         0.0600 
    220 H220       -4.1105  -17.8244  -50.1447 H         1 UNK         0.3000 
    221 H221       -3.0626  -16.9533  -52.4875 H         1 UNK         0.0600 
    222 H222       -5.5784  -15.9593  -51.0670 H         1 UNK         0.0600 
    223 H223       -3.9137  -15.4726  -50.7427 H         1 UNK         0.0600 
    224 H224       -4.6715  -15.0450  -52.2666 H         1 UNK         0.0600 
    225 H225       -3.3508  -17.2778  -54.5388 H         1 UNK         0.3000 
    226 H226       -4.0579  -17.7369  -56.5485 H         1 UNK         0.0600 
    227 H227       -5.7344  -15.9253  -56.1251 H         1 UNK         0.0600 
    228 H228       -6.3251  -17.1226  -57.2638 H         1 UNK         0.0600 
    229 H229       -6.9084  -17.1352  -55.6077 H         1 UNK         0.0600 
    230 H230       -4.6123  -19.8802  -54.1487 H         1 UNK         0.3000 
    231 H231       -5.8316  -21.9553  -55.9396 H         1 UNK         0.0600 
    232 H232       -6.3914  -23.1077  -53.8089 H         1 UNK         0.0600 
    233 H233       -7.1593  -21.5291  -53.9078 H         1 UNK         0.0600 
    234 H234       -5.7421  -21.7526  -52.8895 H         1 UNK         0.0600 
    235 H235       -3.4324  -21.5655  -53.2688 H         1 UNK         0.3000 
    236 H236       -1.8835  -23.8818  -53.9840 H         1 UNK         0.0600 
    237 H237       -1.9894  -22.9448  -51.6656 H         1 UNK         0.0600 
    238 H238       -0.3299  -22.9812  -52.2441 H         1 UNK         0.0600 
    239 H239       -1.2215  -21.4639  -52.2149 H         1 UNK         0.0600 
    240 H240       -1.9373  -20.5893  -55.0221 H         1 UNK         0.3000 
    241 H241        0.6218  -20.7429  -56.5097 H         1 UNK         0.0600 
    242 H242       -2.3986  -21.6304  -58.9156 H         1 UNK         0.3800 
    243 H243       -2.3899  -21.9904  -57.2107 H         1 UNK         0.3800 
    244 H244        0.1754  -18.3034  -56.9970 H         1 UNK         0.0800 
    245 H245       -1.2604  -18.3777  -56.0115 H         1 UNK         0.0800 
    246 H246       -1.1426  -19.1272  -53.3790 H         1 UNK         0.0800 
    247 H247       -1.0272  -17.3896  -53.5679 H         1 UNK         0.0800 
@<TRIPOS>BOND
     1    1    2 1    
     2    1  127 1    
     3    1  128 1    
     4    1  129 1    
     5    2    3 2    
     6    2    4 am   BACKBONE|DICT|INTERRES
     7    4    5 1    
     8    4  130 1    
     9    5    6 1    
    10    5   65 1    
    11    5  131 1    
    12    6    7 1    
    13    6  132 1    
    14    6  133 1    
    15    7    8 1    
    16    8    9 1    
    17    8  134 1    
    18    8  135 1    
    19    9   10 ar   
    20    9   14 ar   
    21   10   11 ar   
    22   10  136 1    
    23   11   12 ar   
    24   11  126 1    
    25   12   13 ar   
    26   12  137 1    
    27   13   14 ar   
    28   13   15 1    
    29   14  138 1    
    30   15   16 1    
    31   15  139 1    
    32   15  140 1    
    33   16   17 1    
    34   17   18 1    
    35   17  141 1    
    36   17  142 1    
    37   18   19 1    
    38   18   67 1    
    39   18  143 1    
    40   19   20 am   BACKBONE|DICT|INTERRES
    41   19  144 1    
    42   20   21 2    
    43   20   22 1    
    44   22   23 1    
    45   22   24 1    
    46   22  145 1    
    47   23  146 1    
    48   23  147 1    
    49   23  148 1    
    50   24   25 am   BACKBONE|DICT|INTERRES
    51   24  149 1    
    52   25   26 2    
    53   25   27 1    
    54   27   28 1    
    55   27   29 1    
    56   27  150 1    
    57   28  151 1    
    58   28  152 1    
    59   28  153 1    
    60   29   30 am   BACKBONE|DICT|INTERRES
    61   29  154 1    
    62   30   31 2    
    63   30   32 1    
    64   32   33 1    
    65   32   34 1    
    66   32  155 1    
    67   33  156 1    
    68   33  157 1    
    69   33  158 1    
    70   34   35 am   BACKBONE|DICT|INTERRES
    71   34  159 1    
    72   35   36 2    
    73   35   37 1    
    74   37   38 1    
    75   37   39 1    
    76   37  160 1    
    77   38  161 1    
    78   38  162 1    
    79   38  163 1    
    80   39   40 am   BACKBONE|DICT|INTERRES
    81   39  164 1    
    82   40   41 2    
    83   40   42 1    
    84   42   43 1    
    85   42   44 1    
    86   42  165 1    
    87   43  166 1    
    88   43  167 1    
    89   43  168 1    
    90   44   45 am   BACKBONE|DICT|INTERRES
    91   44  169 1    
    92   45   46 2    
    93   45   47 1    
    94   47   48 1    
    95   47   49 1    
    96   47  170 1    
    97   48  171 1    
    98   48  172 1    
    99   48  173 1    
   100   49   50 am   BACKBONE|DICT|INTERRES
   101   49  174 1    
   102   50   51 2    
   103   50   52 1    
   104   52   53 1    
   105   52   54 1    
   106   52  175 1    
   107   53  176 1    
   108   53  177 1    
   109   53  178 1    
   110   54   55 am   BACKBONE|DICT|INTERRES
   111   54  179 1    
   112   55   56 2    
   113   55   57 1    
   114   57   58 1    
   115   57   59 1    
   116   57  180 1    
   117   58  181 1    
   118   58  182 1    
   119   58  183 1    
   120   59   60 am   BACKBONE|DICT|INTERRES
   121   59  184 1    
   122   60   61 2    
   123   60   62 1    
   124   62   63 1    
   125   62   64 1    
   126   62  185 1    
   127   63  186 1    
   128   63  187 1    
   129   63  188 1    
   130   64   65 am   BACKBONE|DICT|INTERRES
   131   64  189 1    
   132   65   66 2    
   133   67   68 2    
   134   67   69 am   BACKBONE|DICT|INTERRES
   135   69   70 1    
   136   69  190 1    
   137   70   71 1    
   138   70   72 1    
   139   70  191 1    
   140   71  192 1    
   141   71  193 1    
   142   71  194 1    
   143   72   73 2    
   144   72   74 am   BACKBONE|DICT|INTERRES
   145   74   75 1    
   146   74  195 1    
   147   75   76 1    
   148   75   77 1    
   149   75  196 1    
   150   76  197 1    
   151   76  198 1    
   152   76  199 1    
   153   77   78 2    
   154   77   79 am   BACKBONE|DICT|INTERRES
   155   79   80 1    
   156   79  200 1    
   157   80   81 1    
   158   80   82 1    
   159   80  201 1    
   160   81  202 1    
   161   81  203 1    
   162   81  204 1    
   163   82   83 2    
   164   82   84 am   BACKBONE|DICT|INTERRES
   165   84   85 1    
   166   84  205 1    
   167   85   86 1    
   168   85   87 1    
   169   85  206 1    
   170   86  207 1    
   171   86  208 1    
   172   86  209 1    
   173   87   88 2    
   174   87   89 am   BACKBONE|DICT|INTERRES
   175   89   90 1    
   176   89  210 1    
   177   90   91 1    
   178   90   92 1    
   179   90  211 1    
   180   91  212 1    
   181   91  213 1    
   182   91  214 1    
   183   92   93 2    
   184   92   94 am   BACKBONE|DICT|INTERRES
   185   94   95 1    
   186   94  215 1    
   187   95   96 1    
   188   95   97 1    
   189   95  216 1    
   190   96  217 1    
   191   96  218 1    
   192   96  219 1    
   193   97   98 2    
   194   97   99 am   BACKBONE|DICT|INTERRES
   195   99  100 1    
   196   99  220 1    
   197  100  101 1    
   198  100  102 1    
   199  100  221 1    
   200  101  222 1    
   201  101  223 1    
   202  101  224 1    
   203  102  103 2    
   204  102  104 am   BACKBONE|DICT|INTERRES
   205  104  105 1    
   206  104  225 1    
   207  105  106 1    
   208  105  107 1    
   209  105  226 1    
   210  106  227 1    
   211  106  228 1    
   212  106  229 1    
   213  107  108 2    
   214  107  109 am   BACKBONE|DICT|INTERRES
   215  109  110 1    
   216  109  230 1    
   217  110  111 1    
   218  110  112 1    
   219  110  231 1    
   220  111  232 1    
   221  111  233 1    
   222  111  234 1    
   223  112  113 2    
   224  112  114 am   BACKBONE|DICT|INTERRES
   225  114  115 1    
   226  114  235 1    
   227  115  116 1    
   228  115  117 1    
   229  115  236 1    
   230  116  237 1    
   231  116  238 1    
   232  116  239 1    
   233  117  118 2    
   234  117  119 am   BACKBONE|DICT|INTERRES
   235  119  120 1    
   236  119  240 1    
   237  120  121 1    
   238  120  124 1    
   239  120  241 1    
   240  121  122 am   BACKBONE|DICT|INTERRES
   241  121  123 2    
   242  122  242 1    
   243  122  243 1    
   244  124  125 1    
   245  124  244 1    
   246  124  245 1    
   247  125  126 1    
   248  126  246 1    
   249  126  247 1    
@<TRIPOS>SUBSTRUCTURE
     1 UNK         1 GROUP             0       ****    0 ROOT    
