@<TRIPOS>MOLECULE
3R540
247   249    1
SMALL
USER_CHARGES


@<TRIPOS>ATOM
      1 CA         -3.0572  -12.4139  -41.5785 C.3       0 UNK        -0.1800 
      2 C          -1.8992  -12.5867  -42.5500 C.2       0 UNK         0.5000 
      3 O          -1.0770  -11.6832  -42.6872 O.2       0 UNK        -0.5000 
      4 N          -1.8185  -13.7492  -43.2095 N.am      1 UNK        -0.5000 
      5 CA         -0.7946  -14.1023  -44.2038 C.3       1 UNK         0.1400 
      6 C6         -1.1193  -15.4705  -44.8512 C.3       23 UNK        -0.0398 
      7 S7         -0.3674  -15.6979  -46.4943 S.3       23 UNK        -0.2404 
      8 C8         -1.6542  -16.7053  -47.2948 C.3       23 UNK        -0.0205 
      9 C9         -1.1589  -17.3294  -48.5885 C.ar      23 UNK        -0.0193 
     10 C10        -1.6000  -16.8640  -49.8294 C.ar      23 UNK        -0.1150 
     11 C11        -1.1591  -17.4732  -51.0080 C.ar      23 UNK        -0.0193 
     12 C12        -0.2725  -18.5531  -50.9377 C.ar      23 UNK        -0.1150 
     13 C13         0.1807  -19.0291  -49.7037 C.ar      23 UNK        -0.0193 
     14 C14        -0.2687  -18.4022  -48.5363 C.ar      23 UNK        -0.1150 
     15 C15         1.1639  -20.2027  -49.6704 C.3       23 UNK        -0.0205 
     16 S16         1.1374  -21.2074  -48.1404 S.3       23 UNK        -0.2404 
     17 C17        -0.6253  -21.6604  -48.0784 C.3       23 UNK        -0.0398 
     18 CA         -0.9200  -22.9232  -47.2454 C.3       11 UNK         0.1400 
     19 N          -0.5094  -22.7803  -45.8463 N.am      11 UNK        -0.5000 
     20 C          -0.5536  -23.7615  -44.9335 C.2       10 UNK         0.5000 
     21 O          -0.8958  -24.9143  -45.1956 O.2       10 UNK        -0.5000 
     22 CA         -0.2264  -23.3872  -43.4740 C.3       10 UNK         0.1400 
     23 CB          1.2428  -23.7036  -43.1592 C.3       10 UNK        -0.1800 
     24 N          -0.4934  -21.9852  -43.1398 N.am      10 UNK        -0.5000 
     25 C          -1.6678  -21.3503  -43.2740 C.2       9 UNK         0.5000 
     26 O          -2.6936  -21.9012  -43.6738 O.2       9 UNK        -0.5000 
     27 CA         -1.6952  -19.8412  -42.9528 C.3       9 UNK         0.1400 
     28 CB         -2.3881  -19.5907  -41.6053 C.3       9 UNK        -0.1800 
     29 N          -0.3716  -19.2072  -42.9327 N.am      9 UNK        -0.5000 
     30 C           0.4282  -19.0682  -43.9979 C.2       8 UNK         0.5000 
     31 O           0.1421  -19.4732  -45.1269 O.2       8 UNK        -0.5000 
     32 CA          1.7867  -18.4059  -43.7394 C.3       8 UNK         0.1400 
     33 CB          2.7593  -19.3928  -43.0679 C.3       8 UNK        -0.1800 
     34 N           2.3389  -17.9411  -45.0049 N.am      8 UNK        -0.5000 
     35 C           3.2599  -16.9821  -45.1419 C.2       7 UNK         0.5000 
     36 O           3.7779  -16.3983  -44.1887 O.2       7 UNK        -0.5000 
     37 CA          3.6646  -16.5699  -46.5663 C.3       7 UNK         0.1400 
     38 CB          2.9917  -17.3939  -47.6862 C.3       7 UNK        -0.1800 
     39 N           3.3577  -15.1499  -46.6868 N.am      7 UNK        -0.5000 
     40 C           3.6723  -14.3347  -47.6991 C.2       6 UNK         0.5000 
     41 O           4.2667  -14.6852  -48.7190 O.2       6 UNK        -0.5000 
     42 CA          3.2844  -12.8584  -47.5128 C.3       6 UNK         0.1400 
     43 CB          1.8091  -12.6252  -47.8735 C.3       6 UNK        -0.1800 
     44 N           3.5153  -12.4211  -46.1381 N.am      6 UNK        -0.5000 
     45 C           4.7169  -12.1288  -45.6231 C.2       5 UNK         0.5000 
     46 O           5.7609  -12.1406  -46.2780 O.2       5 UNK        -0.5000 
     47 CA          4.7421  -11.7657  -44.1241 C.3       5 UNK         0.1400 
     48 CB          6.0103  -10.9948  -43.7031 C.3       5 UNK        -0.1800 
     49 N           3.5313  -11.0598  -43.6958 N.am      5 UNK        -0.5000 
     50 C           3.0764   -9.8685  -44.1146 C.2       4 UNK         0.5000 
     51 O           3.6681   -9.1450  -44.9163 O.2       4 UNK        -0.5000 
     52 CA          1.7106   -9.4167  -43.5589 C.3       4 UNK         0.1400 
     53 CB          0.6247   -9.5801  -44.6345 C.3       4 UNK        -0.1800 
     54 N           1.3031  -10.1646  -42.3683 N.am      4 UNK        -0.5000 
     55 C           1.8402  -10.0268  -41.1487 C.2       3 UNK         0.5000 
     56 O           2.6780   -9.1722  -40.8593 O.2       3 UNK        -0.5000 
     57 CA          1.4004  -11.0561  -40.0927 C.3       3 UNK         0.1400 
     58 CB          0.0633  -10.6508  -39.4534 C.3       3 UNK        -0.1800 
     59 N           1.2903  -12.4069  -40.6519 N.am      3 UNK        -0.5000 
     60 C           2.3330  -13.1682  -41.0162 C.2       2 UNK         0.5000 
     61 O           3.5058  -12.8110  -40.9129 O.2       2 UNK        -0.5000 
     62 CA          2.0185  -14.5526  -41.6115 C.3       2 UNK         0.1400 
     63 CB          1.9382  -15.6079  -40.4975 C.3       2 UNK        -0.1800 
     64 N           0.7718  -14.5645  -42.3767 N.am      2 UNK        -0.5000 
     65 C           0.6367  -14.0782  -43.6193 C.2       1 UNK         0.5000 
     66 O           1.5636  -13.5973  -44.2757 O.2       1 UNK        -0.5000 
     67 C          -2.4148  -23.2747  -47.3968 C.2       11 UNK         0.5000 
     68 O          -2.7716  -23.9242  -48.3790 O.2       11 UNK        -0.5000 
     69 N          -3.2672  -22.8434  -46.4550 N.am      12 UNK        -0.5000 
     70 CA         -4.6941  -23.1686  -46.4514 C.3       12 UNK         0.1400 
     71 CB         -5.4582  -22.1677  -45.5726 C.3       12 UNK        -0.1800 
     72 C          -4.9388  -24.6134  -45.9861 C.2       12 UNK         0.5000 
     73 O          -5.7871  -25.2969  -46.5581 O.2       12 UNK        -0.5000 
     74 N          -4.1565  -25.0676  -44.9959 N.am      13 UNK        -0.5000 
     75 CA         -4.1661  -26.4425  -44.4900 C.3       13 UNK         0.1400 
     76 CB         -3.3731  -26.5106  -43.1758 C.3       13 UNK        -0.1800 
     77 C          -3.6145  -27.4467  -45.5198 C.2       13 UNK         0.5000 
     78 O          -4.1581  -28.5428  -45.6568 O.2       13 UNK        -0.5000 
     79 N          -2.5720  -27.0339  -46.2539 N.am      14 UNK        -0.5000 
     80 CA         -1.9765  -27.7752  -47.3682 C.3       14 UNK         0.1400 
     81 CB         -0.5880  -27.1839  -47.6595 C.3       14 UNK        -0.1800 
     82 C          -2.8362  -27.7620  -48.6504 C.2       14 UNK         0.5000 
     83 O          -2.5476  -28.5266  -49.5711 O.2       14 UNK        -0.5000 
     84 N          -3.8460  -26.8791  -48.6988 N.am      15 UNK        -0.5000 
     85 CA         -4.7507  -26.5961  -49.8199 C.3       15 UNK         0.1400 
     86 CB         -5.5802  -27.8386  -50.2029 C.3       15 UNK        -0.1800 
     87 C          -4.0530  -25.9447  -51.0347 C.2       15 UNK         0.5000 
     88 O          -4.6139  -25.9270  -52.1305 O.2       15 UNK        -0.5000 
     89 N          -2.8647  -25.3707  -50.8121 N.am      16 UNK        -0.5000 
     90 CA         -2.0946  -24.6122  -51.7931 C.3       16 UNK         0.1400 
     91 CB         -0.6434  -24.4795  -51.3064 C.3       16 UNK        -0.1800 
     92 C          -2.7119  -23.2280  -52.0452 C.2       16 UNK         0.5000 
     93 O          -2.7757  -22.7952  -53.1950 O.2       16 UNK        -0.5000 
     94 N          -3.1837  -22.5725  -50.9748 N.am      17 UNK        -0.5000 
     95 CA         -3.8916  -21.2898  -51.0488 C.3       17 UNK         0.1400 
     96 CB         -3.7935  -20.5623  -49.6989 C.3       17 UNK        -0.1800 
     97 C          -5.3635  -21.4519  -51.4754 C.2       17 UNK         0.5000 
     98 O          -5.9733  -20.4840  -51.9289 O.2       17 UNK        -0.5000 
     99 N          -5.9095  -22.6671  -51.3202 N.am      18 UNK        -0.5000 
    100 CA        -7.2583  -23.0326  -51.7555 C.3       18 UNK         0.1400 
    101 CB        -7.7083  -24.2962  -51.0063 C.3       18 UNK        -0.1800 
    102 C         -7.3484  -23.2416  -53.2798 C.2       18 UNK         0.5000 
    103 O         -8.4256  -23.0622  -53.8499 O.2       18 UNK        -0.5000 
    104 N         -6.2252  -23.6088  -53.9132 N.am      19 UNK        -0.5000 
    105 CA        -6.0828  -23.7081  -55.3637 C.3       19 UNK         0.1400 
    106 CB        -4.7818  -24.4577  -55.6891 C.3       19 UNK        -0.1800 
    107 C         -6.0754  -22.3120  -56.0112 C.2       19 UNK         0.5000 
    108 O         -5.5445  -21.3675  -55.4229 O.2       19 UNK        -0.5000 
    109 N         -6.6276  -22.2144  -57.2278 N.am      20 UNK        -0.5000 
    110 CA        -6.7983  -20.9656  -57.9815 C.3       20 UNK         0.1400 
    111 CB        -7.6009  -21.2598  -59.2583 C.3       20 UNK        -0.1800 
    112 C         -5.4845  -20.2360  -58.3288 C.2       20 UNK         0.5000 
    113 O         -5.4966  -19.0163  -58.4997 O.2       20 UNK        -0.5000 
    114 N         -4.3779  -20.9868  -58.4117 N.am      21 UNK        -0.5000 
    115 CA        -3.0282  -20.4607  -58.6199 C.3       21 UNK         0.1400 
    116 CB        -2.1044  -21.6186  -59.0291 C.3       21 UNK        -0.1800 
    117 C         -2.4580  -19.7313  -57.3854 C.2       21 UNK         0.5000 
    118 O         -1.5914  -18.8728  -57.5508 O.2       21 UNK        -0.5000 
    119 N         -2.9523  -20.0828  -56.1891 N.am      22 UNK        -0.5000 
    120 CA        -2.5169  -19.6054  -54.8700 C.3       22 UNK         0.1400 
    121 C         -1.0206  -19.9266  -54.5841 C.2       22 UNK         0.5000 
    122 N         -0.7226  -21.1299  -54.1175 N.am      22 UNK        -0.7600 
    123 O         -0.1286  -19.1052  -54.7796 O.2       22 UNK        -0.5000 
    124 C124       -2.8963  -18.1203  -54.6180 C.3       23 UNK        -0.0398 
    125 S125       -3.1871  -17.7845  -52.8473 S.3       23 UNK        -0.2404 
    126 C126       -1.6372  -16.9663  -52.3584 C.3       23 UNK        -0.0205 
    127 H127       -2.6803  -12.2924  -40.5632 H         1 UNK         0.0600 
    128 H128       -3.7303  -13.2713  -41.5925 H         1 UNK         0.0600 
    129 H129       -3.6328  -11.5254  -41.8379 H         1 UNK         0.0600 
    130 H130       -2.5298  -14.4473  -43.0450 H         1 UNK         0.3000 
    131 H131       -0.8396  -13.3337  -44.9786 H         1 UNK         0.0600 
    132 H132       -2.1995  -15.5604  -44.9761 H         1 UNK         0.0800 
    133 H133       -0.8293  -16.3004  -44.2051 H         1 UNK         0.0800 
    134 H134       -1.9634  -17.5030  -46.6170 H         1 UNK         0.0800 
    135 H135       -2.5365  -16.0895  -47.4756 H         1 UNK         0.0800 
    136 H136       -2.2913  -16.0345  -49.8798 H         1 UNK         0.1150 
    137 H137        0.0672  -19.0229  -51.8503 H         1 UNK         0.1150 
    138 H138        0.0745  -18.7409  -47.5710 H         1 UNK         0.1150 
    139 H139        0.9720  -20.8662  -50.5153 H         1 UNK         0.0800 
    140 H140        2.1720  -19.8104  -49.8086 H         1 UNK         0.0800 
    141 H141       -0.9634  -21.7990  -49.1069 H         1 UNK         0.0800 
    142 H142       -1.1852  -20.8149  -47.6763 H         1 UNK         0.0800 
    143 H143       -0.3496  -23.7511  -47.6706 H         1 UNK         0.0600 
    144 H144       -0.2123  -21.8563  -45.5593 H         1 UNK         0.3000 
    145 H145       -0.8579  -24.0040  -42.8317 H         1 UNK         0.0600 
    146 H146        1.4667  -23.5348  -42.1058 H         1 UNK         0.0600 
    147 H147        1.4727  -24.7479  -43.3753 H         1 UNK         0.0600 
    148 H148        1.9220  -23.0883  -43.7509 H         1 UNK         0.0600 
    149 H149        0.2922  -21.4488  -42.8050 H         1 UNK         0.3000 
    150 H150       -2.2852  -19.3587  -43.7350 H         1 UNK         0.0600 
    151 H151       -1.8318  -20.0336  -40.7783 H         1 UNK         0.0600 
    152 H152       -3.3904  -20.0215  -41.5946 H         1 UNK         0.0600 
    153 H153       -2.4936  -18.5238  -41.4076 H         1 UNK         0.0600 
    154 H154       -0.0571  -18.8686  -42.0348 H         1 UNK         0.3000 
    155 H155        1.6236  -17.5453  -43.0886 H         1 UNK         0.0600 
    156 H156        2.9471  -20.2618  -43.7000 H         1 UNK         0.0600 
    157 H157        2.3643  -19.7546  -42.1180 H         1 UNK         0.0600 
    158 H158        3.7190  -18.9214  -42.8557 H         1 UNK         0.0600 
    159 H159        1.9033  -18.3501  -45.8225 H         1 UNK         0.3000 
    160 H160        4.7459  -16.6983  -46.6398 H         1 UNK         0.0600 
    161 H161        1.9317  -17.1626  -47.7534 H         1 UNK         0.0600 
    162 H162        3.1015  -18.4672  -47.5261 H         1 UNK         0.0600 
    163 H163        3.4325  -17.1805  -48.6594 H         1 UNK         0.0600 
    164 H164        2.9017  -14.7488  -45.8753 H         1 UNK         0.3000 
    165 H165        3.8999  -12.2571  -48.1854 H         1 UNK         0.0600 
    166 H166        1.5544  -11.5666  -47.8198 H         1 UNK         0.0600 
    167 H167        1.5964  -12.9618  -48.8889 H         1 UNK         0.0600 
    168 H168        1.1398  -13.1629  -47.2015 H         1 UNK         0.0600 
    169 H169        2.7220  -12.4614  -45.5071 H         1 UNK         0.3000 
    170 H170        4.7421  -12.7153  -43.5869 H         1 UNK         0.0600 
    171 H171        6.9069  -11.5873  -43.8882 H         1 UNK         0.0600 
    172 H172        6.1185  -10.0590  -44.2518 H         1 UNK         0.0600 
    173 H173        5.9917  -10.7605  -42.6387 H         1 UNK         0.0600 
    174 H174        2.9520  -11.5632  -43.0394 H         1 UNK         0.3000 
    175 H175        1.7876   -8.3590  -43.2990 H         1 UNK         0.0600 
    176 H176        0.8703   -9.0097  -45.5311 H         1 UNK         0.0600 
    177 H177        0.5075  -10.6239  -44.9300 H         1 UNK         0.0600 
    178 H178       -0.3415   -9.2241  -44.2766 H         1 UNK         0.0600 
    179 H179        0.5577  -10.8460  -42.4984 H         1 UNK         0.3000 
    180 H180        2.1586  -11.0734  -39.3069 H         1 UNK         0.0600 
    181 H181       -0.7394  -10.5971  -40.1891 H         1 UNK         0.0600 
    182 H182        0.1401   -9.6696  -38.9832 H         1 UNK         0.0600 
    183 H183       -0.2358  -11.3585  -38.6801 H         1 UNK         0.0600 
    184 H184        0.3574  -12.7561  -40.8089 H         1 UNK         0.3000 
    185 H185        2.8419  -14.8208  -42.2761 H         1 UNK         0.0600 
    186 H186        2.8626  -15.6333  -39.9188 H         1 UNK         0.0600 
    187 H187        1.1226  -15.4017  -39.8033 H         1 UNK         0.0600 
    188 H188        1.7873  -16.6067  -40.9052 H         1 UNK         0.0600 
    189 H189       -0.0475  -14.9198  -41.9063 H         1 UNK         0.3000 
    190 H190       -2.9149  -22.3429  -45.6457 H         1 UNK         0.3000 
    191 H191       -5.0772  -23.0762  -47.4702 H         1 UNK         0.0600 
    192 H192       -5.2795  -21.1421  -45.8960 H         1 UNK         0.0600 
    193 H193       -6.5329  -22.3447  -45.6294 H         1 UNK         0.0600 
    194 H194       -5.1711  -22.2445  -44.5238 H         1 UNK         0.0600 
    195 H195       -3.4726  -24.4404  -44.5973 H         1 UNK         0.3000 
    196 H196       -5.2012  -26.7179  -44.2769 H         1 UNK         0.0600 
    197 H197       -3.4027  -27.5169  -42.7560 H         1 UNK         0.0600 
    198 H198       -3.7891  -25.8347  -42.4284 H         1 UNK         0.0600 
    199 H199       -2.3249  -26.2476  -43.3195 H         1 UNK         0.0600 
    200 H200       -2.1279  -26.1532  -46.0086 H         1 UNK         0.3000 
    201 H201       -1.8514  -28.8166  -47.0649 H         1 UNK         0.0600 
    202 H202       -0.0795  -27.7429  -48.4460 H         1 UNK         0.0600 
    203 H203        0.0488  -27.2159  -46.7751 H         1 UNK         0.0600 
    204 H204       -0.6554  -26.1460  -47.9862 H         1 UNK         0.0600 
    205 H205       -3.9858  -26.2990  -47.8830 H         1 UNK         0.3000 
    206 H206       -5.4475  -25.8458  -49.4446 H         1 UNK         0.0600 
    207 H207       -6.0658  -28.2722  -49.3287 H         1 UNK         0.0600 
    208 H208       -6.3658  -27.5815  -50.9141 H         1 UNK         0.0600 
    209 H209       -4.9661  -28.6115  -50.6653 H         1 UNK         0.0600 
    210 H210       -2.5363  -25.3361  -49.8548 H         1 UNK         0.3000 
    211 H211       -2.0935  -25.1602  -52.7378 H         1 UNK         0.0600 
    212 H212       -0.5811  -23.9603  -50.3497 H         1 UNK         0.0600 
    213 H213       -0.0402  -23.9209  -52.0233 H         1 UNK         0.0600 
    214 H214       -0.1797  -25.4586  -51.1845 H         1 UNK         0.0600 
    215 H215       -3.1010  -23.0099  -50.0624 H         1 UNK         0.3000 
    216 H216       -3.4045  -20.6623  -51.7974 H         1 UNK         0.0600 
    217 H217       -4.3662  -19.6340  -49.7136 H         1 UNK         0.0600 
    218 H218       -2.7637  -20.2879  -49.4764 H         1 UNK         0.0600 
    219 H219       -4.1749  -21.1703  -48.8789 H         1 UNK         0.0600 
    220 H220       -5.3348  -23.4040  -50.9435 H         1 UNK         0.3000 
    221 H221       -7.9398  -22.2216  -51.4896 H         1 UNK         0.0600 
    222 H222       -7.1114  -25.1642  -51.2845 H         1 UNK         0.0600 
    223 H223       -7.6364  -24.1664  -49.9262 H         1 UNK         0.0600 
    224 H224       -8.7481  -24.5320  -51.2364 H         1 UNK         0.0600 
    225 H225       -5.3796  -23.7196  -53.3731 H         1 UNK         0.3000 
    226 H226       -6.9257  -24.2814  -55.7553 H         1 UNK         0.0600 
    227 H227       -4.7604  -25.4375  -55.2111 H         1 UNK         0.0600 
    228 H228       -4.6803  -24.6170  -56.7632 H         1 UNK         0.0600 
    229 H229       -3.9031  -23.9047  -55.3560 H         1 UNK         0.0600 
    230 H230       -7.0212  -23.0431  -57.6503 H         1 UNK         0.3000 
    231 H231       -7.3858  -20.2871  -57.3594 H         1 UNK         0.0600 
    232 H232       -7.0781  -21.9623  -59.9086 H         1 UNK         0.0600 
    233 H233       -7.7730  -20.3478  -59.8317 H         1 UNK         0.0600 
    234 H234       -8.5782  -21.6817  -59.0228 H         1 UNK         0.0600 
    235 H235       -4.4636  -21.9820  -58.2688 H         1 UNK         0.3000 
    236 H236       -3.0612  -19.7432  -59.4426 H         1 UNK         0.0600 
    237 H237       -2.4560  -22.1014  -59.9412 H         1 UNK         0.0600 
    238 H238       -1.0920  -21.2610  -59.2217 H         1 UNK         0.0600 
    239 H239       -2.0410  -22.3779  -58.2485 H         1 UNK         0.0600 
    240 H240       -3.7081  -20.7575  -56.1605 H         1 UNK         0.3000 
    241 H241       -3.1046  -20.2075  -54.1756 H         1 UNK         0.0600 
    242 H242        0.2397  -21.3674  -53.9412 H         1 UNK         0.3800 
    243 H243       -1.4592  -21.8039  -53.9166 H         1 UNK         0.3800 
    244 H244       -2.1614  -17.4319  -55.0380 H         1 UNK         0.0800 
    245 H245       -3.8328  -17.8916  -55.1286 H         1 UNK         0.0800 
    246 H246       -0.8591  -17.1316  -53.1041 H         1 UNK         0.0800 
    247 H247       -1.7976  -15.8878  -52.3229 H         1 UNK         0.0800 
@<TRIPOS>BOND
     1    1    2 1    
     2    1  127 1    
     3    1  128 1    
     4    1  129 1    
     5    2    3 2    
     6    2    4 am   BACKBONE|DICT|INTERRES
     7    4    5 1    
     8    4  130 1    
     9    5    6 1    
    10    5   65 1    
    11    5  131 1    
    12    6    7 1    
    13    6  132 1    
    14    6  133 1    
    15    7    8 1    
    16    8    9 1    
    17    8  134 1    
    18    8  135 1    
    19    9   10 ar   
    20    9   14 ar   
    21   10   11 ar   
    22   10  136 1    
    23   11   12 ar   
    24   11  126 1    
    25   12   13 ar   
    26   12  137 1    
    27   13   14 ar   
    28   13   15 1    
    29   14  138 1    
    30   15   16 1    
    31   15  139 1    
    32   15  140 1    
    33   16   17 1    
    34   17   18 1    
    35   17  141 1    
    36   17  142 1    
    37   18   19 1    
    38   18   67 1    
    39   18  143 1    
    40   19   20 am   BACKBONE|DICT|INTERRES
    41   19  144 1    
    42   20   21 2    
    43   20   22 1    
    44   22   23 1    
    45   22   24 1    
    46   22  145 1    
    47   23  146 1    
    48   23  147 1    
    49   23  148 1    
    50   24   25 am   BACKBONE|DICT|INTERRES
    51   24  149 1    
    52   25   26 2    
    53   25   27 1    
    54   27   28 1    
    55   27   29 1    
    56   27  150 1    
    57   28  151 1    
    58   28  152 1    
    59   28  153 1    
    60   29   30 am   BACKBONE|DICT|INTERRES
    61   29  154 1    
    62   30   31 2    
    63   30   32 1    
    64   32   33 1    
    65   32   34 1    
    66   32  155 1    
    67   33  156 1    
    68   33  157 1    
    69   33  158 1    
    70   34   35 am   BACKBONE|DICT|INTERRES
    71   34  159 1    
    72   35   36 2    
    73   35   37 1    
    74   37   38 1    
    75   37   39 1    
    76   37  160 1    
    77   38  161 1    
    78   38  162 1    
    79   38  163 1    
    80   39   40 am   BACKBONE|DICT|INTERRES
    81   39  164 1    
    82   40   41 2    
    83   40   42 1    
    84   42   43 1    
    85   42   44 1    
    86   42  165 1    
    87   43  166 1    
    88   43  167 1    
    89   43  168 1    
    90   44   45 am   BACKBONE|DICT|INTERRES
    91   44  169 1    
    92   45   46 2    
    93   45   47 1    
    94   47   48 1    
    95   47   49 1    
    96   47  170 1    
    97   48  171 1    
    98   48  172 1    
    99   48  173 1    
   100   49   50 am   BACKBONE|DICT|INTERRES
   101   49  174 1    
   102   50   51 2    
   103   50   52 1    
   104   52   53 1    
   105   52   54 1    
   106   52  175 1    
   107   53  176 1    
   108   53  177 1    
   109   53  178 1    
   110   54   55 am   BACKBONE|DICT|INTERRES
   111   54  179 1    
   112   55   56 2    
   113   55   57 1    
   114   57   58 1    
   115   57   59 1    
   116   57  180 1    
   117   58  181 1    
   118   58  182 1    
   119   58  183 1    
   120   59   60 am   BACKBONE|DICT|INTERRES
   121   59  184 1    
   122   60   61 2    
   123   60   62 1    
   124   62   63 1    
   125   62   64 1    
   126   62  185 1    
   127   63  186 1    
   128   63  187 1    
   129   63  188 1    
   130   64   65 am   BACKBONE|DICT|INTERRES
   131   64  189 1    
   132   65   66 2    
   133   67   68 2    
   134   67   69 am   BACKBONE|DICT|INTERRES
   135   69   70 1    
   136   69  190 1    
   137   70   71 1    
   138   70   72 1    
   139   70  191 1    
   140   71  192 1    
   141   71  193 1    
   142   71  194 1    
   143   72   73 2    
   144   72   74 am   BACKBONE|DICT|INTERRES
   145   74   75 1    
   146   74  195 1    
   147   75   76 1    
   148   75   77 1    
   149   75  196 1    
   150   76  197 1    
   151   76  198 1    
   152   76  199 1    
   153   77   78 2    
   154   77   79 am   BACKBONE|DICT|INTERRES
   155   79   80 1    
   156   79  200 1    
   157   80   81 1    
   158   80   82 1    
   159   80  201 1    
   160   81  202 1    
   161   81  203 1    
   162   81  204 1    
   163   82   83 2    
   164   82   84 am   BACKBONE|DICT|INTERRES
   165   84   85 1    
   166   84  205 1    
   167   85   86 1    
   168   85   87 1    
   169   85  206 1    
   170   86  207 1    
   171   86  208 1    
   172   86  209 1    
   173   87   88 2    
   174   87   89 am   BACKBONE|DICT|INTERRES
   175   89   90 1    
   176   89  210 1    
   177   90   91 1    
   178   90   92 1    
   179   90  211 1    
   180   91  212 1    
   181   91  213 1    
   182   91  214 1    
   183   92   93 2    
   184   92   94 am   BACKBONE|DICT|INTERRES
   185   94   95 1    
   186   94  215 1    
   187   95   96 1    
   188   95   97 1    
   189   95  216 1    
   190   96  217 1    
   191   96  218 1    
   192   96  219 1    
   193   97   98 2    
   194   97   99 am   BACKBONE|DICT|INTERRES
   195   99  100 1    
   196   99  220 1    
   197  100  101 1    
   198  100  102 1    
   199  100  221 1    
   200  101  222 1    
   201  101  223 1    
   202  101  224 1    
   203  102  103 2    
   204  102  104 am   BACKBONE|DICT|INTERRES
   205  104  105 1    
   206  104  225 1    
   207  105  106 1    
   208  105  107 1    
   209  105  226 1    
   210  106  227 1    
   211  106  228 1    
   212  106  229 1    
   213  107  108 2    
   214  107  109 am   BACKBONE|DICT|INTERRES
   215  109  110 1    
   216  109  230 1    
   217  110  111 1    
   218  110  112 1    
   219  110  231 1    
   220  111  232 1    
   221  111  233 1    
   222  111  234 1    
   223  112  113 2    
   224  112  114 am   BACKBONE|DICT|INTERRES
   225  114  115 1    
   226  114  235 1    
   227  115  116 1    
   228  115  117 1    
   229  115  236 1    
   230  116  237 1    
   231  116  238 1    
   232  116  239 1    
   233  117  118 2    
   234  117  119 am   BACKBONE|DICT|INTERRES
   235  119  120 1    
   236  119  240 1    
   237  120  121 1    
   238  120  124 1    
   239  120  241 1    
   240  121  122 am   BACKBONE|DICT|INTERRES
   241  121  123 2    
   242  122  242 1    
   243  122  243 1    
   244  124  125 1    
   245  124  244 1    
   246  124  245 1    
   247  125  126 1    
   248  126  246 1    
   249  126  247 1    
@<TRIPOS>SUBSTRUCTURE
     1 UNK         1 GROUP             0       ****    0 ROOT    
