@<TRIPOS>MOLECULE
3R540
247   249    1
SMALL
USER_CHARGES


@<TRIPOS>ATOM
      1 CA          0.4736  -12.4416  -47.6209 C.3       0 UNK        -0.1800 
      2 C           1.9464  -12.1137  -47.8176 C.2       0 UNK         0.5000 
      3 O           2.2763  -11.0152  -48.2659 O.2       0 UNK        -0.5000 
      4 N           2.8317  -13.0567  -47.4748 N.am      1 UNK        -0.5000 
      5 CA          4.2904  -12.9315  -47.5655 C.3       1 UNK         0.1400 
      6 C6          4.9950  -14.2925  -47.3528 C.3       23 UNK        -0.0398 
      7 S7          4.7910  -15.3912  -48.7917 S.3       23 UNK        -0.2404 
      8 C8          3.3477  -16.3884  -48.3136 C.3       23 UNK        -0.0205 
      9 C9          3.0103  -17.3845  -49.4085 C.ar      23 UNK        -0.0193 
     10 C10         2.3266  -16.9640  -50.5528 C.ar      23 UNK        -0.1150 
     11 C11         2.0509  -17.8654  -51.5851 C.ar      23 UNK        -0.0193 
     12 C12         2.4612  -19.1958  -51.4630 C.ar      23 UNK        -0.1150 
     13 C13         3.1283  -19.6317  -50.3146 C.ar      23 UNK        -0.0193 
     14 C14         3.4011  -18.7205  -49.2904 C.ar      23 UNK        -0.1150 
     15 C15         3.5559  -21.0863  -50.1808 C.3       23 UNK        -0.0205 
     16 S16         2.1294  -22.2078  -50.0297 S.3       23 UNK        -0.2404 
     17 C17         1.2757  -21.5139  -48.5736 C.3       23 UNK        -0.0398 
     18 CA          0.6002  -22.5903  -47.6942 C.3       11 UNK         0.1400 
     19 N           0.2706  -22.0663  -46.3665 N.am      11 UNK        -0.5000 
     20 C          -0.1640  -22.8074  -45.3381 C.2       10 UNK         0.5000 
     21 O          -0.2784  -24.0313  -45.3770 O.2       10 UNK        -0.5000 
     22 CA         -0.5928  -22.0512  -44.0688 C.3       10 UNK         0.1400 
     23 CB          0.6266  -21.7140  -43.1986 C.3       10 UNK        -0.1800 
     24 N          -1.3462  -20.8324  -44.3692 N.am      10 UNK        -0.5000 
     25 C          -2.5330  -20.8112  -44.9937 C.2       9 UNK         0.5000 
     26 O          -3.1432  -21.8252  -45.3292 O.2       9 UNK        -0.5000 
     27 CA         -3.1155  -19.4322  -45.3505 C.3       9 UNK         0.1400 
     28 CB         -3.8133  -18.8036  -44.1362 C.3       9 UNK        -0.1800 
     29 N          -2.1073  -18.5110  -45.8758 N.am      9 UNK        -0.5000 
     30 C          -1.4171  -18.7005  -47.0097 C.2       8 UNK         0.5000 
     31 O          -1.5843  -19.6622  -47.7597 O.2       8 UNK        -0.5000 
     32 CA         -0.3165  -17.6722  -47.3288 C.3       8 UNK         0.1400 
     33 CB         -0.9068  -16.3974  -47.9484 C.3       8 UNK        -0.1800 
     34 N           0.4679  -17.3245  -46.1445 N.am      8 UNK        -0.5000 
     35 C           1.2776  -18.1768  -45.5007 C.2       7 UNK         0.5000 
     36 O           1.5062  -19.3250  -45.8819 O.2       7 UNK        -0.5000 
     37 CA          1.8911  -17.6720  -44.1832 C.3       7 UNK         0.1400 
     38 CB          3.1477  -16.8291  -44.4474 C.3       7 UNK        -0.1800 
     39 N           0.9309  -16.8925  -43.3989 N.am      7 UNK        -0.5000 
     40 C          -0.1198  -17.4300  -42.7601 C.2       6 UNK         0.5000 
     41 O          -0.3677  -18.6343  -42.7585 O.2       6 UNK        -0.5000 
     42 CA         -1.0781  -16.4695  -42.0296 C.3       6 UNK         0.1400 
     43 CB         -0.6059  -16.2372  -40.5869 C.3       6 UNK        -0.1800 
     44 N          -1.2289  -15.1784  -42.6983 N.am      6 UNK        -0.5000 
     45 C          -1.7020  -14.9995  -43.9397 C.2       5 UNK         0.5000 
     46 O          -2.1265  -15.9131  -44.6455 O.2       5 UNK        -0.5000 
     47 CA         -1.6318  -13.5691  -44.5092 C.3       5 UNK         0.1400 
     48 CB         -2.9712  -12.8445  -44.3164 C.3       5 UNK        -0.1800 
     49 N          -0.5567  -12.7600  -43.9249 N.am      5 UNK        -0.5000 
     50 C           0.7484  -13.0535  -43.9885 C.2       4 UNK         0.5000 
     51 O           1.1975  -14.0255  -44.6008 O.2       4 UNK        -0.5000 
     52 CA          1.6940  -12.0935  -43.2482 C.3       4 UNK         0.1400 
     53 CB          2.9406  -12.8157  -42.7080 C.3       4 UNK        -0.1800 
     54 N           2.0855  -11.0036  -44.1404 N.am      4 UNK        -0.5000 
     55 C           1.3252   -9.9239  -44.3831 C.2       3 UNK         0.5000 
     56 O           0.2534   -9.7236  -43.8086 O.2       3 UNK        -0.5000 
     57 CA          1.7853   -8.9199  -45.4631 C.3       3 UNK         0.1400 
     58 CB          1.6331   -7.4531  -45.0084 C.3       3 UNK        -0.1800 
     59 N           3.1180   -9.1836  -46.0139 N.am      3 UNK        -0.5000 
     60 C           4.3140   -9.0218  -45.4262 C.2       2 UNK         0.5000 
     61 O           4.4723   -8.5480  -44.3004 O.2       2 UNK        -0.5000 
     62 CA          5.5305   -9.5187  -46.2435 C.3       2 UNK         0.1400 
     63 CB          6.7916   -9.7347  -45.3805 C.3       2 UNK        -0.1800 
     64 N           5.2211  -10.7225  -47.0299 N.am      2 UNK        -0.5000 
     65 C           4.7736  -11.8893  -46.5427 C.2       1 UNK         0.5000 
     66 O           4.6609  -12.1313  -45.3421 O.2       1 UNK        -0.5000 
     67 C          -0.6331  -23.2142  -48.3841 C.2       11 UNK         0.5000 
     68 O          -0.5446  -24.3329  -48.8907 O.2       11 UNK        -0.5000 
     69 N          -1.7728  -22.5081  -48.3451 N.am      12 UNK        -0.5000 
     70 CA         -3.0571  -22.9807  -48.8643 C.3       12 UNK         0.1400 
     71 CB         -4.0889  -21.8466  -48.7946 C.3       12 UNK        -0.1800 
     72 C          -3.5686  -24.2384  -48.1371 C.2       12 UNK         0.5000 
     73 O          -4.0391  -25.1673  -48.7945 O.2       12 UNK        -0.5000 
     74 N          -3.4312  -24.2654  -46.8036 N.am      13 UNK        -0.5000 
     75 CA         -3.7519  -25.4096  -45.9500 C.3       13 UNK         0.1400 
     76 CB         -3.6592  -25.0028  -44.4723 C.3       13 UNK        -0.1800 
     77 C          -2.8645  -26.6323  -46.2424 C.2       13 UNK         0.5000 
     78 O          -3.3915  -27.7359  -46.3853 O.2       13 UNK        -0.5000 
     79 N          -1.5487  -26.4106  -46.3837 N.am      14 UNK        -0.5000 
     80 CA         -0.5569  -27.4267  -46.7537 C.3       14 UNK         0.1400 
     81 CB          0.8549  -26.8315  -46.6464 C.3       14 UNK        -0.1800 
     82 C          -0.7881  -28.0264  -48.1548 C.2       14 UNK         0.5000 
     83 O          -0.4786  -29.1975  -48.3734 O.2       14 UNK        -0.5000 
     84 N          -1.3849  -27.2360  -49.0560 N.am      15 UNK        -0.5000 
     85 CA         -1.8564  -27.6416  -50.3812 C.3       15 UNK         0.1400 
     86 CB         -1.8475  -26.4090  -51.3015 C.3       15 UNK        -0.1800 
     87 C          -3.2372  -28.3428  -50.3553 C.2       15 UNK         0.5000 
     88 O          -3.8832  -28.4372  -51.3993 O.2       15 UNK        -0.5000 
     89 N          -3.6584  -28.8325  -49.1788 N.am      16 UNK        -0.5000 
     90 CA         -4.8999  -29.5553  -48.8874 C.3       16 UNK         0.1400 
     91 CB         -5.0009  -30.8619  -49.7036 C.3       16 UNK        -0.1800 
     92 C          -6.1450  -28.6557  -49.0005 C.2       16 UNK         0.5000 
     93 O          -7.1489  -29.0561  -49.5930 O.2       16 UNK        -0.5000 
     94 N          -6.0447  -27.4560  -48.4089 N.am      17 UNK        -0.5000 
     95 CA         -7.0569  -26.3939  -48.3678 C.3       17 UNK         0.1400 
     96 CB         -8.2858  -26.8327  -47.5444 C.3       17 UNK        -0.1800 
     97 C          -7.4116  -25.8841  -49.7785 C.2       17 UNK         0.5000 
     98 O          -8.5847  -25.8368  -50.1555 O.2       17 UNK        -0.5000 
     99 N          -6.3680  -25.5396  -50.5417 N.am      18 UNK        -0.5000 
    100 CA        -6.4614  -25.0269  -51.9058 C.3       18 UNK         0.1400 
    101 CB        -5.0548  -24.9992  -52.5217 C.3       18 UNK        -0.1800 
    102 C         -7.0833  -23.6210  -51.9557 C.2       18 UNK         0.5000 
    103 O         -6.8453  -22.8076  -51.0594 O.2       18 UNK        -0.5000 
    104 N         -7.8103  -23.3316  -53.0410 N.am      19 UNK        -0.5000 
    105 CA        -8.3739  -22.0156  -53.3519 C.3       19 UNK         0.1400 
    106 CB        -9.6044  -22.2047  -54.2577 C.3       19 UNK        -0.1800 
    107 C         -7.3039  -21.0963  -53.9792 C.2       19 UNK         0.5000 
    108 O         -7.4510  -20.6512  -55.1194 O.2       19 UNK        -0.5000 
    109 N         -6.2146  -20.8755  -53.2344 N.am      20 UNK        -0.5000 
    110 CA        -5.0602  -20.0774  -53.6365 C.3       20 UNK         0.1400 
    111 CB        -3.9214  -20.3189  -52.6320 C.3       20 UNK        -0.1800 
    112 C         -5.3927  -18.5767  -53.7228 C.2       20 UNK         0.5000 
    113 O         -6.1783  -18.0703  -52.9184 O.2       20 UNK        -0.5000 
    114 N         -4.7460  -17.8876  -54.6705 N.am      21 UNK        -0.5000 
    115 CA        -4.8328  -16.4345  -54.8524 C.3       21 UNK         0.1400 
    116 CB        -4.4975  -16.1054  -56.3164 C.3       21 UNK        -0.1800 
    117 C         -3.9094  -15.6500  -53.8947 C.2       21 UNK         0.5000 
    118 O         -3.9944  -14.4222  -53.8443 O.2       21 UNK        -0.5000 
    119 N         -3.0303  -16.3680  -53.1844 N.am      22 UNK        -0.5000 
    120 CA        -2.0466  -15.8647  -52.2163 C.3       22 UNK         0.1400 
    121 C         -2.6766  -15.0390  -51.0592 C.2       22 UNK         0.5000 
    122 N         -2.0397  -13.9514  -50.6465 N.am      22 UNK        -0.7600 
    123 O         -3.7080  -15.4047  -50.5006 O.2       22 UNK        -0.5000 
    124 C124       -1.2025  -17.0278  -51.6353 C.3       23 UNK        -0.0398 
    125 S125       -0.3774  -18.0273  -52.9219 S.3       23 UNK        -0.2404 
    126 C126        1.3304  -17.4028  -52.8427 C.3       23 UNK        -0.0205 
    127 H127       -0.0669  -12.3205  -48.5594 H         1 UNK         0.0600 
    128 H128        0.0345  -11.7704  -46.8830 H         1 UNK         0.0600 
    129 H129        0.3321  -13.4666  -47.2785 H         1 UNK         0.0600 
    130 H130        2.4957  -13.8971  -47.0286 H         1 UNK         0.3000 
    131 H131        4.5389  -12.5693  -48.5657 H         1 UNK         0.0600 
    132 H132        6.0689  -14.1491  -47.2195 H         1 UNK         0.0800 
    133 H133        4.6433  -14.7854  -46.4449 H         1 UNK         0.0800 
    134 H134        2.4873  -15.7451  -48.1298 H         1 UNK         0.0800 
    135 H135        3.5586  -16.9090  -47.3794 H         1 UNK         0.0800 
    136 H136        2.0282  -15.9291  -50.6451 H         1 UNK         0.1150 
    137 H137        2.2492  -19.8972  -52.2579 H         1 UNK         0.1150 
    138 H138        3.9251  -19.0486  -48.4035 H         1 UNK         0.1150 
    139 H139        4.1402  -21.3709  -51.0569 H         1 UNK         0.0800 
    140 H140        4.2104  -21.2225  -49.3184 H         1 UNK         0.0800 
    141 H141        0.5605  -20.7609  -48.9078 H         1 UNK         0.0800 
    142 H142        2.0144  -20.9801  -47.9748 H         1 UNK         0.0800 
    143 H143        1.3234  -23.3934  -47.5366 H         1 UNK         0.0600 
    144 H144        0.3726  -21.0661  -46.2351 H         1 UNK         0.3000 
    145 H145       -1.2451  -22.7117  -43.4941 H         1 UNK         0.0600 
    146 H146        0.3227  -21.2690  -42.2512 H         1 UNK         0.0600 
    147 H147        1.2009  -22.6115  -42.9658 H         1 UNK         0.0600 
    148 H148        1.2975  -21.0142  -43.6973 H         1 UNK         0.0600 
    149 H149       -0.9356  -19.9572  -44.0575 H         1 UNK         0.3000 
    150 H150       -3.8642  -19.5801  -46.1313 H         1 UNK         0.0600 
    151 H151       -4.6095  -19.4509  -43.7667 H         1 UNK         0.0600 
    152 H152       -4.2647  -17.8447  -44.3919 H         1 UNK         0.0600 
    153 H153       -3.1178  -18.6384  -43.3140 H         1 UNK         0.0600 
    154 H154       -1.9522  -17.6569  -45.3466 H         1 UNK         0.3000 
    155 H155        0.3528  -18.1262  -48.0631 H         1 UNK         0.0600 
    156 H156       -1.5908  -16.6428  -48.7599 H         1 UNK         0.0600 
    157 H157       -0.1249  -15.7596  -48.3602 H         1 UNK         0.0600 
    158 H158       -1.4706  -15.8124  -47.2224 H         1 UNK         0.0600 
    159 H159        0.3084  -16.4137  -45.7385 H         1 UNK         0.3000 
    160 H160        2.1874  -18.5438  -43.5958 H         1 UNK         0.0600 
    161 H161        2.9291  -15.9570  -45.0633 H         1 UNK         0.0600 
    162 H162        3.9075  -17.4159  -44.9648 H         1 UNK         0.0600 
    163 H163        3.5896  -16.4763  -43.5155 H         1 UNK         0.0600 
    164 H164        1.0433  -15.8867  -43.4129 H         1 UNK         0.3000 
    165 H165       -2.0611  -16.9422  -41.9948 H         1 UNK         0.0600 
    166 H166       -1.3184  -15.6269  -40.0316 H         1 UNK         0.0600 
    167 H167       -0.5047  -17.1828  -40.0525 H         1 UNK         0.0600 
    168 H168        0.3628  -15.7368  -40.5552 H         1 UNK         0.0600 
    169 H169       -0.9086  -14.3667  -42.1918 H         1 UNK         0.3000 
    170 H170       -1.4420  -13.6561  -45.5802 H         1 UNK         0.0600 
    171 H171       -3.7896  -13.4109  -44.7631 H         1 UNK         0.0600 
    172 H172       -3.2055  -12.7053  -43.2603 H         1 UNK         0.0600 
    173 H173       -2.9601  -11.8630  -44.7909 H         1 UNK         0.0600 
    174 H174       -0.8351  -11.9094  -43.4536 H         1 UNK         0.3000 
    175 H175        1.1664  -11.6799  -42.3860 H         1 UNK         0.0600 
    176 H176        3.4691  -13.3691  -43.4836 H         1 UNK         0.0600 
    177 H177        3.6430  -12.1126  -42.2603 H         1 UNK         0.0600 
    178 H178        2.6631  -13.5353  -41.9371 H         1 UNK         0.0600 
    179 H179        2.9528  -11.1354  -44.6485 H         1 UNK         0.3000 
    180 H180        1.1002   -9.0657  -46.2995 H         1 UNK         0.0600 
    181 H181        2.2065   -7.2437  -44.1053 H         1 UNK         0.0600 
    182 H182        0.5907   -7.2195  -44.7889 H         1 UNK         0.0600 
    183 H183        1.9614   -6.7621  -45.7848 H         1 UNK         0.0600 
    184 H184        3.1054   -9.6259  -46.9274 H         1 UNK         0.3000 
    185 H185        5.7547   -8.7293  -46.9623 H         1 UNK         0.0600 
    186 H186        7.1029   -8.8042  -44.9046 H         1 UNK         0.0600 
    187 H187        6.6229  -10.4649  -44.5884 H         1 UNK         0.0600 
    188 H188        7.6282  -10.0837  -45.9857 H         1 UNK         0.0600 
    189 H189        5.2467  -10.6015  -48.0335 H         1 UNK         0.3000 
    190 H190       -1.7584  -21.5746  -47.9429 H         1 UNK         0.3000 
    191 H191       -2.9136  -23.2426  -49.9145 H         1 UNK         0.0600 
    192 H192       -4.2652  -21.5219  -47.7695 H         1 UNK         0.0600 
    193 H193       -5.0467  -22.1656  -49.2054 H         1 UNK         0.0600 
    194 H194       -3.7601  -20.9792  -49.3669 H         1 UNK         0.0600 
    195 H195       -3.0941  -23.4294  -46.3327 H         1 UNK         0.3000 
    196 H196       -4.7859  -25.6944  -46.1519 H         1 UNK         0.0600 
    197 H197       -3.9224  -25.8367  -43.8205 H         1 UNK         0.0600 
    198 H198       -4.3431  -24.1846  -44.2460 H         1 UNK         0.0600 
    199 H199       -2.6535  -24.6808  -44.2035 H         1 UNK         0.0600 
    200 H200       -1.1881  -25.4759  -46.2074 H         1 UNK         0.3000 
    201 H201       -0.6369  -28.2426  -46.0326 H         1 UNK         0.0600 
    202 H202        1.0614  -26.4875  -45.6329 H         1 UNK         0.0600 
    203 H203        0.9866  -25.9849  -47.3206 H         1 UNK         0.0600 
    204 H204        1.6134  -27.5737  -46.8983 H         1 UNK         0.0600 
    205 H205       -1.5537  -26.2697  -48.8012 H         1 UNK         0.3000 
    206 H206       -1.1497  -28.3642  -50.7937 H         1 UNK         0.0600 
    207 H207       -0.8557  -25.9584  -51.3444 H         1 UNK         0.0600 
    208 H208       -2.1260  -26.6719  -52.3224 H         1 UNK         0.0600 
    209 H209       -2.5423  -25.6457  -50.9540 H         1 UNK         0.0600 
    210 H210       -3.0790  -28.6518  -48.3688 H         1 UNK         0.3000 
    211 H211       -4.8354  -29.8407  -47.8364 H         1 UNK         0.0600 
    212 H212       -5.1413  -30.6707  -50.7676 H         1 UNK         0.0600 
    213 H213       -5.8464  -31.4638  -49.3686 H         1 UNK         0.0600 
    214 H214       -4.1041  -31.4703  -49.5866 H         1 UNK         0.0600 
    215 H215       -5.1475  -27.2148  -48.0087 H         1 UNK         0.3000 
    216 H216       -6.6034  -25.5507  -47.8458 H         1 UNK         0.0600 
    217 H217       -8.9873  -26.0065  -47.4237 H         1 UNK         0.0600 
    218 H218       -7.9943  -27.1590  -46.5461 H         1 UNK         0.0600 
    219 H219       -8.8261  -27.6514  -48.0205 H         1 UNK         0.0600 
    220 H220       -5.4448  -25.5597  -50.1197 H         1 UNK         0.3000 
    221 H221       -7.0848  -25.7118  -52.4845 H         1 UNK         0.0600 
    222 H222       -4.3842  -24.3470  -51.9606 H         1 UNK         0.0600 
    223 H223       -4.6166  -25.9967  -52.5437 H         1 UNK         0.0600 
    224 H224       -5.0820  -24.6353  -53.5496 H         1 UNK         0.0600 
    225 H225       -7.9249  -24.0391  -53.7527 H         1 UNK         0.3000 
    226 H226       -8.7122  -21.5400  -52.4288 H         1 UNK         0.0600 
    227 H227      -10.3603  -22.8210  -53.7706 H         1 UNK         0.0600 
    228 H228      -10.0700  -21.2460  -54.4898 H         1 UNK         0.0600 
    229 H229       -9.3417  -22.6811  -55.2030 H         1 UNK         0.0600 
    230 H230       -6.1909  -21.2818  -52.3060 H         1 UNK         0.3000 
    231 H231       -4.7366  -20.4259  -54.6197 H         1 UNK         0.0600 
    232 H232       -3.6742  -21.3785  -52.5598 H         1 UNK         0.0600 
    233 H233       -4.1860  -19.9684  -51.6336 H         1 UNK         0.0600 
    234 H234       -3.0136  -19.7955  -52.9336 H         1 UNK         0.0600 
    235 H235       -4.1207  -18.3775  -55.2948 H         1 UNK         0.3000 
    236 H236       -5.8573  -16.1103  -54.6572 H         1 UNK         0.0600 
    237 H237       -4.5910  -15.0359  -56.5093 H         1 UNK         0.0600 
    238 H238       -3.4778  -16.3968  -56.5713 H         1 UNK         0.0600 
    239 H239       -5.1749  -16.6167  -57.0008 H         1 UNK         0.0600 
    240 H240       -3.0382  -17.3678  -53.3097 H         1 UNK         0.3000 
    241 H241       -1.3765  -15.2055  -52.7713 H         1 UNK         0.0600 
    242 H242       -1.1978  -13.6261  -51.0947 H         1 UNK         0.3800 
    243 H243       -2.4370  -13.4154  -49.8915 H         1 UNK         0.3800 
    244 H244       -0.4527  -16.6432  -50.9439 H         1 UNK         0.0800 
    245 H245       -1.8336  -17.6996  -51.0502 H         1 UNK         0.0800 
    246 H246        1.3241  -16.3139  -52.9132 H         1 UNK         0.0800 
    247 H247        1.8756  -17.7609  -53.7171 H         1 UNK         0.0800 
@<TRIPOS>BOND
     1    1    2 1    
     2    1  127 1    
     3    1  128 1    
     4    1  129 1    
     5    2    3 2    
     6    2    4 am   BACKBONE|DICT|INTERRES
     7    4    5 1    
     8    4  130 1    
     9    5    6 1    
    10    5   65 1    
    11    5  131 1    
    12    6    7 1    
    13    6  132 1    
    14    6  133 1    
    15    7    8 1    
    16    8    9 1    
    17    8  134 1    
    18    8  135 1    
    19    9   10 ar   
    20    9   14 ar   
    21   10   11 ar   
    22   10  136 1    
    23   11   12 ar   
    24   11  126 1    
    25   12   13 ar   
    26   12  137 1    
    27   13   14 ar   
    28   13   15 1    
    29   14  138 1    
    30   15   16 1    
    31   15  139 1    
    32   15  140 1    
    33   16   17 1    
    34   17   18 1    
    35   17  141 1    
    36   17  142 1    
    37   18   19 1    
    38   18   67 1    
    39   18  143 1    
    40   19   20 am   BACKBONE|DICT|INTERRES
    41   19  144 1    
    42   20   21 2    
    43   20   22 1    
    44   22   23 1    
    45   22   24 1    
    46   22  145 1    
    47   23  146 1    
    48   23  147 1    
    49   23  148 1    
    50   24   25 am   BACKBONE|DICT|INTERRES
    51   24  149 1    
    52   25   26 2    
    53   25   27 1    
    54   27   28 1    
    55   27   29 1    
    56   27  150 1    
    57   28  151 1    
    58   28  152 1    
    59   28  153 1    
    60   29   30 am   BACKBONE|DICT|INTERRES
    61   29  154 1    
    62   30   31 2    
    63   30   32 1    
    64   32   33 1    
    65   32   34 1    
    66   32  155 1    
    67   33  156 1    
    68   33  157 1    
    69   33  158 1    
    70   34   35 am   BACKBONE|DICT|INTERRES
    71   34  159 1    
    72   35   36 2    
    73   35   37 1    
    74   37   38 1    
    75   37   39 1    
    76   37  160 1    
    77   38  161 1    
    78   38  162 1    
    79   38  163 1    
    80   39   40 am   BACKBONE|DICT|INTERRES
    81   39  164 1    
    82   40   41 2    
    83   40   42 1    
    84   42   43 1    
    85   42   44 1    
    86   42  165 1    
    87   43  166 1    
    88   43  167 1    
    89   43  168 1    
    90   44   45 am   BACKBONE|DICT|INTERRES
    91   44  169 1    
    92   45   46 2    
    93   45   47 1    
    94   47   48 1    
    95   47   49 1    
    96   47  170 1    
    97   48  171 1    
    98   48  172 1    
    99   48  173 1    
   100   49   50 am   BACKBONE|DICT|INTERRES
   101   49  174 1    
   102   50   51 2    
   103   50   52 1    
   104   52   53 1    
   105   52   54 1    
   106   52  175 1    
   107   53  176 1    
   108   53  177 1    
   109   53  178 1    
   110   54   55 am   BACKBONE|DICT|INTERRES
   111   54  179 1    
   112   55   56 2    
   113   55   57 1    
   114   57   58 1    
   115   57   59 1    
   116   57  180 1    
   117   58  181 1    
   118   58  182 1    
   119   58  183 1    
   120   59   60 am   BACKBONE|DICT|INTERRES
   121   59  184 1    
   122   60   61 2    
   123   60   62 1    
   124   62   63 1    
   125   62   64 1    
   126   62  185 1    
   127   63  186 1    
   128   63  187 1    
   129   63  188 1    
   130   64   65 am   BACKBONE|DICT|INTERRES
   131   64  189 1    
   132   65   66 2    
   133   67   68 2    
   134   67   69 am   BACKBONE|DICT|INTERRES
   135   69   70 1    
   136   69  190 1    
   137   70   71 1    
   138   70   72 1    
   139   70  191 1    
   140   71  192 1    
   141   71  193 1    
   142   71  194 1    
   143   72   73 2    
   144   72   74 am   BACKBONE|DICT|INTERRES
   145   74   75 1    
   146   74  195 1    
   147   75   76 1    
   148   75   77 1    
   149   75  196 1    
   150   76  197 1    
   151   76  198 1    
   152   76  199 1    
   153   77   78 2    
   154   77   79 am   BACKBONE|DICT|INTERRES
   155   79   80 1    
   156   79  200 1    
   157   80   81 1    
   158   80   82 1    
   159   80  201 1    
   160   81  202 1    
   161   81  203 1    
   162   81  204 1    
   163   82   83 2    
   164   82   84 am   BACKBONE|DICT|INTERRES
   165   84   85 1    
   166   84  205 1    
   167   85   86 1    
   168   85   87 1    
   169   85  206 1    
   170   86  207 1    
   171   86  208 1    
   172   86  209 1    
   173   87   88 2    
   174   87   89 am   BACKBONE|DICT|INTERRES
   175   89   90 1    
   176   89  210 1    
   177   90   91 1    
   178   90   92 1    
   179   90  211 1    
   180   91  212 1    
   181   91  213 1    
   182   91  214 1    
   183   92   93 2    
   184   92   94 am   BACKBONE|DICT|INTERRES
   185   94   95 1    
   186   94  215 1    
   187   95   96 1    
   188   95   97 1    
   189   95  216 1    
   190   96  217 1    
   191   96  218 1    
   192   96  219 1    
   193   97   98 2    
   194   97   99 am   BACKBONE|DICT|INTERRES
   195   99  100 1    
   196   99  220 1    
   197  100  101 1    
   198  100  102 1    
   199  100  221 1    
   200  101  222 1    
   201  101  223 1    
   202  101  224 1    
   203  102  103 2    
   204  102  104 am   BACKBONE|DICT|INTERRES
   205  104  105 1    
   206  104  225 1    
   207  105  106 1    
   208  105  107 1    
   209  105  226 1    
   210  106  227 1    
   211  106  228 1    
   212  106  229 1    
   213  107  108 2    
   214  107  109 am   BACKBONE|DICT|INTERRES
   215  109  110 1    
   216  109  230 1    
   217  110  111 1    
   218  110  112 1    
   219  110  231 1    
   220  111  232 1    
   221  111  233 1    
   222  111  234 1    
   223  112  113 2    
   224  112  114 am   BACKBONE|DICT|INTERRES
   225  114  115 1    
   226  114  235 1    
   227  115  116 1    
   228  115  117 1    
   229  115  236 1    
   230  116  237 1    
   231  116  238 1    
   232  116  239 1    
   233  117  118 2    
   234  117  119 am   BACKBONE|DICT|INTERRES
   235  119  120 1    
   236  119  240 1    
   237  120  121 1    
   238  120  124 1    
   239  120  241 1    
   240  121  122 am   BACKBONE|DICT|INTERRES
   241  121  123 2    
   242  122  242 1    
   243  122  243 1    
   244  124  125 1    
   245  124  244 1    
   246  124  245 1    
   247  125  126 1    
   248  126  246 1    
   249  126  247 1    
@<TRIPOS>SUBSTRUCTURE
     1 UNK         1 GROUP             0       ****    0 ROOT    
