@<TRIPOS>MOLECULE
3R540
247   249    1
SMALL
USER_CHARGES


@<TRIPOS>ATOM
      1 CA         -0.9078  -18.1251  -50.1974 C.3       0 UNK        -0.1800 
      2 C          -0.3735  -17.1342  -49.1714 C.2       0 UNK         0.5000 
      3 O           0.3491  -17.5324  -48.2612 O.2       0 UNK        -0.5000 
      4 N          -0.7393  -15.8505  -49.3118 N.am      1 UNK        -0.5000 
      5 CA         -0.3330  -14.7277  -48.4483 C.3       1 UNK         0.1400 
      6 C6          1.1974  -14.4486  -48.4628 C.3       23 UNK        -0.0398 
      7 S7          1.8503  -14.0656  -50.1197 S.3       23 UNK        -0.2404 
      8 C8          3.3984  -15.0297  -50.1245 C.3       23 UNK        -0.0205 
      9 C9          3.1789  -16.5014  -50.4509 C.ar      23 UNK        -0.0193 
     10 C10         2.6521  -16.8605  -51.6933 C.ar      23 UNK        -0.1150 
     11 C11         2.4855  -18.2036  -52.0407 C.ar      23 UNK        -0.0193 
     12 C12         2.8855  -19.1947  -51.1392 C.ar      23 UNK        -0.1150 
     13 C13         3.4292  -18.8559  -49.8943 C.ar      23 UNK        -0.0193 
     14 C14         3.5594  -17.5042  -49.5516 C.ar      23 UNK        -0.1150 
     15 C15         3.9754  -19.9392  -48.9662 C.3       23 UNK        -0.0205 
     16 S16         2.8351  -21.3406  -48.7026 S.3       23 UNK        -0.2404 
     17 C17         2.0521  -20.8793  -47.1245 C.3       23 UNK        -0.0398 
     18 CA          1.1236  -21.9931  -46.5725 C.3       11 UNK         0.1400 
     19 N           0.9558  -21.9096  -45.1155 N.am      11 UNK        -0.5000 
     20 C           0.2908  -22.7973  -44.3597 C.2       10 UNK         0.5000 
     21 O          -0.1970  -23.8371  -44.8003 O.2       10 UNK        -0.5000 
     22 CA          0.0875  -22.4474  -42.8721 C.3       10 UNK         0.1400 
     23 CB          1.3081  -22.8542  -42.0339 C.3       10 UNK        -0.1800 
     24 N          -0.2136  -21.0310  -42.6597 N.am      10 UNK        -0.5000 
     25 C          -1.3200  -20.4172  -43.1058 C.2       9 UNK         0.5000 
     26 O          -2.2410  -21.0002  -43.6759 O.2       9 UNK        -0.5000 
     27 CA         -1.3745  -18.8855  -42.9554 C.3       9 UNK         0.1400 
     28 CB         -1.8064  -18.4853  -41.5372 C.3       9 UNK        -0.1800 
     29 N          -0.0955  -18.2552  -43.2901 N.am      9 UNK        -0.5000 
     30 C           0.4969  -18.3388  -44.4899 C.2       8 UNK         0.5000 
     31 O          -0.0324  -18.8741  -45.4606 O.2       8 UNK        -0.5000 
     32 CA          1.9450  -17.8270  -44.6025 C.3       8 UNK         0.1400 
     33 CB          2.0023  -16.3282  -44.9055 C.3       8 UNK        -0.1800 
     34 N           2.7085  -18.1030  -43.3886 N.am      8 UNK        -0.5000 
     35 C           3.1926  -19.3085  -43.0651 C.2       7 UNK         0.5000 
     36 O           3.0786  -20.3005  -43.7834 O.2       7 UNK        -0.5000 
     37 CA          3.8879  -19.4306  -41.6963 C.3       7 UNK         0.1400 
     38 CB          5.3776  -19.0769  -41.8151 C.3       7 UNK        -0.1800 
     39 N           3.2689  -18.5805  -40.6773 N.am      7 UNK        -0.5000 
     40 C           2.0388  -18.7726  -40.1802 C.2       6 UNK         0.5000 
     41 O           1.3252  -19.7278  -40.4851 O.2       6 UNK        -0.5000 
     42 CA          1.4983  -17.6857  -39.2290 C.3       6 UNK         0.1400 
     43 CB          1.9006  -17.9897  -37.7785 C.3       6 UNK        -0.1800 
     44 N           1.9447  -16.3338  -39.5861 N.am      6 UNK        -0.5000 
     45 C           1.6369  -15.7148  -40.7334 C.2       5 UNK         0.5000 
     46 O           0.9192  -16.2117  -41.6033 O.2       5 UNK        -0.5000 
     47 CA          2.2971  -14.3540  -40.9840 C.3       5 UNK         0.1400 
     48 CB          3.7915  -14.5519  -41.3169 C.3       5 UNK        -0.1800 
     49 N           1.6149  -13.6926  -42.0946 N.am      5 UNK        -0.5000 
     50 C           1.7926  -12.4225  -42.4740 C.2       4 UNK         0.5000 
     51 O           2.5204  -11.6270  -41.8778 O.2       4 UNK        -0.5000 
     52 CA          1.0484  -11.9552  -43.7378 C.3       4 UNK         0.1400 
     53 CB          1.8882  -12.2506  -44.9904 C.3       4 UNK        -0.1800 
     54 N          -0.2914  -12.5284  -43.8983 N.am      4 UNK        -0.5000 
     55 C          -1.3474  -12.1794  -43.1479 C.2       3 UNK         0.5000 
     56 O          -1.2587  -11.4417  -42.1650 O.2       3 UNK        -0.5000 
     57 CA         -2.7461  -12.6748  -43.5722 C.3       3 UNK         0.1400 
     58 CB         -3.5963  -11.4980  -44.0791 C.3       3 UNK        -0.1800 
     59 N          -2.7248  -13.7027  -44.6131 N.am      3 UNK        -0.5000 
     60 C          -2.6220  -15.0157  -44.3781 C.2       2 UNK         0.5000 
     61 O          -2.5214  -15.4982  -43.2511 O.2       2 UNK        -0.5000 
     62 CA         -2.6587  -15.9567  -45.6015 C.3       2 UNK         0.1400 
     63 CB         -4.1127  -16.3715  -45.8775 C.3       2 UNK        -0.1800 
     64 N          -2.0683  -15.4606  -46.8535 N.am      2 UNK        -0.5000 
     65 C          -0.8770  -14.8620  -47.0047 C.2       1 UNK         0.5000 
     66 O          -0.2188  -14.4221  -46.0638 O.2       1 UNK        -0.5000 
     67 C          -0.2369  -22.0045  -47.2993 C.2       11 UNK         0.5000 
     68 O          -0.4923  -22.8946  -48.1114 O.2       11 UNK        -0.5000 
     69 N          -1.1054  -21.0484  -46.9455 N.am      12 UNK        -0.5000 
     70 CA         -2.4678  -20.9342  -47.4560 C.3       12 UNK         0.1400 
     71 CB         -3.0853  -19.6168  -46.9726 C.3       12 UNK        -0.1800 
     72 C          -3.3535  -22.1350  -47.0802 C.2       12 UNK         0.5000 
     73 O          -4.0972  -22.6188  -47.9306 O.2       12 UNK        -0.5000 
     74 N          -3.2366  -22.6257  -45.8387 N.am      13 UNK        -0.5000 
     75 CA         -3.9377  -23.8177  -45.3567 C.3       13 UNK         0.1400 
     76 CB         -3.7333  -23.9647  -43.8417 C.3       13 UNK        -0.1800 
     77 C          -3.5144  -25.1035  -46.0922 C.2       13 UNK         0.5000 
     78 O          -4.3719  -25.9319  -46.3998 O.2       13 UNK        -0.5000 
     79 N          -2.2115  -25.2369  -46.3784 N.am      14 UNK        -0.5000 
     80 CA         -1.6405  -26.3428  -47.1468 C.3       14 UNK         0.1400 
     81 CB         -0.1111  -26.3380  -46.9988 C.3       14 UNK        -0.1800 
     82 C          -2.0483  -26.3039  -48.6308 C.2       14 UNK         0.5000 
     83 O          -2.3760  -27.3487  -49.1950 O.2       14 UNK        -0.5000 
     84 N          -2.0303  -25.1058  -49.2320 N.am      15 UNK        -0.5000 
     85 CA         -2.4477  -24.8669  -50.6148 C.3       15 UNK         0.1400 
     86 CB         -1.9613  -23.4790  -51.0569 C.3       15 UNK        -0.1800 
     87 C          -3.9683  -25.0149  -50.8192 C.2       15 UNK         0.5000 
     88 O          -4.3933  -25.4856  -51.8753 O.2       15 UNK        -0.5000 
     89 N          -4.7556  -24.6272  -49.8055 N.am      16 UNK        -0.5000 
     90 CA         -6.2160  -24.6910  -49.7353 C.3       16 UNK         0.1400 
     91 CB         -6.6865  -26.1585  -49.6274 C.3       16 UNK        -0.1800 
     92 C          -6.8623  -23.8976  -50.8876 C.2       16 UNK         0.5000 
     93 O          -6.7148  -22.6764  -50.9319 O.2       16 UNK        -0.5000 
     94 N          -7.5251  -24.5895  -51.8237 N.am      17 UNK        -0.5000 
     95 CA         -8.1308  -24.0058  -53.0234 C.3       17 UNK         0.1400 
     96 CB         -8.9175  -25.0957  -53.7669 C.3       17 UNK        -0.1800 
     97 C          -7.1150  -23.3327  -53.9699 C.2       17 UNK         0.5000 
     98 O          -7.4844  -22.4017  -54.6859 O.2       17 UNK        -0.5000 
     99 N          -5.8538  -23.7877  -53.9404 N.am      18 UNK        -0.5000 
    100 CA        -4.7572  -23.2301  -54.7315 C.3       18 UNK         0.1400 
    101 CB        -3.6876  -24.3129  -54.9501 C.3       18 UNK        -0.1800 
    102 C         -4.1361  -21.9635  -54.1098 C.2       18 UNK         0.5000 
    103 O         -3.2803  -21.3558  -54.7499 O.2       18 UNK        -0.5000 
    104 N         -4.5458  -21.5758  -52.8904 N.am      19 UNK        -0.5000 
    105 CA        -4.0493  -20.3751  -52.2093 C.3       19 UNK         0.1400 
    106 CB        -4.4790  -20.4019  -50.7357 C.3       19 UNK        -0.1800 
    107 C         -4.5302  -19.0677  -52.8649 C.2       19 UNK         0.5000 
    108 O         -3.8400  -18.0540  -52.7593 O.2       19 UNK        -0.5000 
    109 N         -5.6992  -19.1148  -53.5208 N.am      20 UNK        -0.5000 
    110 CA        -6.3570  -18.0035  -54.2077 C.3       20 UNK         0.1400 
    111 CB        -7.7486  -18.4678  -54.6706 C.3       20 UNK        -0.1800 
    112 C         -5.5101  -17.4686  -55.3792 C.2       20 UNK         0.5000 
    113 O         -5.5767  -18.0117  -56.4827 O.2       20 UNK        -0.5000 
    114 N         -4.7026  -16.4385  -55.0876 N.am      21 UNK        -0.5000 
    115 CA        -3.7073  -15.7995  -55.9584 C.3       21 UNK         0.1400 
    116 CB        -4.3794  -15.1415  -57.1822 C.3       21 UNK        -0.1800 
    117 C         -2.5285  -16.7225  -56.3458 C.2       21 UNK         0.5000 
    118 O         -1.8301  -16.4334  -57.3196 O.2       21 UNK        -0.5000 
    119 N         -2.3115  -17.7891  -55.5620 N.am      22 UNK        -0.5000 
    120 CA        -1.2861  -18.8330  -55.7446 C.3       22 UNK         0.1400 
    121 C         -1.4499  -19.6815  -57.0472 C.2       22 UNK         0.5000 
    122 N         -0.5892  -20.6675  -57.2697 N.am      22 UNK        -0.7600 
    123 O         -2.3564  -19.4892  -57.8546 O.2       22 UNK        -0.5000 
    124 C124        0.1570  -18.2817  -55.5642 C.3       23 UNK        -0.0398 
    125 S125        0.4416  -17.6546  -53.8732 S.3       23 UNK        -0.2404 
    126 C126        1.9376  -18.5897  -53.4095 C.3       23 UNK        -0.0205 
    127 H127       -0.0826  -18.6693  -50.6560 H         1 UNK         0.0600 
    128 H128       -1.4681  -17.6297  -50.9910 H         1 UNK         0.0600 
    129 H129       -1.5638  -18.8484  -49.7150 H         1 UNK         0.0600 
    130 H130       -1.3250  -15.5966  -50.0947 H         1 UNK         0.3000 
    131 H131       -0.8257  -13.8445  -48.8572 H         1 UNK         0.0600 
    132 H132        1.7418  -15.2971  -48.0487 H         1 UNK         0.0800 
    133 H133        1.4411  -13.5952  -47.8282 H         1 UNK         0.0800 
    134 H134        3.9079  -14.9095  -49.1671 H         1 UNK         0.0800 
    135 H135        4.0657  -14.6068  -50.8766 H         1 UNK         0.0800 
    136 H136        2.3759  -16.0864  -52.3954 H         1 UNK         0.1150 
    137 H137        2.7989  -20.2358  -51.4165 H         1 UNK         0.1150 
    138 H138        3.9924  -17.2316  -48.5996 H         1 UNK         0.1150 
    139 H139        4.8918  -20.3281  -49.4117 H         1 UNK         0.0800 
    140 H140        4.2661  -19.5160  -48.0035 H         1 UNK         0.0800 
    141 H141        1.5270  -19.9314  -47.2534 H         1 UNK         0.0800 
    142 H142        2.8568  -20.6883  -46.4143 H         1 UNK         0.0800 
    143 H143        1.5998  -22.9578  -46.7613 H         1 UNK         0.0600 
    144 H144        1.3774  -21.1103  -44.6576 H         1 UNK         0.3000 
    145 H145       -0.7681  -23.0220  -42.5123 H         1 UNK         0.0600 
    146 H146        1.1417  -22.6572  -40.9746 H         1 UNK         0.0600 
    147 H147        2.2064  -22.3173  -42.3356 H         1 UNK         0.0600 
    148 H148        1.5135  -23.9202  -42.1389 H         1 UNK         0.0600 
    149 H149        0.4680  -20.4891  -42.1386 H         1 UNK         0.3000 
    150 H150       -2.1233  -18.5086  -43.6538 H         1 UNK         0.0600 
    151 H151       -2.8136  -18.8452  -41.3250 H         1 UNK         0.0600 
    152 H152       -1.8150  -17.4020  -41.4158 H         1 UNK         0.0600 
    153 H153       -1.1465  -18.9010  -40.7774 H         1 UNK         0.0600 
    154 H154        0.3589  -17.7175  -42.5572 H         1 UNK         0.3000 
    155 H155        2.4227  -18.3473  -45.4351 H         1 UNK         0.0600 
    156 H156        3.0212  -15.9442  -44.8567 H         1 UNK         0.0600 
    157 H157        1.6410  -16.1495  -45.9155 H         1 UNK         0.0600 
    158 H158        1.3852  -15.7460  -44.2216 H         1 UNK         0.0600 
    159 H159        2.7903  -17.3500  -42.7230 H         1 UNK         0.3000 
    160 H160        3.8066  -20.4703  -41.3721 H         1 UNK         0.0600 
    161 H161        5.8952  -19.2272  -40.8675 H         1 UNK         0.0600 
    162 H162        5.5238  -18.0391  -42.1174 H         1 UNK         0.0600 
    163 H163        5.8699  -19.7076  -42.5566 H         1 UNK         0.0600 
    164 H164        3.7967  -17.7788  -40.3660 H         1 UNK         0.3000 
    165 H165        0.4085  -17.7048  -39.2909 H         1 UNK         0.0600 
    166 H166        1.4542  -17.2746  -37.0872 H         1 UNK         0.0600 
    167 H167        1.5618  -18.9828  -37.4799 H         1 UNK         0.0600 
    168 H168        2.9825  -17.9576  -37.6440 H         1 UNK         0.0600 
    169 H169        2.5436  -15.8669  -38.9202 H         1 UNK         0.3000 
    170 H170        2.1899  -13.7446  -40.0845 H         1 UNK         0.0600 
    171 H171        3.9247  -15.1263  -42.2346 H         1 UNK         0.0600 
    172 H172        4.3048  -13.5993  -41.4456 H         1 UNK         0.0600 
    173 H173        4.3112  -15.0822  -40.5183 H         1 UNK         0.0600 
    174 H174        0.9615  -14.2821  -42.5958 H         1 UNK         0.3000 
    175 H175        0.9376  -10.8710  -43.6660 H         1 UNK         0.0600 
    176 H176        2.0557  -13.3201  -45.1204 H         1 UNK         0.0600 
    177 H177        1.4011  -11.8747  -45.8901 H         1 UNK         0.0600 
    178 H178        2.8665  -11.7728  -44.9262 H         1 UNK         0.0600 
    179 H179       -0.4180  -13.1769  -44.6722 H         1 UNK         0.3000 
    180 H180       -3.2305  -13.0758  -42.6792 H         1 UNK         0.0600 
    181 H181       -4.6083  -11.8199  -44.3255 H         1 UNK         0.0600 
    182 H182       -3.1619  -11.0424  -44.9698 H         1 UNK         0.0600 
    183 H183       -3.6820  -10.7188  -43.3205 H         1 UNK         0.0600 
    184 H184       -2.7812  -13.3873  -45.5702 H         1 UNK         0.3000 
    185 H185       -2.0929  -16.8503  -45.3360 H         1 UNK         0.0600 
    186 H186       -4.7372  -15.5072  -46.1071 H         1 UNK         0.0600 
    187 H187       -4.1849  -17.0598  -46.7179 H         1 UNK         0.0600 
    188 H188       -4.5479  -16.8703  -45.0104 H         1 UNK         0.0600 
    189 H189       -2.5336  -15.7583  -47.6979 H         1 UNK         0.3000 
    190 H190       -0.7972  -20.3265  -46.2963 H         1 UNK         0.3000 
    191 H191       -2.4043  -20.8998  -48.5448 H         1 UNK         0.0600 
    192 H192       -2.4835  -18.7647  -47.2890 H         1 UNK         0.0600 
    193 H193       -3.1643  -19.5824  -45.8856 H         1 UNK         0.0600 
    194 H194       -4.0873  -19.4836  -47.3822 H         1 UNK         0.0600 
    195 H195       -2.6521  -22.1348  -45.1675 H         1 UNK         0.3000 
    196 H196       -5.0041  -23.6697  -45.5394 H         1 UNK         0.0600 
    197 H197       -4.0961  -23.0866  -43.3073 H         1 UNK         0.0600 
    198 H198       -2.6819  -24.1006  -43.5893 H         1 UNK         0.0600 
    199 H199       -4.2774  -24.8279  -43.4565 H         1 UNK         0.0600 
    200 H200       -1.5596  -24.5375  -46.0350 H         1 UNK         0.3000 
    201 H201       -2.0160  -27.2767  -46.7234 H         1 UNK         0.0600 
    202 H202        0.1830  -26.4506  -45.9552 H         1 UNK         0.0600 
    203 H203        0.3281  -25.4116  -47.3702 H         1 UNK         0.0600 
    204 H204        0.3383  -27.1617  -47.5547 H         1 UNK         0.0600 
    205 H205       -1.6831  -24.3030  -48.7139 H         1 UNK         0.3000 
    206 H206       -1.9604  -25.6101  -51.2493 H         1 UNK         0.0600 
    207 H207       -2.3572  -22.6925  -50.4157 H         1 UNK         0.0600 
    208 H208       -0.8736  -23.4157  -51.0213 H         1 UNK         0.0600 
    209 H209       -2.2650  -23.2607  -52.0804 H         1 UNK         0.0600 
    210 H210       -4.3197  -24.1415  -49.0259 H         1 UNK         0.3000 
    211 H211       -6.5022  -24.1819  -48.8139 H         1 UNK         0.0600 
    212 H212       -6.3997  -26.7532  -50.4952 H         1 UNK         0.0600 
    213 H213       -7.7704  -26.2182  -49.5223 H         1 UNK         0.0600 
    214 H214       -6.2534  -26.6360  -48.7480 H         1 UNK         0.0600 
    215 H215       -7.5750  -25.5938  -51.7330 H         1 UNK         0.3000 
    216 H216       -8.8343  -23.2359  -52.6998 H         1 UNK         0.0600 
    217 H217       -9.4055  -24.6893  -54.6538 H         1 UNK         0.0600 
    218 H218       -9.6974  -25.5209  -53.1349 H         1 UNK         0.0600 
    219 H219       -8.2675  -25.9086  -54.0932 H         1 UNK         0.0600 
    220 H220       -5.6087  -24.5292  -53.2921 H         1 UNK         0.3000 
    221 H221       -5.1436  -22.9471  -55.7130 H         1 UNK         0.0600 
    222 H222       -3.1912  -24.5883  -54.0203 H         1 UNK         0.0600 
    223 H223       -4.1200  -25.2158  -55.3815 H         1 UNK         0.0600 
    224 H224       -2.9158  -23.9637  -55.6373 H         1 UNK         0.0600 
    225 H225       -5.2606  -22.1088  -52.4084 H         1 UNK         0.3000 
    226 H226       -2.9578  -20.3894  -52.2465 H         1 UNK         0.0600 
    227 H227       -4.2178  -21.3456  -50.2612 H         1 UNK         0.0600 
    228 H228       -3.9941  -19.6034  -50.1732 H         1 UNK         0.0600 
    229 H229       -5.5559  -20.2679  -50.6277 H         1 UNK         0.0600 
    230 H230       -6.1673  -20.0078  -53.5766 H         1 UNK         0.3000 
    231 H231       -6.4987  -17.1960  -53.4865 H         1 UNK         0.0600 
    232 H232       -8.2686  -17.6713  -55.2043 H         1 UNK         0.0600 
    233 H233       -8.3719  -18.7510  -53.8223 H         1 UNK         0.0600 
    234 H234       -7.6866  -19.3271  -55.3400 H         1 UNK         0.0600 
    235 H235       -4.6866  -16.1238  -54.1263 H         1 UNK         0.3000 
    236 H236       -3.2667  -14.9986  -55.3630 H         1 UNK         0.0600 
    237 H237       -4.7675  -15.8838  -57.8801 H         1 UNK         0.0600 
    238 H238       -5.2058  -14.4979  -56.8810 H         1 UNK         0.0600 
    239 H239       -3.6705  -14.5204  -57.7308 H         1 UNK         0.0600 
    240 H240       -2.9300  -17.9231  -54.7725 H         1 UNK         0.3000 
    241 H241       -1.4638  -19.5379  -54.9330 H         1 UNK         0.0600 
    242 H242        0.1430  -20.8969  -56.6169 H         1 UNK         0.3800 
    243 H243       -0.6985  -21.2253  -58.1023 H         1 UNK         0.3800 
    244 H244        0.3619  -17.4808  -56.2751 H         1 UNK         0.0800 
    245 H245        0.8984  -19.0532  -55.7722 H         1 UNK         0.0800 
    246 H246        1.7050  -19.6554  -53.4397 H         1 UNK         0.0800 
    247 H247        2.7162  -18.4151  -54.1534 H         1 UNK         0.0800 
@<TRIPOS>BOND
     1    1    2 1    
     2    1  127 1    
     3    1  128 1    
     4    1  129 1    
     5    2    3 2    
     6    2    4 am   BACKBONE|DICT|INTERRES
     7    4    5 1    
     8    4  130 1    
     9    5    6 1    
    10    5   65 1    
    11    5  131 1    
    12    6    7 1    
    13    6  132 1    
    14    6  133 1    
    15    7    8 1    
    16    8    9 1    
    17    8  134 1    
    18    8  135 1    
    19    9   10 ar   
    20    9   14 ar   
    21   10   11 ar   
    22   10  136 1    
    23   11   12 ar   
    24   11  126 1    
    25   12   13 ar   
    26   12  137 1    
    27   13   14 ar   
    28   13   15 1    
    29   14  138 1    
    30   15   16 1    
    31   15  139 1    
    32   15  140 1    
    33   16   17 1    
    34   17   18 1    
    35   17  141 1    
    36   17  142 1    
    37   18   19 1    
    38   18   67 1    
    39   18  143 1    
    40   19   20 am   BACKBONE|DICT|INTERRES
    41   19  144 1    
    42   20   21 2    
    43   20   22 1    
    44   22   23 1    
    45   22   24 1    
    46   22  145 1    
    47   23  146 1    
    48   23  147 1    
    49   23  148 1    
    50   24   25 am   BACKBONE|DICT|INTERRES
    51   24  149 1    
    52   25   26 2    
    53   25   27 1    
    54   27   28 1    
    55   27   29 1    
    56   27  150 1    
    57   28  151 1    
    58   28  152 1    
    59   28  153 1    
    60   29   30 am   BACKBONE|DICT|INTERRES
    61   29  154 1    
    62   30   31 2    
    63   30   32 1    
    64   32   33 1    
    65   32   34 1    
    66   32  155 1    
    67   33  156 1    
    68   33  157 1    
    69   33  158 1    
    70   34   35 am   BACKBONE|DICT|INTERRES
    71   34  159 1    
    72   35   36 2    
    73   35   37 1    
    74   37   38 1    
    75   37   39 1    
    76   37  160 1    
    77   38  161 1    
    78   38  162 1    
    79   38  163 1    
    80   39   40 am   BACKBONE|DICT|INTERRES
    81   39  164 1    
    82   40   41 2    
    83   40   42 1    
    84   42   43 1    
    85   42   44 1    
    86   42  165 1    
    87   43  166 1    
    88   43  167 1    
    89   43  168 1    
    90   44   45 am   BACKBONE|DICT|INTERRES
    91   44  169 1    
    92   45   46 2    
    93   45   47 1    
    94   47   48 1    
    95   47   49 1    
    96   47  170 1    
    97   48  171 1    
    98   48  172 1    
    99   48  173 1    
   100   49   50 am   BACKBONE|DICT|INTERRES
   101   49  174 1    
   102   50   51 2    
   103   50   52 1    
   104   52   53 1    
   105   52   54 1    
   106   52  175 1    
   107   53  176 1    
   108   53  177 1    
   109   53  178 1    
   110   54   55 am   BACKBONE|DICT|INTERRES
   111   54  179 1    
   112   55   56 2    
   113   55   57 1    
   114   57   58 1    
   115   57   59 1    
   116   57  180 1    
   117   58  181 1    
   118   58  182 1    
   119   58  183 1    
   120   59   60 am   BACKBONE|DICT|INTERRES
   121   59  184 1    
   122   60   61 2    
   123   60   62 1    
   124   62   63 1    
   125   62   64 1    
   126   62  185 1    
   127   63  186 1    
   128   63  187 1    
   129   63  188 1    
   130   64   65 am   BACKBONE|DICT|INTERRES
   131   64  189 1    
   132   65   66 2    
   133   67   68 2    
   134   67   69 am   BACKBONE|DICT|INTERRES
   135   69   70 1    
   136   69  190 1    
   137   70   71 1    
   138   70   72 1    
   139   70  191 1    
   140   71  192 1    
   141   71  193 1    
   142   71  194 1    
   143   72   73 2    
   144   72   74 am   BACKBONE|DICT|INTERRES
   145   74   75 1    
   146   74  195 1    
   147   75   76 1    
   148   75   77 1    
   149   75  196 1    
   150   76  197 1    
   151   76  198 1    
   152   76  199 1    
   153   77   78 2    
   154   77   79 am   BACKBONE|DICT|INTERRES
   155   79   80 1    
   156   79  200 1    
   157   80   81 1    
   158   80   82 1    
   159   80  201 1    
   160   81  202 1    
   161   81  203 1    
   162   81  204 1    
   163   82   83 2    
   164   82   84 am   BACKBONE|DICT|INTERRES
   165   84   85 1    
   166   84  205 1    
   167   85   86 1    
   168   85   87 1    
   169   85  206 1    
   170   86  207 1    
   171   86  208 1    
   172   86  209 1    
   173   87   88 2    
   174   87   89 am   BACKBONE|DICT|INTERRES
   175   89   90 1    
   176   89  210 1    
   177   90   91 1    
   178   90   92 1    
   179   90  211 1    
   180   91  212 1    
   181   91  213 1    
   182   91  214 1    
   183   92   93 2    
   184   92   94 am   BACKBONE|DICT|INTERRES
   185   94   95 1    
   186   94  215 1    
   187   95   96 1    
   188   95   97 1    
   189   95  216 1    
   190   96  217 1    
   191   96  218 1    
   192   96  219 1    
   193   97   98 2    
   194   97   99 am   BACKBONE|DICT|INTERRES
   195   99  100 1    
   196   99  220 1    
   197  100  101 1    
   198  100  102 1    
   199  100  221 1    
   200  101  222 1    
   201  101  223 1    
   202  101  224 1    
   203  102  103 2    
   204  102  104 am   BACKBONE|DICT|INTERRES
   205  104  105 1    
   206  104  225 1    
   207  105  106 1    
   208  105  107 1    
   209  105  226 1    
   210  106  227 1    
   211  106  228 1    
   212  106  229 1    
   213  107  108 2    
   214  107  109 am   BACKBONE|DICT|INTERRES
   215  109  110 1    
   216  109  230 1    
   217  110  111 1    
   218  110  112 1    
   219  110  231 1    
   220  111  232 1    
   221  111  233 1    
   222  111  234 1    
   223  112  113 2    
   224  112  114 am   BACKBONE|DICT|INTERRES
   225  114  115 1    
   226  114  235 1    
   227  115  116 1    
   228  115  117 1    
   229  115  236 1    
   230  116  237 1    
   231  116  238 1    
   232  116  239 1    
   233  117  118 2    
   234  117  119 am   BACKBONE|DICT|INTERRES
   235  119  120 1    
   236  119  240 1    
   237  120  121 1    
   238  120  124 1    
   239  120  241 1    
   240  121  122 am   BACKBONE|DICT|INTERRES
   241  121  123 2    
   242  122  242 1    
   243  122  243 1    
   244  124  125 1    
   245  124  244 1    
   246  124  245 1    
   247  125  126 1    
   248  126  246 1    
   249  126  247 1    
@<TRIPOS>SUBSTRUCTURE
     1 UNK         1 GROUP             0       ****    0 ROOT    
