@<TRIPOS>MOLECULE
3R540
247   249    1
SMALL
USER_CHARGES


@<TRIPOS>ATOM
      1 CA          4.4831  -18.9462  -45.9993 C.3       0 UNK        -0.1800 
      2 C           4.4633  -17.6918  -46.8628 C.2       0 UNK         0.5000 
      3 O           5.4879  -17.3431  -47.4491 O.2       0 UNK        -0.5000 
      4 N           3.2953  -17.0397  -46.9484 N.am      1 UNK        -0.5000 
      5 CA          3.0033  -15.8044  -47.6906 C.3       1 UNK         0.1400 
      6 C6          3.4244  -15.8946  -49.1834 C.3       23 UNK        -0.0398 
      7 S7          2.5129  -14.7640  -50.2918 S.3       23 UNK        -0.2404 
      8 C8          2.8282  -15.5229  -51.9177 C.3       23 UNK        -0.0205 
      9 C9          1.7931  -16.5882  -52.2430 C.ar      23 UNK        -0.0193 
     10 C10         0.6641  -16.2643  -52.9972 C.ar      23 UNK        -0.1150 
     11 C11        -0.3013  -17.2333  -53.2835 C.ar      23 UNK        -0.0193 
     12 C12        -0.1421  -18.5312  -52.7846 C.ar      23 UNK        -0.1150 
     13 C13         0.9814  -18.8706  -52.0210 C.ar      23 UNK        -0.0193 
     14 C14         1.9604  -17.8976  -51.7905 C.ar      23 UNK        -0.1150 
     15 C15         1.1307  -20.2984  -51.4944 C.3       23 UNK        -0.0205 
     16 S16         2.1914  -20.4717  -50.0105 S.3       23 UNK        -0.2404 
     17 C17         1.0817  -19.9563  -48.6536 C.3       23 UNK        -0.0398 
     18 CA          0.5451  -21.1885  -47.8830 C.3       11 UNK         0.1400 
     19 N           0.2891  -20.9279  -46.4627 N.am      11 UNK        -0.5000 
     20 C           0.1141  -21.8999  -45.5537 C.2       10 UNK         0.5000 
     21 O           0.2100  -23.0981  -45.8151 O.2       10 UNK        -0.5000 
     22 CA         -0.2841  -21.4802  -44.1276 C.3       10 UNK         0.1400 
     23 CB          0.9565  -21.1098  -43.3019 C.3       10 UNK        -0.1800 
     24 N          -1.2515  -20.3829  -44.1121 N.am      10 UNK        -0.5000 
     25 C          -2.4923  -20.4656  -44.6139 C.2       9 UNK         0.5000 
     26 O          -2.9696  -21.5028  -45.0723 O.2       9 UNK        -0.5000 
     27 CA         -3.3223  -19.1684  -44.6654 C.3       9 UNK         0.1400 
     28 CB         -4.0562  -18.9393  -43.3366 C.3       9 UNK        -0.1800 
     29 N          -2.5284  -17.9848  -45.0016 N.am      9 UNK        -0.5000 
     30 C          -1.8286  -17.8311  -46.1358 C.2       8 UNK         0.5000 
     31 O          -1.7840  -18.6797  -47.0269 O.2       8 UNK        -0.5000 
     32 CA         -0.9465  -16.5709  -46.2345 C.3       8 UNK         0.1400 
     33 CB         -1.7727  -15.3029  -46.4936 C.3       8 UNK        -0.1800 
     34 N          -0.1389  -16.3896  -45.0283 N.am      8 UNK        -0.5000 
     35 C           0.8212  -17.2379  -44.6400 C.2       7 UNK         0.5000 
     36 O           1.2034  -18.1849  -45.3270 O.2       7 UNK        -0.5000 
     37 CA          1.4444  -17.0052  -43.2541 C.3       7 UNK         0.1400 
     38 CB          2.6259  -16.0274  -43.3431 C.3       7 UNK        -0.1800 
     39 N           0.4573  -16.5161  -42.2897 N.am      7 UNK        -0.5000 
     40 C          -0.5119  -17.2776  -41.7601 C.2       6 UNK         0.5000 
     41 O          -0.6415  -18.4757  -42.0031 O.2       6 UNK        -0.5000 
     42 CA         -1.5292  -16.5821  -40.8360 C.3       6 UNK         0.1400 
     43 CB         -0.9981  -16.5258  -39.3961 C.3       6 UNK        -0.1800 
     44 N          -1.8633  -15.2294  -41.2799 N.am      6 UNK        -0.5000 
     45 C          -2.5024  -14.9331  -42.4212 C.2       5 UNK         0.5000 
     46 O          -2.9500  -15.7807  -43.1917 O.2       5 UNK        -0.5000 
     47 CA         -2.5915  -13.4389  -42.7932 C.3       5 UNK         0.1400 
     48 CB         -3.8740  -12.8150  -42.2245 C.3       5 UNK        -0.1800 
     49 N          -1.4279  -12.6760  -42.3278 N.am      5 UNK        -0.5000 
     50 C          -0.1730  -12.8994  -42.7385 C.2       4 UNK         0.5000 
     51 O           0.1206  -13.7052  -43.6273 O.2       4 UNK        -0.5000 
     52 CA          0.9375  -12.1778  -41.9650 C.3       4 UNK         0.1400 
     53 CB          1.0843  -12.7925  -40.5563 C.3       4 UNK        -0.1800 
     54 N           2.1811  -12.3205  -42.7121 N.am      4 UNK        -0.5000 
     55 C           3.3381  -11.7000  -42.4614 C.2       3 UNK         0.5000 
     56 O           3.5024  -10.8953  -41.5434 O.2       3 UNK        -0.5000 
     57 CA          4.5150  -12.0266  -43.3995 C.3       3 UNK         0.1400 
     58 CB          5.3592  -13.1756  -42.8277 C.3       3 UNK        -0.1800 
     59 N           4.1139  -12.3651  -44.7672 N.am      3 UNK        -0.5000 
     60 C           3.5591  -11.5172  -45.6394 C.2       2 UNK         0.5000 
     61 O           3.2318  -10.3661  -45.3483 O.2       2 UNK        -0.5000 
     62 CA          3.3565  -12.0008  -47.0897 C.3       2 UNK         0.1400 
     63 CB          4.6075  -11.6929  -47.9341 C.3       2 UNK        -0.1800 
     64 N           2.9390  -13.3966  -47.2927 N.am      2 UNK        -0.5000 
     65 C           3.5840  -14.5390  -47.0142 C.2       1 UNK         0.5000 
     66 O           4.5882  -14.6039  -46.3025 O.2       1 UNK        -0.5000 
     67 C          -0.6812  -21.8104  -48.5812 C.2       11 UNK         0.5000 
     68 O          -0.5170  -22.7458  -49.3629 O.2       11 UNK        -0.5000 
     69 N          -1.8882  -21.3217  -48.2577 N.am      12 UNK        -0.5000 
     70 CA         -3.1567  -21.8801  -48.7371 C.3       12 UNK         0.1400 
     71 CB         -4.3252  -20.9982  -48.2698 C.3       12 UNK        -0.1800 
     72 C          -3.3609  -23.3419  -48.2905 C.2       12 UNK         0.5000 
     73 O          -3.7754  -24.1754  -49.0979 O.2       12 UNK        -0.5000 
     74 N          -3.0221  -23.6322  -47.0261 N.am      13 UNK        -0.5000 
     75 CA         -3.0260  -24.9734  -46.4448 C.3       13 UNK         0.1400 
     76 CB         -2.8317  -24.8805  -44.9241 C.3       13 UNK        -0.1800 
     77 C          -1.9720  -25.8979  -47.0801 C.2       13 UNK         0.5000 
     78 O          -2.2947  -27.0410  -47.4022 O.2       13 UNK        -0.5000 
     79 N          -0.7501  -25.3865  -47.2934 N.am      14 UNK        -0.5000 
     80 CA          0.3457  -26.0941  -47.9661 C.3       14 UNK         0.1400 
     81 CB          1.6380  -25.2710  -47.8612 C.3       14 UNK        -0.1800 
     82 C           0.0333  -26.4287  -49.4375 C.2       14 UNK         0.5000 
     83 O           0.4111  -27.4998  -49.9129 O.2       14 UNK        -0.5000 
     84 N          -0.6955  -25.5303  -50.1124 N.am      15 UNK        -0.5000 
     85 CA         -1.2457  -25.7189  -51.4550 C.3       15 UNK         0.1400 
     86 CB         -1.5991  -24.3417  -52.0436 C.3       15 UNK        -0.1800 
     87 C          -2.4748  -26.6521  -51.4935 C.2       15 UNK         0.5000 
     88 O          -2.9870  -26.9096  -52.5818 O.2       15 UNK        -0.5000 
     89 N          -2.9570  -27.1150  -50.3285 N.am      16 UNK        -0.5000 
     90 CA         -4.1399  -27.9614  -50.1285 C.3       16 UNK         0.1400 
     91 CB         -3.8942  -29.3776  -50.6887 C.3       16 UNK        -0.1800 
     92 C          -5.4325  -27.3134  -50.6681 C.2       16 UNK         0.5000 
     93 O          -6.2970  -28.0064  -51.2065 O.2       16 UNK        -0.5000 
     94 N          -5.5109  -25.9803  -50.5410 N.am      17 UNK        -0.5000 
     95 CA         -6.5489  -25.0801  -51.0489 C.3       17 UNK         0.1400 
     96 CB         -7.9250  -25.4063  -50.4333 C.3       17 UNK        -0.1800 
     97 C          -6.6092  -24.9632  -52.5883 C.2       17 UNK         0.5000 
     98 O          -7.4864  -24.2615  -53.0944 O.2       17 UNK        -0.5000 
     99 N          -5.6658  -25.5750  -53.3221 N.am      18 UNK        -0.5000 
    100 CA        -5.5377  -25.4795  -54.7808 C.3       18 UNK         0.1400 
    101 CB        -4.9001  -26.7698  -55.3260 C.3       18 UNK        -0.1800 
    102 C         -4.7648  -24.2065  -55.1878 C.2       18 UNK         0.5000 
    103 O         -3.7909  -24.2709  -55.9401 O.2       18 UNK        -0.5000 
    104 N         -5.2171  -23.0692  -54.6568 N.am      19 UNK        -0.5000 
    105 CA        -4.6834  -21.7296  -54.8499 C.3       19 UNK         0.1400 
    106 CB        -3.3919  -21.5399  -54.0194 C.3       19 UNK        -0.1800 
    107 C         -5.8233  -20.7610  -54.4964 C.2       19 UNK         0.5000 
    108 O         -6.8729  -20.8070  -55.1407 O.2       19 UNK        -0.5000 
    109 N         -5.6267  -19.9426  -53.4616 N.am      20 UNK        -0.5000 
    110 CA        -6.6081  -19.0535  -52.8549 C.3       20 UNK         0.1400 
    111 CB        -6.8192  -17.8026  -53.7335 C.3       20 UNK        -0.1800 
    112 C         -6.1093  -18.7067  -51.4421 C.2       20 UNK         0.5000 
    113 O         -5.0867  -19.2431  -51.0022 O.2       20 UNK        -0.5000 
    114 N         -6.8103  -17.7856  -50.7665 N.am      21 UNK        -0.5000 
    115 CA        -6.4987  -17.2790  -49.4219 C.3       21 UNK         0.1400 
    116 CB        -7.6208  -16.3247  -48.9838 C.3       21 UNK        -0.1800 
    117 C         -5.1195  -16.5950  -49.2826 C.2       21 UNK         0.5000 
    118 O         -4.6662  -16.3789  -48.1594 O.2       21 UNK        -0.5000 
    119 N         -4.4777  -16.2896  -50.4172 N.am      22 UNK        -0.5000 
    120 CA        -3.0597  -15.9241  -50.5383 C.3       22 UNK         0.1400 
    121 C         -2.0649  -17.0187  -50.0479 C.2       22 UNK         0.5000 
    122 N         -2.4423  -18.2928  -50.0402 N.am      22 UNK        -0.7600 
    123 O         -0.9503  -16.6976  -49.6491 O.2       22 UNK        -0.5000 
    124 C124       -2.7325  -15.4740  -51.9857 C.3       23 UNK        -0.0398 
    125 S125       -3.0635  -16.7741  -53.2358 S.3       23 UNK        -0.2404 
    126 C126       -1.4964  -16.8744  -54.1567 C.3       23 UNK        -0.0205 
    127 H127        4.8752  -18.7141  -45.0093 H         1 UNK         0.0600 
    128 H128        3.4874  -19.3743  -45.8843 H         1 UNK         0.0600 
    129 H129        5.1203  -19.7066  -46.4508 H         1 UNK         0.0600 
    130 H130        2.5103  -17.4194  -46.4262 H         1 UNK         0.3000 
    131 H131        1.9162  -15.7181  -47.6527 H         1 UNK         0.0600 
    132 H132        4.4946  -15.7181  -49.3057 H         1 UNK         0.0800 
    133 H133        3.2506  -16.9109  -49.5284 H         1 UNK         0.0800 
    134 H134        2.8064  -14.7407  -52.6779 H         1 UNK         0.0800 
    135 H135        3.8338  -15.9453  -51.9475 H         1 UNK         0.0800 
    136 H136        0.5394  -15.2553  -53.3642 H         1 UNK         0.1150 
    137 H137       -0.8967  -19.2766  -52.9931 H         1 UNK         0.1150 
    138 H138        2.8559  -18.1537  -51.2473 H         1 UNK         0.1150 
    139 H139        0.1488  -20.7241  -51.2825 H         1 UNK         0.0800 
    140 H140        1.5608  -20.9060  -52.2912 H         1 UNK         0.0800 
    141 H141        0.2823  -19.3125  -49.0253 H         1 UNK         0.0800 
    142 H142        1.6749  -19.3306  -47.9860 H         1 UNK         0.0800 
    143 H143        1.3299  -21.9480  -47.8970 H         1 UNK         0.0600 
    144 H144        0.1943  -19.9603  -46.1773 H         1 UNK         0.3000 
    145 H145       -0.7573  -22.3408  -43.6507 H         1 UNK         0.0600 
    146 H146        0.6892  -20.8660  -42.2738 H         1 UNK         0.0600 
    147 H147        1.6599  -21.9425  -43.2648 H         1 UNK         0.0600 
    148 H148        1.4855  -20.2568  -43.7244 H         1 UNK         0.0600 
    149 H149       -0.9572  -19.5190  -43.6694 H         1 UNK         0.3000 
    150 H150       -4.0715  -19.2884  -45.4502 H         1 UNK         0.0600 
    151 H151       -4.6850  -19.7943  -43.0855 H         1 UNK         0.0600 
    152 H152       -4.7031  -18.0634  -43.3893 H         1 UNK         0.0600 
    153 H153       -3.3586  -18.7912  -42.5124 H         1 UNK         0.0600 
    154 H154       -2.5351  -17.2273  -44.3233 H         1 UNK         0.3000 
    155 H155       -0.2648  -16.7079  -47.0756 H         1 UNK         0.0600 
    156 H156       -1.1369  -14.4184  -46.5351 H         1 UNK         0.0600 
    157 H157       -2.5261  -15.1402  -45.7240 H         1 UNK         0.0600 
    158 H158       -2.2935  -15.3720  -47.4475 H         1 UNK         0.0600 
    159 H159       -0.3560  -15.5943  -44.4390 H         1 UNK         0.3000 
    160 H160        1.8290  -17.9615  -42.8938 H         1 UNK         0.0600 
    161 H161        2.3393  -15.0770  -43.7912 H         1 UNK         0.0600 
    162 H162        3.4271  -16.4423  -43.9558 H         1 UNK         0.0600 
    163 H163        3.0442  -15.8239  -42.3574 H         1 UNK         0.0600 
    164 H164        0.4687  -15.5278  -42.0892 H         1 UNK         0.3000 
    165 H165       -2.4455  -17.1759  -40.8402 H         1 UNK         0.0600 
    166 H166       -0.0930  -15.9215  -39.3220 H         1 UNK         0.0600 
    167 H167       -1.7404  -16.1038  -38.7183 H         1 UNK         0.0600 
    168 H168       -0.7569  -17.5248  -39.0304 H         1 UNK         0.0600 
    169 H169       -1.5448  -14.4694  -40.6983 H         1 UNK         0.3000 
    170 H170       -2.6286  -13.3694  -43.8823 H         1 UNK         0.0600 
    171 H171       -4.7566  -13.3531  -42.5730 H         1 UNK         0.0600 
    172 H172       -3.8851  -12.8371  -41.1341 H         1 UNK         0.0600 
    173 H173       -3.9817  -11.7774  -42.5412 H         1 UNK         0.0600 
    174 H174       -1.5954  -11.9976  -41.5983 H         1 UNK         0.3000 
    175 H175        0.6833  -11.1187  -41.8910 H         1 UNK         0.0600 
    176 H176        1.8367  -12.2703  -39.9660 H         1 UNK         0.0600 
    177 H177        0.1512  -12.7325  -39.9951 H         1 UNK         0.0600 
    178 H178        1.3732  -13.8431  -40.6047 H         1 UNK         0.0600 
    179 H179        2.1098  -12.9336  -43.5145 H         1 UNK         0.3000 
    180 H180        5.1460  -11.1368  -43.4499 H         1 UNK         0.0600 
    181 H181        4.7958  -14.1077  -42.7881 H         1 UNK         0.0600 
    182 H182        5.6940  -12.9499  -41.8144 H         1 UNK         0.0600 
    183 H183        6.2493  -13.3491  -43.4327 H         1 UNK         0.0600 
    184 H184        4.3771  -13.2840  -45.1195 H         1 UNK         0.3000 
    185 H185        2.5406  -11.3996  -47.4942 H         1 UNK         0.0600 
    186 H186        4.4386  -11.9222  -48.9865 H         1 UNK         0.0600 
    187 H187        4.8731  -10.6369  -47.8707 H         1 UNK         0.0600 
    188 H188        5.4724  -12.2674  -47.6007 H         1 UNK         0.0600 
    189 H189        2.1042  -13.4826  -47.8562 H         1 UNK         0.3000 
    190 H190       -1.9411  -20.5285  -47.6238 H         1 UNK         0.3000 
    191 H191       -3.1325  -21.8608  -49.8287 H         1 UNK         0.0600 
    192 H192       -4.1608  -19.9503  -48.5187 H         1 UNK         0.0600 
    193 H193       -5.2551  -21.3039  -48.7504 H         1 UNK         0.0600 
    194 H194       -4.4787  -21.0608  -47.1932 H         1 UNK         0.0600 
    195 H195       -2.7553  -22.8699  -46.4090 H         1 UNK         0.3000 
    196 H196       -4.0080  -25.4129  -46.6324 H         1 UNK         0.0600 
    197 H197       -2.8624  -25.8695  -44.4654 H         1 UNK         0.0600 
    198 H198       -3.6181  -24.2827  -44.4629 H         1 UNK         0.0600 
    199 H199       -1.8745  -24.4280  -44.6655 H         1 UNK         0.0600 
    200 H200       -0.5408  -24.4542  -46.9467 H         1 UNK         0.3000 
    201 H201        0.5016  -27.0377  -47.4393 H         1 UNK         0.0600 
    202 H202        1.9029  -25.0814  -46.8210 H         1 UNK         0.0600 
    203 H203        1.5436  -24.3091  -48.3649 H         1 UNK         0.0600 
    204 H204        2.4752  -25.7993  -48.3187 H         1 UNK         0.0600 
    205 H205       -0.8904  -24.6362  -49.6701 H         1 UNK         0.3000 
    206 H206       -0.4766  -26.1708  -52.0843 H         1 UNK         0.0600 
    207 H207       -0.7277  -23.6872  -52.0689 H         1 UNK         0.0600 
    208 H208       -1.9660  -24.4315  -53.0670 H         1 UNK         0.0600 
    209 H209       -2.3740  -23.8424  -51.4613 H         1 UNK         0.0600 
    210 H210       -2.4843  -26.8405  -49.4755 H         1 UNK         0.3000 
    211 H211       -4.2748  -28.0518  -49.0500 H         1 UNK         0.0600 
    212 H212       -3.8100  -29.3749  -51.7759 H         1 UNK         0.0600 
    213 H213       -4.7116  -30.0497  -50.4257 H         1 UNK         0.0600 
    214 H214       -2.9786  -29.8074  -50.2823 H         1 UNK         0.0600 
    215 H215       -4.7421  -25.5045  -50.0728 H         1 UNK         0.3000 
    216 H216       -6.2646  -24.0885  -50.6937 H         1 UNK         0.0600 
    217 H217       -7.8669  -25.4653  -49.3465 H         1 UNK         0.0600 
    218 H218       -8.3227  -26.3521  -50.8016 H         1 UNK         0.0600 
    219 H219       -8.6545  -24.6328  -50.6758 H         1 UNK         0.0600 
    220 H220       -4.9354  -26.0963  -52.8501 H         1 UNK         0.3000 
    221 H221       -6.5345  -25.4036  -55.2203 H         1 UNK         0.0600 
    222 H222       -3.8610  -26.8733  -55.0148 H         1 UNK         0.0600 
    223 H223       -5.4419  -27.6530  -54.9873 H         1 UNK         0.0600 
    224 H224       -4.9140  -26.7779  -56.4165 H         1 UNK         0.0600 
    225 H225       -6.0655  -23.1198  -54.1019 H         1 UNK         0.3000 
    226 H226       -4.4507  -21.5843  -55.9066 H         1 UNK         0.0600 
    227 H227       -2.6072  -22.2175  -54.3556 H         1 UNK         0.0600 
    228 H228       -2.9996  -20.5272  -54.1231 H         1 UNK         0.0600 
    229 H229       -3.5562  -21.7319  -52.9581 H         1 UNK         0.0600 
    230 H230       -4.7634  -20.0004  -52.9344 H         1 UNK         0.3000 
    231 H231       -7.5536  -19.5889  -52.7490 H         1 UNK         0.0600 
    232 H232       -7.5872  -17.1480  -53.3213 H         1 UNK         0.0600 
    233 H233       -7.1442  -18.0730  -54.7380 H         1 UNK         0.0600 
    234 H234       -5.9049  -17.2183  -53.8299 H         1 UNK         0.0600 
    235 H235       -7.6291  -17.3889  -51.2044 H         1 UNK         0.3000 
    236 H236       -6.4937  -18.1353  -48.7444 H         1 UNK         0.0600 
    237 H237       -7.4485  -15.9543  -47.9722 H         1 UNK         0.0600 
    238 H238       -7.6904  -15.4584  -49.6428 H         1 UNK         0.0600 
    239 H239       -8.5888  -16.8262  -48.9822 H         1 UNK         0.0600 
    240 H240       -4.9346  -16.5186  -51.2865 H         1 UNK         0.3000 
    241 H241       -2.9048  -15.0621  -49.8873 H         1 UNK         0.0600 
    242 H242       -3.3613  -18.5675  -50.3708 H         1 UNK         0.3800 
    243 H243       -1.8176  -18.9770  -49.6545 H         1 UNK         0.3800 
    244 H244       -3.3389  -14.6045  -52.2419 H         1 UNK         0.0800 
    245 H245       -1.6993  -15.1328  -52.0505 H         1 UNK         0.0800 
    246 H246       -1.6011  -17.6263  -54.9400 H         1 UNK         0.0800 
    247 H247       -1.3285  -15.9262  -54.6697 H         1 UNK         0.0800 
@<TRIPOS>BOND
     1    1    2 1    
     2    1  127 1    
     3    1  128 1    
     4    1  129 1    
     5    2    3 2    
     6    2    4 am   BACKBONE|DICT|INTERRES
     7    4    5 1    
     8    4  130 1    
     9    5    6 1    
    10    5   65 1    
    11    5  131 1    
    12    6    7 1    
    13    6  132 1    
    14    6  133 1    
    15    7    8 1    
    16    8    9 1    
    17    8  134 1    
    18    8  135 1    
    19    9   10 ar   
    20    9   14 ar   
    21   10   11 ar   
    22   10  136 1    
    23   11   12 ar   
    24   11  126 1    
    25   12   13 ar   
    26   12  137 1    
    27   13   14 ar   
    28   13   15 1    
    29   14  138 1    
    30   15   16 1    
    31   15  139 1    
    32   15  140 1    
    33   16   17 1    
    34   17   18 1    
    35   17  141 1    
    36   17  142 1    
    37   18   19 1    
    38   18   67 1    
    39   18  143 1    
    40   19   20 am   BACKBONE|DICT|INTERRES
    41   19  144 1    
    42   20   21 2    
    43   20   22 1    
    44   22   23 1    
    45   22   24 1    
    46   22  145 1    
    47   23  146 1    
    48   23  147 1    
    49   23  148 1    
    50   24   25 am   BACKBONE|DICT|INTERRES
    51   24  149 1    
    52   25   26 2    
    53   25   27 1    
    54   27   28 1    
    55   27   29 1    
    56   27  150 1    
    57   28  151 1    
    58   28  152 1    
    59   28  153 1    
    60   29   30 am   BACKBONE|DICT|INTERRES
    61   29  154 1    
    62   30   31 2    
    63   30   32 1    
    64   32   33 1    
    65   32   34 1    
    66   32  155 1    
    67   33  156 1    
    68   33  157 1    
    69   33  158 1    
    70   34   35 am   BACKBONE|DICT|INTERRES
    71   34  159 1    
    72   35   36 2    
    73   35   37 1    
    74   37   38 1    
    75   37   39 1    
    76   37  160 1    
    77   38  161 1    
    78   38  162 1    
    79   38  163 1    
    80   39   40 am   BACKBONE|DICT|INTERRES
    81   39  164 1    
    82   40   41 2    
    83   40   42 1    
    84   42   43 1    
    85   42   44 1    
    86   42  165 1    
    87   43  166 1    
    88   43  167 1    
    89   43  168 1    
    90   44   45 am   BACKBONE|DICT|INTERRES
    91   44  169 1    
    92   45   46 2    
    93   45   47 1    
    94   47   48 1    
    95   47   49 1    
    96   47  170 1    
    97   48  171 1    
    98   48  172 1    
    99   48  173 1    
   100   49   50 am   BACKBONE|DICT|INTERRES
   101   49  174 1    
   102   50   51 2    
   103   50   52 1    
   104   52   53 1    
   105   52   54 1    
   106   52  175 1    
   107   53  176 1    
   108   53  177 1    
   109   53  178 1    
   110   54   55 am   BACKBONE|DICT|INTERRES
   111   54  179 1    
   112   55   56 2    
   113   55   57 1    
   114   57   58 1    
   115   57   59 1    
   116   57  180 1    
   117   58  181 1    
   118   58  182 1    
   119   58  183 1    
   120   59   60 am   BACKBONE|DICT|INTERRES
   121   59  184 1    
   122   60   61 2    
   123   60   62 1    
   124   62   63 1    
   125   62   64 1    
   126   62  185 1    
   127   63  186 1    
   128   63  187 1    
   129   63  188 1    
   130   64   65 am   BACKBONE|DICT|INTERRES
   131   64  189 1    
   132   65   66 2    
   133   67   68 2    
   134   67   69 am   BACKBONE|DICT|INTERRES
   135   69   70 1    
   136   69  190 1    
   137   70   71 1    
   138   70   72 1    
   139   70  191 1    
   140   71  192 1    
   141   71  193 1    
   142   71  194 1    
   143   72   73 2    
   144   72   74 am   BACKBONE|DICT|INTERRES
   145   74   75 1    
   146   74  195 1    
   147   75   76 1    
   148   75   77 1    
   149   75  196 1    
   150   76  197 1    
   151   76  198 1    
   152   76  199 1    
   153   77   78 2    
   154   77   79 am   BACKBONE|DICT|INTERRES
   155   79   80 1    
   156   79  200 1    
   157   80   81 1    
   158   80   82 1    
   159   80  201 1    
   160   81  202 1    
   161   81  203 1    
   162   81  204 1    
   163   82   83 2    
   164   82   84 am   BACKBONE|DICT|INTERRES
   165   84   85 1    
   166   84  205 1    
   167   85   86 1    
   168   85   87 1    
   169   85  206 1    
   170   86  207 1    
   171   86  208 1    
   172   86  209 1    
   173   87   88 2    
   174   87   89 am   BACKBONE|DICT|INTERRES
   175   89   90 1    
   176   89  210 1    
   177   90   91 1    
   178   90   92 1    
   179   90  211 1    
   180   91  212 1    
   181   91  213 1    
   182   91  214 1    
   183   92   93 2    
   184   92   94 am   BACKBONE|DICT|INTERRES
   185   94   95 1    
   186   94  215 1    
   187   95   96 1    
   188   95   97 1    
   189   95  216 1    
   190   96  217 1    
   191   96  218 1    
   192   96  219 1    
   193   97   98 2    
   194   97   99 am   BACKBONE|DICT|INTERRES
   195   99  100 1    
   196   99  220 1    
   197  100  101 1    
   198  100  102 1    
   199  100  221 1    
   200  101  222 1    
   201  101  223 1    
   202  101  224 1    
   203  102  103 2    
   204  102  104 am   BACKBONE|DICT|INTERRES
   205  104  105 1    
   206  104  225 1    
   207  105  106 1    
   208  105  107 1    
   209  105  226 1    
   210  106  227 1    
   211  106  228 1    
   212  106  229 1    
   213  107  108 2    
   214  107  109 am   BACKBONE|DICT|INTERRES
   215  109  110 1    
   216  109  230 1    
   217  110  111 1    
   218  110  112 1    
   219  110  231 1    
   220  111  232 1    
   221  111  233 1    
   222  111  234 1    
   223  112  113 2    
   224  112  114 am   BACKBONE|DICT|INTERRES
   225  114  115 1    
   226  114  235 1    
   227  115  116 1    
   228  115  117 1    
   229  115  236 1    
   230  116  237 1    
   231  116  238 1    
   232  116  239 1    
   233  117  118 2    
   234  117  119 am   BACKBONE|DICT|INTERRES
   235  119  120 1    
   236  119  240 1    
   237  120  121 1    
   238  120  124 1    
   239  120  241 1    
   240  121  122 am   BACKBONE|DICT|INTERRES
   241  121  123 2    
   242  122  242 1    
   243  122  243 1    
   244  124  125 1    
   245  124  244 1    
   246  124  245 1    
   247  125  126 1    
   248  126  246 1    
   249  126  247 1    
@<TRIPOS>SUBSTRUCTURE
     1 UNK         1 GROUP             0       ****    0 ROOT    
