@<TRIPOS>MOLECULE
3R540
247   249    1
SMALL
USER_CHARGES


@<TRIPOS>ATOM
      1 CA         -2.5226  -15.4779  -47.0043 C.3       0 UNK        -0.1800 
      2 C          -1.5444  -14.3753  -47.3817 C.2       0 UNK         0.5000 
      3 O          -1.2896  -13.4727  -46.5836 O.2       0 UNK        -0.5000 
      4 N          -0.9802  -14.4609  -48.5939 N.am      1 UNK        -0.5000 
      5 CA         -0.0745  -13.4793  -49.2143 C.3       1 UNK         0.1400 
      6 C6          0.2524  -13.8336  -50.6874 C.3       23 UNK        -0.0398 
      7 S7         -1.2288  -14.0529  -51.7358 S.3       23 UNK        -0.2404 
      8 C8         -1.0796  -15.7939  -52.2532 C.3       23 UNK        -0.0205 
      9 C9         -1.5991  -16.7517  -51.1918 C.ar      23 UNK        -0.0193 
     10 C10        -2.9239  -17.1942  -51.2383 C.ar      23 UNK        -0.1150 
     11 C11        -3.4069  -18.1073  -50.2935 C.ar      23 UNK        -0.0193 
     12 C12        -2.5606  -18.5398  -49.2692 C.ar      23 UNK        -0.1150 
     13 C13        -1.2432  -18.0804  -49.1947 C.ar      23 UNK        -0.0193 
     14 C14        -0.7592  -17.2086  -50.1727 C.ar      23 UNK        -0.1150 
     15 C15        -0.3602  -18.4865  -48.0298 C.3       23 UNK        -0.0205 
     16 S16         0.8154  -19.7960  -48.4814 S.3       23 UNK        -0.2404 
     17 C17         1.4560  -20.2018  -46.8149 C.3       23 UNK        -0.0398 
     18 CA          1.0486  -21.5763  -46.2101 C.3       11 UNK         0.1400 
     19 N           1.2020  -21.5788  -44.7559 N.am      11 UNK        -0.5000 
     20 C           1.2127  -22.6713  -43.9813 C.2       10 UNK         0.5000 
     21 O           1.1771  -23.8221  -44.4163 O.2       10 UNK        -0.5000 
     22 CA          1.2307  -22.4337  -42.4603 C.3       10 UNK         0.1400 
     23 CB          2.6630  -22.1865  -41.9640 C.3       10 UNK        -0.1800 
     24 N           0.3679  -21.3222  -42.0527 N.am      10 UNK        -0.5000 
     25 C          -0.9657  -21.3086  -42.1995 C.2       9 UNK         0.5000 
     26 O          -1.6140  -22.2494  -42.6594 O.2       9 UNK        -0.5000 
     27 CA         -1.6974  -20.0166  -41.7941 C.3       9 UNK         0.1400 
     28 CB         -1.9028  -19.9671  -40.2729 C.3       9 UNK        -0.1800 
     29 N          -1.0109  -18.8027  -42.2405 N.am      9 UNK        -0.5000 
     30 C          -0.8109  -18.4732  -43.5249 C.2       8 UNK         0.5000 
     31 O          -1.1900  -19.1532  -44.4751 O.2       8 UNK        -0.5000 
     32 CA          0.0071  -17.2051  -43.8073 C.3       8 UNK         0.1400 
     33 CB         -0.8263  -15.9362  -43.5737 C.3       8 UNK        -0.1800 
     34 N           1.2298  -17.1472  -43.0128 N.am      8 UNK        -0.5000 
     35 C           2.2240  -18.0448  -43.0548 C.2       7 UNK         0.5000 
     36 O           2.2419  -19.0196  -43.8056 O.2       7 UNK        -0.5000 
     37 CA          3.3691  -17.8388  -42.0519 C.3       7 UNK         0.1400 
     38 CB          4.3443  -16.7619  -42.5498 C.3       7 UNK        -0.1800 
     39 N           2.8694  -17.4760  -40.7263 N.am      7 UNK        -0.5000 
     40 C           2.1857  -18.3029  -39.9231 C.2       6 UNK         0.5000 
     41 O           1.9165  -19.4704  -40.2069 O.2       6 UNK        -0.5000 
     42 CA          1.6884  -17.7077  -38.5940 C.3       6 UNK         0.1400 
     43 CB          2.8232  -17.6568  -37.5599 C.3       6 UNK        -0.1800 
     44 N           1.1150  -16.3704  -38.7563 N.am      6 UNK        -0.5000 
     45 C          -0.0165  -16.1176  -39.4274 C.2       5 UNK         0.5000 
     46 O          -0.6904  -16.9829  -39.9852 O.2       5 UNK        -0.5000 
     47 CA         -0.4543  -14.6457  -39.5218 C.3       5 UNK         0.1400 
     48 CB         -1.1761  -14.2141  -38.2362 C.3       5 UNK        -0.1800 
     49 N           0.6245  -13.6968  -39.8158 N.am      5 UNK        -0.5000 
     50 C           1.4474  -13.7637  -40.8705 C.2       4 UNK         0.5000 
     51 O           1.5248  -14.7316  -41.6282 O.2       4 UNK        -0.5000 
     52 CA          2.3155  -12.5280  -41.1547 C.3       4 UNK         0.1400 
     53 CB          3.8065  -12.8486  -40.9724 C.3       4 UNK        -0.1800 
     54 N           2.0828  -12.0705  -42.5232 N.am      4 UNK        -0.5000 
     55 C           0.9419  -11.5323  -42.9705 C.2       3 UNK         0.5000 
     56 O           0.0024  -11.2288  -42.2336 O.2       3 UNK        -0.5000 
     57 CA          0.8049  -11.3055  -44.4887 C.3       3 UNK         0.1400 
     58 CB          1.4448   -9.9708  -44.9152 C.3       3 UNK        -0.1800 
     59 N           1.2678  -12.4175  -45.3305 N.am      3 UNK        -0.5000 
     60 C           2.5164  -12.8692  -45.5336 C.2       2 UNK         0.5000 
     61 O           3.5068  -12.4340  -44.9452 O.2       2 UNK        -0.5000 
     62 CA          2.7007  -14.0044  -46.5647 C.3       2 UNK         0.1400 
     63 CB          2.9051  -15.3461  -45.8463 C.3       2 UNK        -0.1800 
     64 N           1.5823  -14.1366  -47.5014 N.am      2 UNK        -0.5000 
     65 C           1.2375  -13.2332  -48.4311 C.2       1 UNK         0.5000 
     66 O           1.9014  -12.2244  -48.6728 O.2       1 UNK        -0.5000 
     67 C          -0.3610  -22.0665  -46.6083 C.2       11 UNK         0.5000 
     68 O          -0.4700  -23.0237  -47.3747 O.2       11 UNK        -0.5000 
     69 N          -1.4106  -21.4310  -46.0658 N.am      12 UNK        -0.5000 
     70 CA         -2.8208  -21.6555  -46.4067 C.3       12 UNK         0.1400 
     71 CB         -3.6902  -20.6038  -45.7018 C.3       12 UNK        -0.1800 
     72 C          -3.3496  -23.0735  -46.1194 C.2       12 UNK         0.5000 
     73 O          -4.3760  -23.4536  -46.6829 O.2       12 UNK        -0.5000 
     74 N          -2.6330  -23.8432  -45.2890 N.am      13 UNK        -0.5000 
     75 CA         -2.8619  -25.2712  -45.0634 C.3       13 UNK         0.1400 
     76 CB         -1.9256  -25.7568  -43.9470 C.3       13 UNK        -0.1800 
     77 C          -2.6788  -26.1265  -46.3367 C.2       13 UNK         0.5000 
     78 O          -3.3368  -27.1600  -46.4640 O.2       13 UNK        -0.5000 
     79 N          -1.8129  -25.6741  -47.2547 N.am      14 UNK        -0.5000 
     80 CA         -1.6074  -26.2605  -48.5802 C.3       14 UNK         0.1400 
     81 CB         -0.1162  -26.5875  -48.7557 C.3       14 UNK        -0.1800 
     82 C          -2.0748  -25.3094  -49.6965 C.2       14 UNK         0.5000 
     83 O          -2.5429  -25.7805  -50.7341 O.2       14 UNK        -0.5000 
     84 N          -1.9053  -23.9943  -49.4816 N.am      15 UNK        -0.5000 
     85 CA         -2.2278  -22.8765  -50.3778 C.3       15 UNK         0.1400 
     86 CB         -3.7540  -22.7027  -50.4919 C.3       15 UNK        -0.1800 
     87 C          -1.5382  -22.9790  -51.7538 C.2       15 UNK         0.5000 
     88 O          -2.1047  -22.5478  -52.7574 O.2       15 UNK        -0.5000 
     89 N          -0.3523  -23.6132  -51.7764 N.am      16 UNK        -0.5000 
     90 CA          0.4553  -23.9808  -52.9492 C.3       16 UNK         0.1400 
     91 CB          1.1387  -22.7298  -53.5358 C.3       16 UNK        -0.1800 
     92 C          -0.3302  -24.7676  -54.0246 C.2       16 UNK         0.5000 
     93 O          -0.0016  -24.6772  -55.2091 O.2       16 UNK        -0.5000 
     94 N          -1.3949  -25.4671  -53.6012 N.am      17 UNK        -0.5000 
     95 CA         -2.4872  -26.0489  -54.3880 C.3       17 UNK         0.1400 
     96 CB         -1.9844  -27.1305  -55.3631 C.3       17 UNK        -0.1800 
     97 C          -3.3628  -24.9988  -55.1069 C.2       17 UNK         0.5000 
     98 O          -4.5886  -25.0680  -55.0018 O.2       17 UNK        -0.5000 
     99 N          -2.7330  -24.0545  -55.8145 N.am      18 UNK        -0.5000 
    100 CA        -3.3741  -23.0331  -56.6340 C.3       18 UNK         0.1400 
    101 CB        -3.5398  -23.5696  -58.0695 C.3       18 UNK        -0.1800 
    102 C         -2.5910  -21.7075  -56.5677 C.2       18 UNK         0.5000 
    103 O         -2.1808  -21.1890  -57.6086 O.2       18 UNK        -0.5000 
    104 N         -2.3780  -21.1732  -55.3548 N.am      19 UNK        -0.5000 
    105 CA        -1.7720  -19.8522  -55.1336 C.3       19 UNK         0.1400 
    106 CB        -1.4848  -19.6325  -53.6390 C.3       19 UNK        -0.1800 
    107 C         -2.6298  -18.6874  -55.6647 C.2       19 UNK         0.5000 
    108 O         -2.0735  -17.6778  -56.1000 O.2       19 UNK        -0.5000 
    109 N         -3.9568  -18.8465  -55.6253 N.am      20 UNK        -0.5000 
    110 CA        -4.9384  -17.8874  -56.1207 C.3       20 UNK         0.1400 
    111 CB        -5.1130  -16.7308  -55.1095 C.3       20 UNK        -0.1800 
    112 C         -6.2273  -18.6639  -56.4357 C.2       20 UNK         0.5000 
    113 O         -6.1582  -19.6938  -57.1098 O.2       20 UNK        -0.5000 
    114 N         -7.3743  -18.1929  -55.9253 N.am      21 UNK        -0.5000 
    115 CA        -8.6297  -18.9514  -55.8903 C.3       21 UNK         0.1400 
    116 CB        -9.7832  -18.0072  -55.5187 C.3       21 UNK        -0.1800 
    117 C         -8.5509  -20.1350  -54.9031 C.2       21 UNK         0.5000 
    118 O         -9.1804  -21.1690  -55.1292 O.2       21 UNK        -0.5000 
    119 N         -7.7499  -19.9595  -53.8452 N.am      22 UNK        -0.5000 
    120 CA        -7.2583  -21.0131  -52.9533 C.3       22 UNK         0.1400 
    121 C         -6.2586  -21.9547  -53.6876 C.2       22 UNK         0.5000 
    122 N         -6.3570  -23.2629  -53.4949 N.am      22 UNK        -0.7600 
    123 O         -5.3813  -21.4970  -54.4159 O.2       22 UNK        -0.5000 
    124 C124       -6.6347  -20.3900  -51.6756 C.3       23 UNK        -0.0398 
    125 S125       -5.2436  -19.2539  -52.0214 S.3       23 UNK        -0.2404 
    126 C126       -4.8394  -18.6233  -50.3649 C.3       23 UNK        -0.0205 
    127 H127       -1.9968  -16.3030  -46.5247 H         1 UNK         0.0600 
    128 H128       -3.0387  -15.8645  -47.8835 H         1 UNK         0.0600 
    129 H129       -3.2749  -15.1002  -46.3119 H         1 UNK         0.0600 
    130 H130       -1.2514  -15.2242  -49.1998 H         1 UNK         0.3000 
    131 H131       -0.6091  -12.5272  -49.2150 H         1 UNK         0.0600 
    132 H132        0.8433  -13.0352  -51.1405 H         1 UNK         0.0800 
    133 H133        0.8786  -14.7248  -50.7378 H         1 UNK         0.0800 
    134 H134       -0.0439  -16.0274  -52.5045 H         1 UNK         0.0800 
    135 H135       -1.6459  -15.9301  -53.1763 H         1 UNK         0.0800 
    136 H136       -3.5760  -16.8457  -52.0270 H         1 UNK         0.1150 
    137 H137       -2.9310  -19.2238  -48.5194 H         1 UNK         0.1150 
    138 H138        0.2682  -16.8770  -50.1263 H         1 UNK         0.1150 
    139 H139        0.1915  -17.6177  -47.6680 H         1 UNK         0.0800 
    140 H140       -0.9802  -18.8227  -47.1976 H         1 UNK         0.0800 
    141 H141        1.1480  -19.4029  -46.1403 H         1 UNK         0.0800 
    142 H142        2.5441  -20.1345  -46.8479 H         1 UNK         0.0800 
    143 H143        1.7484  -22.3136  -46.6097 H         1 UNK         0.0600 
    144 H144        1.2956  -20.6707  -44.3105 H         1 UNK         0.3000 
    145 H145        0.8565  -23.3400  -41.9798 H         1 UNK         0.0600 
    146 H146        2.6946  -22.1076  -40.8772 H         1 UNK         0.0600 
    147 H147        3.3231  -23.0065  -42.2496 H         1 UNK         0.0600 
    148 H148        3.0805  -21.2682  -42.3778 H         1 UNK         0.0600 
    149 H149        0.8260  -20.5223  -41.6285 H         1 UNK         0.3000 
    150 H150       -2.6811  -20.0332  -42.2675 H         1 UNK         0.0600 
    151 H151       -2.4103  -20.8642  -39.9161 H         1 UNK         0.0600 
    152 H152       -2.5154  -19.1121  -39.9867 H         1 UNK         0.0600 
    153 H153       -0.9534  -19.8909  -39.7412 H         1 UNK         0.0600 
    154 H154       -0.6897  -18.1714  -41.5115 H         1 UNK         0.3000 
    155 H155        0.2948  -17.2310  -44.8600 H         1 UNK         0.0600 
    156 H156       -1.7632  -15.9709  -44.1295 H         1 UNK         0.0600 
    157 H157       -0.2871  -15.0453  -43.8973 H         1 UNK         0.0600 
    158 H158       -1.0775  -15.8092  -42.5209 H         1 UNK         0.0600 
    159 H159        1.3210  -16.3506  -42.3841 H         1 UNK         0.3000 
    160 H160        3.9148  -18.7807  -41.9653 H         1 UNK         0.0600 
    161 H161        3.8516  -15.7974  -42.6745 H         1 UNK         0.0600 
    162 H162        4.7688  -17.0398  -43.5153 H         1 UNK         0.0600 
    163 H163        5.1744  -16.6283  -41.8560 H         1 UNK         0.0600 
    164 H164        2.9842  -16.5135  -40.4451 H         1 UNK         0.3000 
    165 H165        0.9072  -18.3665  -38.2083 H         1 UNK         0.0600 
    166 H166        2.4580  -17.3158  -36.5910 H         1 UNK         0.0600 
    167 H167        3.2599  -18.6454  -37.4117 H         1 UNK         0.0600 
    168 H168        3.6254  -16.9867  -37.8713 H         1 UNK         0.0600 
    169 H169        1.6143  -15.5984  -38.3396 H         1 UNK         0.3000 
    170 H170       -1.1690  -14.5769  -40.3442 H         1 UNK         0.0600 
    171 H171       -1.9957  -14.8944  -38.0004 H         1 UNK         0.0600 
    172 H172       -0.5015  -14.2030  -37.3792 H         1 UNK         0.0600 
    173 H173       -1.6044  -13.2170  -38.3397 H         1 UNK         0.0600 
    174 H174        0.6399  -12.8611  -39.2494 H         1 UNK         0.3000 
    175 H175        2.0449  -11.7246  -40.4664 H         1 UNK         0.0600 
    176 H176        4.1435  -13.6148  -41.6711 H         1 UNK         0.0600 
    177 H177        4.4206  -11.9619  -41.1302 H         1 UNK         0.0600 
    178 H178        4.0089  -13.2099  -39.9634 H         1 UNK         0.0600 
    179 H179        2.7907  -12.2985  -43.2156 H         1 UNK         0.3000 
    180 H180       -0.2647  -11.2271  -44.6908 H         1 UNK         0.0600 
    181 H181        2.5185   -9.9527  -44.7267 H         1 UNK         0.0600 
    182 H182        1.0053   -9.1372  -44.3661 H         1 UNK         0.0600 
    183 H183        1.2871   -9.7804  -45.9769 H         1 UNK         0.0600 
    184 H184        0.5214  -12.8801  -45.8406 H         1 UNK         0.3000 
    185 H185        3.6005  -13.7819  -47.1418 H         1 UNK         0.0600 
    186 H186        3.7823  -15.3104  -45.1997 H         1 UNK         0.0600 
    187 H187        2.0486  -15.5948  -45.2215 H         1 UNK         0.0600 
    188 H188        3.0567  -16.1613  -46.5542 H         1 UNK         0.0600 
    189 H189        0.9733  -14.9295  -47.3702 H         1 UNK         0.3000 
    190 H190       -1.2371  -20.6601  -45.4217 H         1 UNK         0.3000 
    191 H191       -2.9164  -21.5013  -47.4830 H         1 UNK         0.0600 
    192 H192       -3.5974  -20.6731  -44.6173 H         1 UNK         0.0600 
    193 H193       -4.7443  -20.7310  -45.9515 H         1 UNK         0.0600 
    194 H194       -3.4088  -19.5938  -45.9998 H         1 UNK         0.0600 
    195 H195       -1.8353  -23.4296  -44.8246 H         1 UNK         0.3000 
    196 H196       -3.8928  -25.3944  -44.7258 H         1 UNK         0.0600 
    197 H197       -2.1059  -26.8072  -43.7153 H         1 UNK         0.0600 
    198 H198       -2.0779  -25.1894  -43.0285 H         1 UNK         0.0600 
    199 H199       -0.8775  -25.6583  -44.2315 H         1 UNK         0.0600 
    200 H200       -1.3200  -24.8083  -47.0638 H         1 UNK         0.3000 
    201 H201       -2.1738  -27.1881  -48.6850 H         1 UNK         0.0600 
    202 H202        0.2149  -27.3145  -48.0140 H         1 UNK         0.0600 
    203 H203        0.5073  -25.6983  -48.6523 H         1 UNK         0.0600 
    204 H204        0.0784  -27.0155  -49.7400 H         1 UNK         0.0600 
    205 H205       -1.4271  -23.7114  -48.6274 H         1 UNK         0.3000 
    206 H206       -1.8266  -21.9778  -49.9064 H         1 UNK         0.0600 
    207 H207       -4.2176  -22.6015  -49.5109 H         1 UNK         0.0600 
    208 H208       -3.9940  -21.8048  -51.0603 H         1 UNK         0.0600 
    209 H209       -4.2204  -23.5462  -51.0019 H         1 UNK         0.0600 
    210 H210        0.0070  -23.9348  -50.8892 H         1 UNK         0.3000 
    211 H211        1.2358  -24.6505  -52.5861 H         1 UNK         0.0600 
    212 H212        0.4271  -22.1000  -54.0688 H         1 UNK         0.0600 
    213 H213        1.9171  -23.0092  -54.2465 H         1 UNK         0.0600 
    214 H214        1.6092  -22.1283  -52.7581 H         1 UNK         0.0600 
    215 H215       -1.5871  -25.4424  -52.6054 H         1 UNK         0.3000 
    216 H216       -3.1314  -26.5439  -53.6594 H         1 UNK         0.0600 
    217 H217       -2.8231  -27.6347  -55.8444 H         1 UNK         0.0600 
    218 H218       -1.4030  -27.8911  -54.8421 H         1 UNK         0.0600 
    219 H219       -1.3614  -26.7146  -56.1549 H         1 UNK         0.0600 
    220 H220       -1.7166  -24.0572  -55.8060 H         1 UNK         0.3000 
    221 H221       -4.3724  -22.8263  -56.2514 H         1 UNK         0.0600 
    222 H222       -2.5768  -23.8082  -58.5223 H         1 UNK         0.0600 
    223 H223       -4.1502  -24.4726  -58.0850 H         1 UNK         0.0600 
    224 H224       -4.0342  -22.8356  -58.7070 H         1 UNK         0.0600 
    225 H225       -2.6924  -21.6720  -54.5268 H         1 UNK         0.3000 
    226 H226       -0.8194  -19.8273  -55.6665 H         1 UNK         0.0600 
    227 H227       -0.7370  -20.3278  -53.2645 H         1 UNK         0.0600 
    228 H228       -1.0979  -18.6295  -53.4574 H         1 UNK         0.0600 
    229 H229       -2.3850  -19.7497  -53.0349 H         1 UNK         0.0600 
    230 H230       -4.3348  -19.7268  -55.2865 H         1 UNK         0.3000 
    231 H231       -4.5835  -17.4746  -57.0670 H         1 UNK         0.0600 
    232 H232       -5.4790  -17.0852  -54.1456 H         1 UNK         0.0600 
    233 H233       -4.1680  -16.2183  -54.9294 H         1 UNK         0.0600 
    234 H234       -5.8102  -15.9793  -55.4815 H         1 UNK         0.0600 
    235 H235       -7.3549  -17.3239  -55.4116 H         1 UNK         0.3000 
    236 H236       -8.8220  -19.3556  -56.8864 H         1 UNK         0.0600 
    237 H237      -10.7341  -18.5415  -55.5050 H         1 UNK         0.0600 
    238 H238       -9.6412  -17.5646  -54.5320 H         1 UNK         0.0600 
    239 H239       -9.8773  -17.1963  -56.2411 H         1 UNK         0.0600 
    240 H240       -7.2554  -19.0839  -53.7701 H         1 UNK         0.3000 
    241 H241       -8.1200  -21.6085  -52.6454 H         1 UNK         0.0600 
    242 H242       -5.7147  -23.8754  -53.9891 H         1 UNK         0.3800 
    243 H243       -7.0703  -23.6639  -52.9075 H         1 UNK         0.3800 
    244 H244       -7.4001  -19.8366  -51.1300 H         1 UNK         0.0800 
    245 H245       -6.2975  -21.1755  -50.9982 H         1 UNK         0.0800 
    246 H246       -5.5285  -17.8194  -50.1044 H         1 UNK         0.0800 
    247 H247       -4.9918  -19.4198  -49.6350 H         1 UNK         0.0800 
@<TRIPOS>BOND
     1    1    2 1    
     2    1  127 1    
     3    1  128 1    
     4    1  129 1    
     5    2    3 2    
     6    2    4 am   BACKBONE|DICT|INTERRES
     7    4    5 1    
     8    4  130 1    
     9    5    6 1    
    10    5   65 1    
    11    5  131 1    
    12    6    7 1    
    13    6  132 1    
    14    6  133 1    
    15    7    8 1    
    16    8    9 1    
    17    8  134 1    
    18    8  135 1    
    19    9   10 ar   
    20    9   14 ar   
    21   10   11 ar   
    22   10  136 1    
    23   11   12 ar   
    24   11  126 1    
    25   12   13 ar   
    26   12  137 1    
    27   13   14 ar   
    28   13   15 1    
    29   14  138 1    
    30   15   16 1    
    31   15  139 1    
    32   15  140 1    
    33   16   17 1    
    34   17   18 1    
    35   17  141 1    
    36   17  142 1    
    37   18   19 1    
    38   18   67 1    
    39   18  143 1    
    40   19   20 am   BACKBONE|DICT|INTERRES
    41   19  144 1    
    42   20   21 2    
    43   20   22 1    
    44   22   23 1    
    45   22   24 1    
    46   22  145 1    
    47   23  146 1    
    48   23  147 1    
    49   23  148 1    
    50   24   25 am   BACKBONE|DICT|INTERRES
    51   24  149 1    
    52   25   26 2    
    53   25   27 1    
    54   27   28 1    
    55   27   29 1    
    56   27  150 1    
    57   28  151 1    
    58   28  152 1    
    59   28  153 1    
    60   29   30 am   BACKBONE|DICT|INTERRES
    61   29  154 1    
    62   30   31 2    
    63   30   32 1    
    64   32   33 1    
    65   32   34 1    
    66   32  155 1    
    67   33  156 1    
    68   33  157 1    
    69   33  158 1    
    70   34   35 am   BACKBONE|DICT|INTERRES
    71   34  159 1    
    72   35   36 2    
    73   35   37 1    
    74   37   38 1    
    75   37   39 1    
    76   37  160 1    
    77   38  161 1    
    78   38  162 1    
    79   38  163 1    
    80   39   40 am   BACKBONE|DICT|INTERRES
    81   39  164 1    
    82   40   41 2    
    83   40   42 1    
    84   42   43 1    
    85   42   44 1    
    86   42  165 1    
    87   43  166 1    
    88   43  167 1    
    89   43  168 1    
    90   44   45 am   BACKBONE|DICT|INTERRES
    91   44  169 1    
    92   45   46 2    
    93   45   47 1    
    94   47   48 1    
    95   47   49 1    
    96   47  170 1    
    97   48  171 1    
    98   48  172 1    
    99   48  173 1    
   100   49   50 am   BACKBONE|DICT|INTERRES
   101   49  174 1    
   102   50   51 2    
   103   50   52 1    
   104   52   53 1    
   105   52   54 1    
   106   52  175 1    
   107   53  176 1    
   108   53  177 1    
   109   53  178 1    
   110   54   55 am   BACKBONE|DICT|INTERRES
   111   54  179 1    
   112   55   56 2    
   113   55   57 1    
   114   57   58 1    
   115   57   59 1    
   116   57  180 1    
   117   58  181 1    
   118   58  182 1    
   119   58  183 1    
   120   59   60 am   BACKBONE|DICT|INTERRES
   121   59  184 1    
   122   60   61 2    
   123   60   62 1    
   124   62   63 1    
   125   62   64 1    
   126   62  185 1    
   127   63  186 1    
   128   63  187 1    
   129   63  188 1    
   130   64   65 am   BACKBONE|DICT|INTERRES
   131   64  189 1    
   132   65   66 2    
   133   67   68 2    
   134   67   69 am   BACKBONE|DICT|INTERRES
   135   69   70 1    
   136   69  190 1    
   137   70   71 1    
   138   70   72 1    
   139   70  191 1    
   140   71  192 1    
   141   71  193 1    
   142   71  194 1    
   143   72   73 2    
   144   72   74 am   BACKBONE|DICT|INTERRES
   145   74   75 1    
   146   74  195 1    
   147   75   76 1    
   148   75   77 1    
   149   75  196 1    
   150   76  197 1    
   151   76  198 1    
   152   76  199 1    
   153   77   78 2    
   154   77   79 am   BACKBONE|DICT|INTERRES
   155   79   80 1    
   156   79  200 1    
   157   80   81 1    
   158   80   82 1    
   159   80  201 1    
   160   81  202 1    
   161   81  203 1    
   162   81  204 1    
   163   82   83 2    
   164   82   84 am   BACKBONE|DICT|INTERRES
   165   84   85 1    
   166   84  205 1    
   167   85   86 1    
   168   85   87 1    
   169   85  206 1    
   170   86  207 1    
   171   86  208 1    
   172   86  209 1    
   173   87   88 2    
   174   87   89 am   BACKBONE|DICT|INTERRES
   175   89   90 1    
   176   89  210 1    
   177   90   91 1    
   178   90   92 1    
   179   90  211 1    
   180   91  212 1    
   181   91  213 1    
   182   91  214 1    
   183   92   93 2    
   184   92   94 am   BACKBONE|DICT|INTERRES
   185   94   95 1    
   186   94  215 1    
   187   95   96 1    
   188   95   97 1    
   189   95  216 1    
   190   96  217 1    
   191   96  218 1    
   192   96  219 1    
   193   97   98 2    
   194   97   99 am   BACKBONE|DICT|INTERRES
   195   99  100 1    
   196   99  220 1    
   197  100  101 1    
   198  100  102 1    
   199  100  221 1    
   200  101  222 1    
   201  101  223 1    
   202  101  224 1    
   203  102  103 2    
   204  102  104 am   BACKBONE|DICT|INTERRES
   205  104  105 1    
   206  104  225 1    
   207  105  106 1    
   208  105  107 1    
   209  105  226 1    
   210  106  227 1    
   211  106  228 1    
   212  106  229 1    
   213  107  108 2    
   214  107  109 am   BACKBONE|DICT|INTERRES
   215  109  110 1    
   216  109  230 1    
   217  110  111 1    
   218  110  112 1    
   219  110  231 1    
   220  111  232 1    
   221  111  233 1    
   222  111  234 1    
   223  112  113 2    
   224  112  114 am   BACKBONE|DICT|INTERRES
   225  114  115 1    
   226  114  235 1    
   227  115  116 1    
   228  115  117 1    
   229  115  236 1    
   230  116  237 1    
   231  116  238 1    
   232  116  239 1    
   233  117  118 2    
   234  117  119 am   BACKBONE|DICT|INTERRES
   235  119  120 1    
   236  119  240 1    
   237  120  121 1    
   238  120  124 1    
   239  120  241 1    
   240  121  122 am   BACKBONE|DICT|INTERRES
   241  121  123 2    
   242  122  242 1    
   243  122  243 1    
   244  124  125 1    
   245  124  244 1    
   246  124  245 1    
   247  125  126 1    
   248  126  246 1    
   249  126  247 1    
@<TRIPOS>SUBSTRUCTURE
     1 UNK         1 GROUP             0       ****    0 ROOT    
