@<TRIPOS>MOLECULE
3R540
247   249    1
SMALL
USER_CHARGES


@<TRIPOS>ATOM
      1 CA          3.2426  -12.3062  -51.7023 C.3       0 UNK        -0.1800 
      2 C           2.5389  -11.3817  -50.7182 C.2       0 UNK         0.5000 
      3 O           2.1370  -10.2787  -51.0897 O.2       0 UNK        -0.5000 
      4 N           2.3963  -11.8281  -49.4647 N.am      1 UNK        -0.5000 
      5 CA          1.6528  -11.1530  -48.3986 C.3       1 UNK         0.1400 
      6 C6          1.9479  -11.7880  -47.0120 C.3       23 UNK        -0.0398 
      7 S7          1.3156  -13.4903  -46.7747 S.3       23 UNK        -0.2404 
      8 C8          2.7229  -14.5170  -47.3142 C.3       23 UNK        -0.0205 
      9 C9          2.2883  -15.6025  -48.2918 C.ar      23 UNK        -0.0193 
     10 C10         1.6411  -15.2616  -49.4810 C.ar      23 UNK        -0.1150 
     11 C11         1.2462  -16.2411  -50.3922 C.ar      23 UNK        -0.0193 
     12 C12         1.4864  -17.5876  -50.0928 C.ar      23 UNK        -0.1150 
     13 C13         2.1393  -17.9538  -48.9064 C.ar      23 UNK        -0.0193 
     14 C14         2.5471  -16.9488  -48.0222 C.ar      23 UNK        -0.1150 
     15 C15         2.4735  -19.4066  -48.5562 C.3       23 UNK        -0.0205 
     16 S16         1.4975  -20.6856  -49.4208 S.3       23 UNK        -0.2404 
     17 C17        -0.0977  -20.6436  -48.5379 C.3       23 UNK        -0.0398 
     18 CA         -0.3673  -21.9719  -47.7904 C.3       11 UNK         0.1400 
     19 N           0.4964  -22.1405  -46.6157 N.am      11 UNK        -0.5000 
     20 C           0.7402  -23.3240  -46.0368 C.2       10 UNK         0.5000 
     21 O           0.2360  -24.3837  -46.4097 O.2       10 UNK        -0.5000 
     22 CA          1.6727  -23.3139  -44.8106 C.3       10 UNK         0.1400 
     23 CB          3.1427  -23.2371  -45.2507 C.3       10 UNK        -0.1800 
     24 N           1.4046  -22.2447  -43.8420 N.am      10 UNK        -0.5000 
     25 C           0.2301  -22.0159  -43.2367 C.2       9 UNK         0.5000 
     26 O          -0.8134  -22.5781  -43.5623 O.2       9 UNK        -0.5000 
     27 CA          0.1947  -20.9748  -42.0993 C.3       9 UNK         0.1400 
     28 CB         -0.7878  -21.3701  -40.9780 C.3       9 UNK        -0.1800 
     29 N           1.5077  -20.6263  -41.5442 N.am      9 UNK        -0.5000 
     30 C           2.3663  -21.4123  -40.8739 C.2       8 UNK         0.5000 
     31 O           2.1729  -22.6085  -40.6570 O.2       8 UNK        -0.5000 
     32 CA          3.6792  -20.7643  -40.3804 C.3       8 UNK         0.1400 
     33 CB          4.8587  -21.2255  -41.2516 C.3       8 UNK        -0.1800 
     34 N           3.6451  -19.2996  -40.3814 N.am      8 UNK        -0.5000 
     35 C           2.9692  -18.5411  -39.5061 C.2       7 UNK         0.5000 
     36 O           2.3806  -18.9935  -38.5237 O.2       7 UNK        -0.5000 
     37 CA          2.9107  -17.0246  -39.7973 C.3       7 UNK         0.1400 
     38 CB          3.9716  -16.2792  -38.9732 C.3       7 UNK        -0.1800 
     39 N           3.0726  -16.6724  -41.2155 N.am      7 UNK        -0.5000 
     40 C           2.2703  -17.0827  -42.2079 C.2       6 UNK         0.5000 
     41 O           1.2961  -17.8153  -42.0259 O.2       6 UNK        -0.5000 
     42 CA          2.6646  -16.6608  -43.6372 C.3       6 UNK         0.1400 
     43 CB          4.0585  -17.1999  -44.0067 C.3       6 UNK        -0.1800 
     44 N           1.7108  -17.1578  -44.6291 N.am      6 UNK        -0.5000 
     45 C           0.5096  -16.6232  -44.8734 C.2       5 UNK         0.5000 
     46 O           0.0733  -15.6127  -44.3169 O.2       5 UNK        -0.5000 
     47 CA         -0.3443  -17.3364  -45.9278 C.3       5 UNK         0.1400 
     48 CB         -1.3947  -18.2571  -45.2809 C.3       5 UNK        -0.1800 
     49 N          -0.9768  -16.3167  -46.7493 N.am      5 UNK        -0.5000 
     50 C          -1.5167  -16.4947  -47.9592 C.2       4 UNK         0.5000 
     51 O          -1.5980  -17.5934  -48.5080 O.2       4 UNK        -0.5000 
     52 CA         -2.0244  -15.2329  -48.6938 C.3       4 UNK         0.1400 
     53 CB         -3.2815  -15.5101  -49.5432 C.3       4 UNK        -0.1800 
     54 N          -2.2141  -14.0618  -47.8278 N.am      4 UNK        -0.5000 
     55 C          -3.0807  -13.9265  -46.8105 C.2       3 UNK         0.5000 
     56 O          -3.8900  -14.7923  -46.4775 O.2       3 UNK        -0.5000 
     57 CA         -3.0207  -12.6134  -46.0029 C.3       3 UNK         0.1400 
     58 CB         -2.2929  -12.8432  -44.6690 C.3       3 UNK        -0.1800 
     59 N          -2.3561  -11.5202  -46.7129 N.am      3 UNK        -0.5000 
     60 C          -2.8772  -10.8458  -47.7470 C.2       2 UNK         0.5000 
     61 O          -4.0169  -11.0282  -48.1761 O.2       2 UNK        -0.5000 
     62 CA         -1.9675   -9.8015  -48.4270 C.3       2 UNK         0.1400 
     63 CB         -2.3091   -8.3882  -47.9301 C.3       2 UNK        -0.1800 
     64 N          -0.5313  -10.0391  -48.2355 N.am      2 UNK        -0.5000 
     65 C           0.1384  -11.0996  -48.7081 C.2       1 UNK         0.5000 
     66 O          -0.3998  -12.0251  -49.3227 O.2       1 UNK        -0.5000 
     67 C          -1.8663  -22.1416  -47.4580 C.2       11 UNK         0.5000 
     68 O          -2.6358  -22.5316  -48.3388 O.2       11 UNK        -0.5000 
     69 N          -2.2522  -21.8740  -46.2021 N.am      12 UNK        -0.5000 
     70 CA         -3.6037  -22.1031  -45.6931 C.3       12 UNK         0.1400 
     71 CB         -3.8712  -21.1820  -44.4929 C.3       12 UNK        -0.1800 
     72 C          -3.8108  -23.5803  -45.3166 C.2       12 UNK         0.5000 
     73 O          -4.8493  -24.1517  -45.6464 O.2       12 UNK        -0.5000 
     74 N          -2.8025  -24.1805  -44.6675 N.am      13 UNK        -0.5000 
     75 CA         -2.7666  -25.5817  -44.2428 C.3       13 UNK         0.1400 
     76 CB         -1.4950  -25.8294  -43.4180 C.3       13 UNK        -0.1800 
     77 C          -2.8573  -26.5800  -45.4110 C.2       13 UNK         0.5000 
     78 O          -3.4396  -27.6529  -45.2474 O.2       13 UNK        -0.5000 
     79 N          -2.3433  -26.1903  -46.5853 N.am      14 UNK        -0.5000 
     80 CA         -2.4595  -26.8989  -47.8627 C.3       14 UNK         0.1400 
     81 CB         -1.3665  -26.3688  -48.8074 C.3       14 UNK        -0.1800 
     82 C          -3.8752  -26.7908  -48.4807 C.2       14 UNK         0.5000 
     83 O          -4.0119  -26.4420  -49.6551 O.2       14 UNK        -0.5000 
     84 N          -4.9089  -27.0537  -47.6654 N.am      15 UNK        -0.5000 
     85 CA         -6.3480  -27.0249  -47.9693 C.3       15 UNK         0.1400 
     86 CB         -6.7101  -28.2138  -48.8829 C.3       15 UNK        -0.1800 
     87 C          -6.8517  -25.6788  -48.5404 C.2       15 UNK         0.5000 
     88 O          -7.8509  -25.6540  -49.2605 O.2       15 UNK        -0.5000 
     89 N          -6.1167  -24.5948  -48.2504 N.am      16 UNK        -0.5000 
     90 CA         -6.2095  -23.2474  -48.8231 C.3       16 UNK         0.1400 
     91 CB         -7.5226  -22.5618  -48.3987 C.3       16 UNK        -0.1800 
     92 C          -5.9830  -23.1767  -50.3511 C.2       16 UNK         0.5000 
     93 O          -6.1769  -22.1112  -50.9361 O.2       16 UNK        -0.5000 
     94 N          -5.5590  -24.2815  -50.9814 N.am      17 UNK        -0.5000 
     95 CA         -5.3659  -24.3899  -52.4258 C.3       17 UNK         0.1400 
     96 CB         -5.2676  -25.8703  -52.8223 C.3       17 UNK        -0.1800 
     97 C          -4.1283  -23.6123  -52.8903 C.2       17 UNK         0.5000 
     98 O          -4.1848  -22.9309  -53.9133 O.2       17 UNK        -0.5000 
     99 N          -3.0487  -23.6878  -52.1007 N.am      18 UNK        -0.5000 
    100 CA        -1.8248  -22.9198  -52.3173 C.3       18 UNK         0.1400 
    101 CB        -0.7134  -23.4580  -51.4100 C.3       18 UNK        -0.1800 
    102 C         -2.0450  -21.4124  -52.1032 C.2       18 UNK         0.5000 
    103 O         -1.5345  -20.6159  -52.8884 O.2       18 UNK        -0.5000 
    104 N         -2.8443  -21.0500  -51.0879 N.am      19 UNK        -0.5000 
    105 CA        -3.2700  -19.6735  -50.8254 C.3       19 UNK         0.1400 
    106 CB        -4.0258  -19.5976  -49.4892 C.3       19 UNK        -0.1800 
    107 C         -4.1200  -19.0978  -51.9711 C.2       19 UNK         0.5000 
    108 O         -3.8606  -17.9782  -52.4102 O.2       19 UNK        -0.5000 
    109 N         -5.0857  -19.8867  -52.4640 N.am      20 UNK        -0.5000 
    110 CA        -5.9416  -19.5416  -53.6002 C.3       20 UNK         0.1400 
    111 CB        -7.0569  -20.5886  -53.7403 C.3       20 UNK        -0.1800 
    112 C         -5.1660  -19.3920  -54.9227 C.2       20 UNK         0.5000 
    113 O         -5.4702  -18.4860  -55.6996 O.2       20 UNK        -0.5000 
    114 N         -4.1772  -20.2682  -55.1503 N.am      21 UNK        -0.5000 
    115 CA        -3.2805  -20.2203  -56.3056 C.3       21 UNK         0.1400 
    116 CB        -2.4963  -21.5380  -56.4037 C.3       21 UNK        -0.1800 
    117 C         -2.3215  -19.0166  -56.2580 C.2       21 UNK         0.5000 
    118 O         -2.1286  -18.3535  -57.2781 O.2       21 UNK        -0.5000 
    119 N         -1.7418  -18.7611  -55.0789 N.am      22 UNK        -0.5000 
    120 CA        -0.8551  -17.6238  -54.8051 C.3       22 UNK         0.1400 
    121 C         -1.5969  -16.2546  -54.8221 C.2       22 UNK         0.5000 
    122 N         -2.7520  -16.1273  -54.1823 N.am      22 UNK        -0.7600 
    123 O         -1.1296  -15.3016  -55.4402 O.2       22 UNK        -0.5000 
    124 C124       -0.0572  -17.8680  -53.4988 C.3       23 UNK        -0.0398 
    125 S125        1.2287  -16.6151  -53.1649 S.3       23 UNK        -0.2404 
    126 C126        0.5455  -15.8129  -51.6775 C.3       23 UNK        -0.0205 
    127 H127        2.5693  -12.5647  -52.5199 H         1 UNK         0.0600 
    128 H128        3.5690  -13.2324  -51.2279 H         1 UNK         0.0600 
    129 H129        4.1186  -11.8122  -52.1228 H         1 UNK         0.0600 
    130 H130        2.7380  -12.7472  -49.2318 H         1 UNK         0.3000 
    131 H131        2.0157  -10.1233  -48.3686 H         1 UNK         0.0600 
    132 H132        3.0208  -11.7724  -46.8156 H         1 UNK         0.0800 
    133 H133        1.5102  -11.1682  -46.2279 H         1 UNK         0.0800 
    134 H134        3.1839  -14.9561  -46.4284 H         1 UNK         0.0800 
    135 H135        3.4935  -13.9077  -47.7862 H         1 UNK         0.0800 
    136 H136        1.4231  -14.2274  -49.6955 H         1 UNK         0.1150 
    137 H137        1.1736  -18.3434  -50.7973 H         1 UNK         0.1150 
    138 H138        3.0721  -17.2178  -47.1175 H         1 UNK         0.1150 
    139 H139        3.5245  -19.5711  -48.7965 H         1 UNK         0.0800 
    140 H140        2.3795  -19.5642  -47.4813 H         1 UNK         0.0800 
    141 H141       -0.8628  -20.4539  -49.2899 H         1 UNK         0.0800 
    142 H142       -0.1374  -19.7953  -47.8562 H         1 UNK         0.0800 
    143 H143       -0.1240  -22.7864  -48.4733 H         1 UNK         0.0600 
    144 H144        0.9500  -21.3179  -46.2503 H         1 UNK         0.3000 
    145 H145        1.5273  -24.2613  -44.2881 H         1 UNK         0.0600 
    146 H146        3.8154  -23.3495  -44.4001 H         1 UNK         0.0600 
    147 H147        3.3810  -24.0323  -45.9583 H         1 UNK         0.0600 
    148 H148        3.3704  -22.2870  -45.7357 H         1 UNK         0.0600 
    149 H149        2.2056  -21.7286  -43.5116 H         1 UNK         0.3000 
    150 H150       -0.1872  -20.0596  -42.5521 H         1 UNK         0.0600 
    151 H151       -1.8043  -21.4668  -41.3614 H         1 UNK         0.0600 
    152 H152       -0.8109  -20.6159  -40.1913 H         1 UNK         0.0600 
    153 H153       -0.5203  -22.3238  -40.5222 H         1 UNK         0.0600 
    154 H154        1.7396  -19.6423  -41.6422 H         1 UNK         0.3000 
    155 H155        3.8512  -21.1078  -39.3582 H         1 UNK         0.0600 
    156 H156        4.7471  -20.9011  -42.2870 H         1 UNK         0.0600 
    157 H157        4.9414  -22.3133  -41.2558 H         1 UNK         0.0600 
    158 H158        5.8036  -20.8320  -40.8762 H         1 UNK         0.0600 
    159 H159        4.1178  -18.8372  -41.1434 H         1 UNK         0.3000 
    160 H160        1.9255  -16.6744  -39.4826 H         1 UNK         0.0600 
    161 H161        4.9825  -16.5661  -39.2655 H         1 UNK         0.0600 
    162 H162        3.8638  -16.4953  -37.9094 H         1 UNK         0.0600 
    163 H163        3.8795  -15.1997  -39.0940 H         1 UNK         0.0600 
    164 H164        3.8586  -16.0785  -41.4378 H         1 UNK         0.3000 
    165 H165        2.6844  -15.5696  -43.6774 H         1 UNK         0.0600 
    166 H166        4.3378  -16.9084  -45.0191 H         1 UNK         0.0600 
    167 H167        4.8295  -16.8071  -43.3432 H         1 UNK         0.0600 
    168 H168        4.0990  -18.2885  -43.9495 H         1 UNK         0.0600 
    169 H169        1.9692  -18.0126  -45.0956 H         1 UNK         0.3000 
    170 H170        0.3106  -17.9323  -46.5632 H         1 UNK         0.0600 
    171 H171       -0.9202  -19.0082  -44.6496 H         1 UNK         0.0600 
    172 H172       -2.0901  -17.6932  -44.6580 H         1 UNK         0.0600 
    173 H173       -1.9767  -18.7882  -46.0343 H         1 UNK         0.0600 
    174 H174       -0.9188  -15.3807  -46.3692 H         1 UNK         0.3000 
    175 H175       -1.2285  -14.9505  -49.3821 H         1 UNK         0.0600 
    176 H176       -4.1097  -15.8749  -48.9354 H         1 UNK         0.0600 
    177 H177       -3.6135  -14.6111  -50.0623 H         1 UNK         0.0600 
    178 H178       -3.0792  -16.2651  -50.3037 H         1 UNK         0.0600 
    179 H179       -1.5997  -13.2824  -48.0349 H         1 UNK         0.3000 
    180 H180       -4.0480  -12.3129  -45.7863 H         1 UNK         0.0600 
    181 H181       -2.3133  -11.9474  -44.0481 H         1 UNK         0.0600 
    182 H182       -1.2496  -13.1224  -44.8223 H         1 UNK         0.0600 
    183 H183       -2.7638  -13.6442  -44.0975 H         1 UNK         0.0600 
    184 H184       -1.4165  -11.2959  -46.4217 H         1 UNK         0.3000 
    185 H185       -2.1716   -9.8450  -49.4989 H         1 UNK         0.0600 
    186 H186       -1.7373   -7.6313  -48.4673 H         1 UNK         0.0600 
    187 H187       -3.3656   -8.1640  -48.0841 H         1 UNK         0.0600 
    188 H188       -2.1016   -8.2750  -46.8653 H         1 UNK         0.0600 
    189 H189       -0.0264   -9.3218  -47.7346 H         1 UNK         0.3000 
    190 H190       -1.5486  -21.6383  -45.5167 H         1 UNK         0.3000 
    191 H191       -4.3254  -21.8466  -46.4705 H         1 UNK         0.0600 
    192 H192       -4.8807  -21.3305  -44.1077 H         1 UNK         0.0600 
    193 H193       -3.7842  -20.1331  -44.7755 H         1 UNK         0.0600 
    194 H194       -3.1784  -21.3663  -43.6719 H         1 UNK         0.0600 
    195 H195       -2.0051  -23.6124  -44.3865 H         1 UNK         0.3000 
    196 H196       -3.6313  -25.7515  -43.5983 H         1 UNK         0.0600 
    197 H197       -0.5948  -25.6505  -44.0065 H         1 UNK         0.0600 
    198 H198       -1.4581  -25.1783  -42.5443 H         1 UNK         0.0600 
    199 H199       -1.4548  -26.8586  -43.0590 H         1 UNK         0.0600 
    200 H200       -1.8465  -25.3086  -46.6085 H         1 UNK         0.3000 
    201 H201       -2.2674  -27.9595  -47.6897 H         1 UNK         0.0600 
    202 H202       -1.4990  -25.3054  -49.0062 H         1 UNK         0.0600 
    203 H203       -1.3804  -26.8909  -49.7649 H         1 UNK         0.0600 
    204 H204       -0.3737  -26.5056  -48.3782 H         1 UNK         0.0600 
    205 H205       -4.6704  -27.3156  -46.7133 H         1 UNK         0.3000 
    206 H206       -6.8647  -27.1628  -47.0187 H         1 UNK         0.0600 
    207 H207       -6.3619  -29.1562  -48.4602 H         1 UNK         0.0600 
    208 H208       -7.7898  -28.2987  -49.0114 H         1 UNK         0.0600 
    209 H209       -6.2689  -28.1077  -49.8746 H         1 UNK         0.0600 
    210 H210       -5.3670  -24.7172  -47.5786 H         1 UNK         0.3000 
    211 H211       -5.3884  -22.6826  -48.3834 H         1 UNK         0.0600 
    212 H212       -7.5322  -21.5132  -48.6987 H         1 UNK         0.0600 
    213 H213       -7.6478  -22.5889  -47.3162 H         1 UNK         0.0600 
    214 H214       -8.3928  -23.0380  -48.8508 H         1 UNK         0.0600 
    215 H215       -5.3358  -25.1043  -50.4314 H         1 UNK         0.3000 
    216 H216       -6.2395  -23.9620  -52.9222 H         1 UNK         0.0600 
    217 H217       -4.4043  -26.3559  -52.3657 H         1 UNK         0.0600 
    218 H218       -5.1710  -25.9780  -53.9033 H         1 UNK         0.0600 
    219 H219       -6.1590  -26.4192  -52.5178 H         1 UNK         0.0600 
    220 H220       -3.0953  -24.2661  -51.2735 H         1 UNK         0.3000 
    221 H221       -1.5112  -23.0622  -53.3536 H         1 UNK         0.0600 
    222 H222       -0.4534  -24.4838  -51.6714 H         1 UNK         0.0600 
    223 H223       -1.0245  -23.4495  -50.3689 H         1 UNK         0.0600 
    224 H224        0.1934  -22.8575  -51.4939 H         1 UNK         0.0600 
    225 H225       -3.1999  -21.7641  -50.4668 H         1 UNK         0.3000 
    226 H226       -2.3732  -19.0559  -50.7414 H         1 UNK         0.0600 
    227 H227       -4.8944  -20.2550  -49.4706 H         1 UNK         0.0600 
    228 H228       -3.3800  -19.8675  -48.6548 H         1 UNK         0.0600 
    229 H229       -4.3774  -18.5825  -49.3002 H         1 UNK         0.0600 
    230 H230       -5.2752  -20.7757  -52.0098 H         1 UNK         0.3000 
    231 H231       -6.4079  -18.5787  -53.3816 H         1 UNK         0.0600 
    232 H232       -6.6529  -21.5850  -53.9212 H         1 UNK         0.0600 
    233 H233       -7.7196  -20.3460  -54.5719 H         1 UNK         0.0600 
    234 H234       -7.6691  -20.6348  -52.8395 H         1 UNK         0.0600 
    235 H235       -4.0403  -21.0336  -54.4976 H         1 UNK         0.3000 
    236 H236       -3.8919  -20.1246  -57.2053 H         1 UNK         0.0600 
    237 H237       -3.1686  -22.3881  -56.5208 H         1 UNK         0.0600 
    238 H238       -1.8267  -21.5316  -57.2645 H         1 UNK         0.0600 
    239 H239       -1.8889  -21.7128  -55.5151 H         1 UNK         0.0600 
    240 H240       -1.9184  -19.3861  -54.2974 H         1 UNK         0.3000 
    241 H241       -0.1268  -17.5924  -55.6181 H         1 UNK         0.0600 
    242 H242       -3.2339  -15.2440  -54.2112 H         1 UNK         0.3800 
    243 H243       -3.1446  -16.8899  -53.6314 H         1 UNK         0.3800 
    244 H244        0.4518  -18.8308  -53.5623 H         1 UNK         0.0800 
    245 H245       -0.7372  -17.9569  -52.6503 H         1 UNK         0.0800 
    246 H246        0.6453  -14.7354  -51.8179 H         1 UNK         0.0800 
    247 H247       -0.5249  -15.9995  -51.5850 H         1 UNK         0.0800 
@<TRIPOS>BOND
     1    1    2 1    
     2    1  127 1    
     3    1  128 1    
     4    1  129 1    
     5    2    3 2    
     6    2    4 am   BACKBONE|DICT|INTERRES
     7    4    5 1    
     8    4  130 1    
     9    5    6 1    
    10    5   65 1    
    11    5  131 1    
    12    6    7 1    
    13    6  132 1    
    14    6  133 1    
    15    7    8 1    
    16    8    9 1    
    17    8  134 1    
    18    8  135 1    
    19    9   10 ar   
    20    9   14 ar   
    21   10   11 ar   
    22   10  136 1    
    23   11   12 ar   
    24   11  126 1    
    25   12   13 ar   
    26   12  137 1    
    27   13   14 ar   
    28   13   15 1    
    29   14  138 1    
    30   15   16 1    
    31   15  139 1    
    32   15  140 1    
    33   16   17 1    
    34   17   18 1    
    35   17  141 1    
    36   17  142 1    
    37   18   19 1    
    38   18   67 1    
    39   18  143 1    
    40   19   20 am   BACKBONE|DICT|INTERRES
    41   19  144 1    
    42   20   21 2    
    43   20   22 1    
    44   22   23 1    
    45   22   24 1    
    46   22  145 1    
    47   23  146 1    
    48   23  147 1    
    49   23  148 1    
    50   24   25 am   BACKBONE|DICT|INTERRES
    51   24  149 1    
    52   25   26 2    
    53   25   27 1    
    54   27   28 1    
    55   27   29 1    
    56   27  150 1    
    57   28  151 1    
    58   28  152 1    
    59   28  153 1    
    60   29   30 am   BACKBONE|DICT|INTERRES
    61   29  154 1    
    62   30   31 2    
    63   30   32 1    
    64   32   33 1    
    65   32   34 1    
    66   32  155 1    
    67   33  156 1    
    68   33  157 1    
    69   33  158 1    
    70   34   35 am   BACKBONE|DICT|INTERRES
    71   34  159 1    
    72   35   36 2    
    73   35   37 1    
    74   37   38 1    
    75   37   39 1    
    76   37  160 1    
    77   38  161 1    
    78   38  162 1    
    79   38  163 1    
    80   39   40 am   BACKBONE|DICT|INTERRES
    81   39  164 1    
    82   40   41 2    
    83   40   42 1    
    84   42   43 1    
    85   42   44 1    
    86   42  165 1    
    87   43  166 1    
    88   43  167 1    
    89   43  168 1    
    90   44   45 am   BACKBONE|DICT|INTERRES
    91   44  169 1    
    92   45   46 2    
    93   45   47 1    
    94   47   48 1    
    95   47   49 1    
    96   47  170 1    
    97   48  171 1    
    98   48  172 1    
    99   48  173 1    
   100   49   50 am   BACKBONE|DICT|INTERRES
   101   49  174 1    
   102   50   51 2    
   103   50   52 1    
   104   52   53 1    
   105   52   54 1    
   106   52  175 1    
   107   53  176 1    
   108   53  177 1    
   109   53  178 1    
   110   54   55 am   BACKBONE|DICT|INTERRES
   111   54  179 1    
   112   55   56 2    
   113   55   57 1    
   114   57   58 1    
   115   57   59 1    
   116   57  180 1    
   117   58  181 1    
   118   58  182 1    
   119   58  183 1    
   120   59   60 am   BACKBONE|DICT|INTERRES
   121   59  184 1    
   122   60   61 2    
   123   60   62 1    
   124   62   63 1    
   125   62   64 1    
   126   62  185 1    
   127   63  186 1    
   128   63  187 1    
   129   63  188 1    
   130   64   65 am   BACKBONE|DICT|INTERRES
   131   64  189 1    
   132   65   66 2    
   133   67   68 2    
   134   67   69 am   BACKBONE|DICT|INTERRES
   135   69   70 1    
   136   69  190 1    
   137   70   71 1    
   138   70   72 1    
   139   70  191 1    
   140   71  192 1    
   141   71  193 1    
   142   71  194 1    
   143   72   73 2    
   144   72   74 am   BACKBONE|DICT|INTERRES
   145   74   75 1    
   146   74  195 1    
   147   75   76 1    
   148   75   77 1    
   149   75  196 1    
   150   76  197 1    
   151   76  198 1    
   152   76  199 1    
   153   77   78 2    
   154   77   79 am   BACKBONE|DICT|INTERRES
   155   79   80 1    
   156   79  200 1    
   157   80   81 1    
   158   80   82 1    
   159   80  201 1    
   160   81  202 1    
   161   81  203 1    
   162   81  204 1    
   163   82   83 2    
   164   82   84 am   BACKBONE|DICT|INTERRES
   165   84   85 1    
   166   84  205 1    
   167   85   86 1    
   168   85   87 1    
   169   85  206 1    
   170   86  207 1    
   171   86  208 1    
   172   86  209 1    
   173   87   88 2    
   174   87   89 am   BACKBONE|DICT|INTERRES
   175   89   90 1    
   176   89  210 1    
   177   90   91 1    
   178   90   92 1    
   179   90  211 1    
   180   91  212 1    
   181   91  213 1    
   182   91  214 1    
   183   92   93 2    
   184   92   94 am   BACKBONE|DICT|INTERRES
   185   94   95 1    
   186   94  215 1    
   187   95   96 1    
   188   95   97 1    
   189   95  216 1    
   190   96  217 1    
   191   96  218 1    
   192   96  219 1    
   193   97   98 2    
   194   97   99 am   BACKBONE|DICT|INTERRES
   195   99  100 1    
   196   99  220 1    
   197  100  101 1    
   198  100  102 1    
   199  100  221 1    
   200  101  222 1    
   201  101  223 1    
   202  101  224 1    
   203  102  103 2    
   204  102  104 am   BACKBONE|DICT|INTERRES
   205  104  105 1    
   206  104  225 1    
   207  105  106 1    
   208  105  107 1    
   209  105  226 1    
   210  106  227 1    
   211  106  228 1    
   212  106  229 1    
   213  107  108 2    
   214  107  109 am   BACKBONE|DICT|INTERRES
   215  109  110 1    
   216  109  230 1    
   217  110  111 1    
   218  110  112 1    
   219  110  231 1    
   220  111  232 1    
   221  111  233 1    
   222  111  234 1    
   223  112  113 2    
   224  112  114 am   BACKBONE|DICT|INTERRES
   225  114  115 1    
   226  114  235 1    
   227  115  116 1    
   228  115  117 1    
   229  115  236 1    
   230  116  237 1    
   231  116  238 1    
   232  116  239 1    
   233  117  118 2    
   234  117  119 am   BACKBONE|DICT|INTERRES
   235  119  120 1    
   236  119  240 1    
   237  120  121 1    
   238  120  124 1    
   239  120  241 1    
   240  121  122 am   BACKBONE|DICT|INTERRES
   241  121  123 2    
   242  122  242 1    
   243  122  243 1    
   244  124  125 1    
   245  124  244 1    
   246  124  245 1    
   247  125  126 1    
   248  126  246 1    
   249  126  247 1    
@<TRIPOS>SUBSTRUCTURE
     1 UNK         1 GROUP             0       ****    0 ROOT    
