@<TRIPOS>MOLECULE
3R540
247   249    1
SMALL
USER_CHARGES


@<TRIPOS>ATOM
      1 CA          4.3762   -9.1839  -51.2106 C.3       0 UNK        -0.1800 
      2 C           3.9714  -10.0234  -50.0067 C.2       0 UNK         0.5000 
      3 O           4.3275   -9.6862  -48.8769 O.2       0 UNK        -0.5000 
      4 N           3.2389  -11.1175  -50.2449 N.am      1 UNK        -0.5000 
      5 CA          2.6915  -12.0042  -49.2141 C.3       1 UNK         0.1400 
      6 C6          2.4137  -13.4233  -49.7807 C.3       23 UNK        -0.0398 
      7 S7          1.1004  -13.4817  -51.0530 S.3       23 UNK        -0.2404 
      8 C8         -0.2052  -14.4127  -50.1897 C.3       23 UNK        -0.0205 
      9 C9         -0.1586  -15.8910  -50.5432 C.ar      23 UNK        -0.0193 
     10 C10        -0.9232  -16.3691  -51.6115 C.ar      23 UNK        -0.1150 
     11 C11        -0.9058  -17.7242  -51.9481 C.ar      23 UNK        -0.0193 
     12 C12        -0.1220  -18.6044  -51.1980 C.ar      23 UNK        -0.1150 
     13 C13         0.6517  -18.1429  -50.1308 C.ar      23 UNK        -0.0193 
     14 C14         0.6332  -16.7814  -49.8091 C.ar      23 UNK        -0.1150 
     15 C15         1.5332  -19.1195  -49.3652 C.3       23 UNK        -0.0205 
     16 S16         0.5700  -20.4247  -48.5288 S.3       23 UNK        -0.2404 
     17 C17         1.7957  -21.7773  -48.5743 C.3       23 UNK        -0.0398 
     18 CA          1.4561  -23.0237  -47.7191 C.3       11 UNK         0.1400 
     19 N           1.4495  -22.7183  -46.2872 N.am      11 UNK        -0.5000 
     20 C           1.5431  -23.6355  -45.3140 C.2       10 UNK         0.5000 
     21 O           1.6830  -24.8434  -45.5194 O.2       10 UNK        -0.5000 
     22 CA          1.5168  -23.0861  -43.8754 C.3       10 UNK         0.1400 
     23 CB          1.7765  -24.1581  -42.7973 C.3       10 UNK        -0.1800 
     24 N           2.4302  -21.9532  -43.7210 N.am      10 UNK        -0.5000 
     25 C           3.7602  -21.9319  -43.8937 C.2       9 UNK         0.5000 
     26 O           4.4462  -22.9215  -44.1517 O.2       9 UNK        -0.5000 
     27 CA          4.4398  -20.5558  -43.7639 C.3       9 UNK         0.1400 
     28 CB          4.5412  -19.8858  -45.1435 C.3       9 UNK        -0.1800 
     29 N           3.7321  -19.6610  -42.8464 N.am      9 UNK        -0.5000 
     30 C           3.6723  -19.8246  -41.5173 C.2       8 UNK         0.5000 
     31 O           4.2914  -20.6963  -40.9059 O.2       8 UNK        -0.5000 
     32 CA          2.7403  -18.8734  -40.7449 C.3       8 UNK         0.1400 
     33 CB          3.4367  -17.5317  -40.4725 C.3       8 UNK        -0.1800 
     34 N           1.4681  -18.6427  -41.4346 N.am      8 UNK        -0.5000 
     35 C           0.5292  -19.5808  -41.6297 C.2       7 UNK         0.5000 
     36 O           0.6202  -20.7358  -41.2144 O.2       7 UNK        -0.5000 
     37 CA         -0.7121  -19.1753  -42.4448 C.3       7 UNK         0.1400 
     38 CB         -1.7394  -18.4598  -41.5554 C.3       7 UNK        -0.1800 
     39 N          -0.3898  -18.3308  -43.5933 N.am      7 UNK        -0.5000 
     40 C           0.3110  -18.7297  -44.6645 C.2       6 UNK         0.5000 
     41 O           0.7371  -19.8743  -44.8222 O.2       6 UNK        -0.5000 
     42 CA          0.6246  -17.6487  -45.7140 C.3       6 UNK         0.1400 
     43 CB         -0.6131  -17.3494  -46.5756 C.3       6 UNK        -0.1800 
     44 N           1.0982  -16.4065  -45.1034 N.am      6 UNK        -0.5000 
     45 C           2.1957  -16.2850  -44.3433 C.2       5 UNK         0.5000 
     46 O           2.9729  -17.2079  -44.1067 O.2       5 UNK        -0.5000 
     47 CA          2.4346  -14.9126  -43.6918 C.3       5 UNK         0.1400 
     48 CB          3.1195  -13.9466  -44.6706 C.3       5 UNK        -0.1800 
     49 N           1.1915  -14.3217  -43.1951 N.am      5 UNK        -0.5000 
     50 C           0.4952  -14.7950  -42.1514 C.2       4 UNK         0.5000 
     51 O           0.8472  -15.7613  -41.4762 O.2       4 UNK        -0.5000 
     52 CA         -0.8406  -14.0973  -41.8388 C.3       4 UNK         0.1400 
     53 CB         -0.6080  -12.8211  -41.0163 C.3       4 UNK        -0.1800 
     54 N          -1.5908  -13.7657  -43.0504 N.am      4 UNK        -0.5000 
     55 C          -2.1207  -14.6734  -43.8825 C.2       3 UNK         0.5000 
     56 O          -2.0770  -15.8876  -43.6862 O.2       3 UNK        -0.5000 
     57 CA         -2.7584  -14.1324  -45.1770 C.3       3 UNK         0.1400 
     58 CB         -4.2309  -13.7654  -44.9416 C.3       3 UNK        -0.1800 
     59 N          -2.0494  -12.9744  -45.7345 N.am      3 UNK        -0.5000 
     60 C          -0.7780  -13.0002  -46.1529 C.2       2 UNK         0.5000 
     61 O          -0.0620  -14.0034  -46.0973 O.2       2 UNK        -0.5000 
     62 CA         -0.1909  -11.6864  -46.6825 C.3       2 UNK         0.1400 
     63 CB          0.1605  -10.7352  -45.5259 C.3       2 UNK        -0.1800 
     64 N           1.0200  -12.0079  -47.4285 N.am      2 UNK        -0.5000 
     65 C           1.4525  -11.3814  -48.5250 C.2       1 UNK         0.5000 
     66 O           0.9017  -10.3831  -48.9989 O.2       1 UNK        -0.5000 
     67 C           0.1586  -23.7354  -48.1661 C.2       11 UNK         0.5000 
     68 O          -0.8307  -23.7416  -47.4288 O.2       11 UNK        -0.5000 
     69 N           0.1828  -24.3214  -49.3724 N.am      12 UNK        -0.5000 
     70 CA         -0.9064  -25.1200  -49.9453 C.3       12 UNK         0.1400 
     71 CB         -0.5001  -25.6104  -51.3430 C.3       12 UNK        -0.1800 
     72 C          -2.2614  -24.3919  -50.0006 C.2       12 UNK         0.5000 
     73 O          -3.2829  -24.9924  -49.6707 O.2       12 UNK        -0.5000 
     74 N          -2.2404  -23.1030  -50.3642 N.am      13 UNK        -0.5000 
     75 CA         -3.4208  -22.2407  -50.3818 C.3       13 UNK         0.1400 
     76 CB         -3.0777  -20.9232  -51.0814 C.3       13 UNK        -0.1800 
     77 C          -3.9928  -21.9793  -48.9799 C.2       13 UNK         0.5000 
     78 O          -5.2093  -22.0323  -48.8103 O.2       13 UNK        -0.5000 
     79 N          -3.1157  -21.7465  -47.9942 N.am      14 UNK        -0.5000 
     80 CA         -3.4968  -21.5489  -46.5950 C.3       14 UNK         0.1400 
     81 CB         -2.2935  -21.0300  -45.7956 C.3       14 UNK        -0.1800 
     82 C          -4.0715  -22.8287  -45.9634 C.2       14 UNK         0.5000 
     83 O          -5.0599  -22.7533  -45.2335 O.2       14 UNK        -0.5000 
     84 N          -3.4692  -23.9796  -46.2919 N.am      15 UNK        -0.5000 
     85 CA         -3.9201  -25.3086  -45.8803 C.3       15 UNK         0.1400 
     86 CB         -2.8438  -26.3429  -46.2432 C.3       15 UNK        -0.1800 
     87 C          -5.2826  -25.6925  -46.4903 C.2       15 UNK         0.5000 
     88 O          -6.1263  -26.2505  -45.7878 O.2       15 UNK        -0.5000 
     89 N          -5.4811  -25.3710  -47.7761 N.am      16 UNK        -0.5000 
     90 CA         -6.7249  -25.6084  -48.5129 C.3       16 UNK         0.1400 
     91 CB         -6.4262  -25.5534  -50.0198 C.3       16 UNK        -0.1800 
     92 C          -7.8528  -24.6156  -48.1683 C.2       16 UNK         0.5000 
     93 O          -9.0106  -24.9032  -48.4746 O.2       16 UNK        -0.5000 
     94 N          -7.4947  -23.4654  -47.5774 N.am      17 UNK        -0.5000 
     95 CA         -8.3296  -22.2789  -47.3553 C.3       17 UNK         0.1400 
     96 CB         -9.4763  -22.5719  -46.3654 C.3       17 UNK        -0.1800 
     97 C          -8.8039  -21.6705  -48.6935 C.2       17 UNK         0.5000 
     98 O          -9.9890  -21.3825  -48.8731 O.2       17 UNK        -0.5000 
     99 N          -7.8495  -21.5214  -49.6166 N.am      18 UNK        -0.5000 
    100 CA        -8.0151  -21.0306  -50.9798 C.3       18 UNK         0.1400 
    101 CB        -7.7673  -22.2102  -51.9403 C.3       18 UNK        -0.1800 
    102 C         -7.0326  -19.8732  -51.2412 C.2       18 UNK         0.5000 
    103 O         -6.3341  -19.4296  -50.3270 O.2       18 UNK        -0.5000 
    104 N         -6.9879  -19.4047  -52.4932 N.am      19 UNK        -0.5000 
    105 CA        -6.0793  -18.3578  -52.9650 C.3       19 UNK         0.1400 
    106 CB        -6.7213  -16.9726  -52.7553 C.3       19 UNK        -0.1800 
    107 C         -5.6663  -18.6209  -54.4261 C.2       19 UNK         0.5000 
    108 O         -5.5179  -17.6777  -55.2041 O.2       19 UNK        -0.5000 
    109 N         -5.5120  -19.9037  -54.7820 N.am      20 UNK        -0.5000 
    110 CA        -5.2177  -20.3694  -56.1403 C.3       20 UNK         0.1400 
    111 CB        -6.5374  -20.6943  -56.8663 C.3       20 UNK        -0.1800 
    112 C         -4.2333  -21.5544  -56.1247 C.2       20 UNK         0.5000 
    113 O         -4.3177  -22.4405  -56.9765 O.2       20 UNK        -0.5000 
    114 N         -3.3163  -21.5533  -55.1507 N.am      21 UNK        -0.5000 
    115 CA        -2.2818  -22.5701  -54.9618 C.3       21 UNK         0.1400 
    116 CB        -2.8284  -23.7287  -54.1041 C.3       21 UNK        -0.1800 
    117 C         -1.0274  -21.9063  -54.3719 C.2       21 UNK         0.5000 
    118 O         -0.5134  -22.3461  -53.3424 O.2       21 UNK        -0.5000 
    119 N         -0.5956  -20.8094  -55.0082 N.am      22 UNK        -0.5000 
    120 CA         0.5397  -19.9816  -54.5634 C.3       22 UNK         0.1400 
    121 C          1.9428  -20.5450  -54.9387 C.2       22 UNK         0.5000 
    122 N          2.0477  -21.6135  -55.7193 N.am      22 UNK        -0.7600 
    123 O          2.9579  -20.0058  -54.5071 O.2       22 UNK        -0.5000 
    124 C124        0.4039  -18.4974  -55.0038 C.3       23 UNK        -0.0398 
    125 S125       -1.2157  -17.6831  -54.7323 S.3       23 UNK        -0.2404 
    126 C126       -1.7695  -18.2415  -53.0883 C.3       23 UNK        -0.0205 
    127 H127        4.0021   -9.6061  -52.1436 H         1 UNK         0.0600 
    128 H128        5.4624   -9.1215  -51.2771 H         1 UNK         0.0600 
    129 H129        3.9806   -8.1729  -51.1126 H         1 UNK         0.0600 
    130 H130        2.9440  -11.3231  -51.1889 H         1 UNK         0.3000 
    131 H131        3.4539  -12.1156  -48.4397 H         1 UNK         0.0600 
    132 H132        2.1804  -14.1157  -48.9711 H         1 UNK         0.0800 
    133 H133        3.3261  -13.8170  -50.2306 H         1 UNK         0.0800 
    134 H134       -1.1722  -13.9971  -50.4771 H         1 UNK         0.0800 
    135 H135       -0.1356  -14.2766  -49.1096 H         1 UNK         0.0800 
    136 H136       -1.5352  -15.6860  -52.1838 H         1 UNK         0.1150 
    137 H137       -0.1171  -19.6595  -51.4287 H         1 UNK         0.1150 
    138 H138        1.2336  -16.4145  -48.9891 H         1 UNK         0.1150 
    139 H139        2.2274  -19.5709  -50.0756 H         1 UNK         0.0800 
    140 H140        2.1456  -18.6000  -48.6273 H         1 UNK         0.0800 
    141 H141        2.7561  -21.3759  -48.2468 H         1 UNK         0.0800 
    142 H142        1.9420  -22.0654  -49.6165 H         1 UNK         0.0800 
    143 H143        2.2640  -23.7409  -47.8797 H         1 UNK         0.0600 
    144 H144        1.2953  -21.7506  -46.0311 H         1 UNK         0.3000 
    145 H145        0.5118  -22.6927  -43.7145 H         1 UNK         0.0600 
    146 H146        1.7329  -23.7256  -41.7975 H         1 UNK         0.0600 
    147 H147        1.0242  -24.9462  -42.8438 H         1 UNK         0.0600 
    148 H148        2.7521  -24.6298  -42.9169 H         1 UNK         0.0600 
    149 H149        1.9716  -21.0592  -43.5917 H         1 UNK         0.3000 
    150 H150        5.4501  -20.7137  -43.3812 H         1 UNK         0.0600 
    151 H151        5.0813  -20.5192  -45.8483 H         1 UNK         0.0600 
    152 H152        5.0750  -18.9373  -45.0827 H         1 UNK         0.0600 
    153 H153        3.5556  -19.6880  -45.5675 H         1 UNK         0.0600 
    154 H154        3.2518  -18.8687  -43.2668 H         1 UNK         0.3000 
    155 H155        2.5180  -19.3380  -39.7820 H         1 UNK         0.0600 
    156 H156        4.3790  -17.6808  -39.9439 H         1 UNK         0.0600 
    157 H157        2.8161  -16.8842  -39.8530 H         1 UNK         0.0600 
    158 H158        3.6595  -16.9986  -41.3967 H         1 UNK         0.0600 
    159 H159        1.2896  -17.6952  -41.7518 H         1 UNK         0.3000 
    160 H160       -1.1710  -20.0912  -42.8225 H         1 UNK         0.0600 
    161 H161       -1.3529  -17.5138  -41.1749 H         1 UNK         0.0600 
    162 H162       -2.0101  -19.0752  -40.6966 H         1 UNK         0.0600 
    163 H163       -2.6560  -18.2479  -42.1062 H         1 UNK         0.0600 
    164 H164       -0.7453  -17.3800  -43.5703 H         1 UNK         0.3000 
    165 H165        1.4192  -18.0224  -46.3617 H         1 UNK         0.0600 
    166 H166       -0.4461  -16.4980  -47.2337 H         1 UNK         0.0600 
    167 H167       -0.8665  -18.2005  -47.2064 H         1 UNK         0.0600 
    168 H168       -1.4890  -17.1250  -45.9680 H         1 UNK         0.0600 
    169 H169        0.5469  -15.5729  -45.2894 H         1 UNK         0.3000 
    170 H170        3.1031  -15.0578  -42.8408 H         1 UNK         0.0600 
    171 H171        4.0812  -14.3446  -44.9967 H         1 UNK         0.0600 
    172 H172        2.5192  -13.7768  -45.5631 H         1 UNK         0.0600 
    173 H173        3.3096  -12.9799  -44.2041 H         1 UNK         0.0600 
    174 H174        0.8042  -13.5601  -43.7304 H         1 UNK         0.3000 
    175 H175       -1.4439  -14.7843  -41.2414 H         1 UNK         0.0600 
    176 H176       -0.0610  -13.0433  -40.0991 H         1 UNK         0.0600 
    177 H177       -0.0311  -12.0807  -41.5718 H         1 UNK         0.0600 
    178 H178       -1.5532  -12.3619  -40.7262 H         1 UNK         0.0600 
    179 H179       -1.6761  -12.7881  -43.2851 H         1 UNK         0.3000 
    180 H180       -2.7219  -14.9324  -45.9193 H         1 UNK         0.0600 
    181 H181       -4.7862  -14.6163  -44.5446 H         1 UNK         0.0600 
    182 H182       -4.3339  -12.9451  -44.2302 H         1 UNK         0.0600 
    183 H183       -4.7167  -13.4677  -45.8710 H         1 UNK         0.0600 
    184 H184       -2.5748  -12.1146  -45.8041 H         1 UNK         0.3000 
    185 H185       -0.9289  -11.2209  -47.3392 H         1 UNK         0.0600 
    186 H186       -0.7250  -10.4734  -44.9458 H         1 UNK         0.0600 
    187 H187        0.8839  -11.1818  -44.8425 H         1 UNK         0.0600 
    188 H188        0.5876   -9.8046  -45.9002 H         1 UNK         0.0600 
    189 H189        1.4599  -12.8672  -47.1266 H         1 UNK         0.3000 
    190 H190        1.0264  -24.2703  -49.9244 H         1 UNK         0.3000 
    191 H191       -1.0364  -25.9944  -49.3045 H         1 UNK         0.0600 
    192 H192       -0.2921  -24.7783  -52.0167 H         1 UNK         0.0600 
    193 H193       -1.2936  -26.2074  -51.7946 H         1 UNK         0.0600 
    194 H194        0.3908  -26.2370  -51.2985 H         1 UNK         0.0600 
    195 H195       -1.3595  -22.6888  -50.6334 H         1 UNK         0.3000 
    196 H196       -4.1973  -22.7411  -50.9641 H         1 UNK         0.0600 
    197 H197       -2.7729  -21.1082  -52.1082 H         1 UNK         0.0600 
    198 H198       -2.2717  -20.3969  -50.5704 H         1 UNK         0.0600 
    199 H199       -3.9369  -20.2546  -51.1124 H         1 UNK         0.0600 
    200 H200       -2.1268  -21.7856  -48.1959 H         1 UNK         0.3000 
    201 H201       -4.2758  -20.7841  -46.5643 H         1 UNK         0.0600 
    202 H202       -2.5701  -20.8312  -44.7599 H         1 UNK         0.0600 
    203 H203       -1.4692  -21.7432  -45.7838 H         1 UNK         0.0600 
    204 H204       -1.9205  -20.0978  -46.2163 H         1 UNK         0.0600 
    205 H205       -2.6257  -23.9361  -46.8594 H         1 UNK         0.3000 
    206 H206       -4.0316  -25.3017  -44.7941 H         1 UNK         0.0600 
    207 H207       -1.8923  -26.1054  -45.7664 H         1 UNK         0.0600 
    208 H208       -3.1344  -27.3413  -45.9142 H         1 UNK         0.0600 
    209 H209       -2.6744  -26.3872  -47.3193 H         1 UNK         0.0600 
    210 H210       -4.7100  -24.9791  -48.3091 H         1 UNK         0.3000 
    211 H211       -7.0848  -26.6112  -48.2734 H         1 UNK         0.0600 
    212 H212       -7.3246  -25.7456  -50.6076 H         1 UNK         0.0600 
    213 H213       -5.6869  -26.3026  -50.3033 H         1 UNK         0.0600 
    214 H214       -6.0435  -24.5757  -50.3157 H         1 UNK         0.0600 
    215 H215       -6.5052  -23.3246  -47.4200 H         1 UNK         0.3000 
    216 H216       -7.6799  -21.5341  -46.8931 H         1 UNK         0.0600 
    217 H217      -10.0076  -21.6555  -46.1063 H         1 UNK         0.0600 
    218 H218       -9.0949  -22.9995  -45.4381 H         1 UNK         0.0600 
    219 H219      -10.2086  -23.2655  -46.7790 H         1 UNK         0.0600 
    220 H220       -6.8848  -21.7059  -49.3411 H         1 UNK         0.3000 
    221 H221       -9.0267  -20.6482  -51.1291 H         1 UNK         0.0600 
    222 H222       -6.7352  -22.5599  -51.8887 H         1 UNK         0.0600 
    223 H223       -8.4138  -23.0542  -51.6978 H         1 UNK         0.0600 
    224 H224       -7.9750  -21.9381  -52.9754 H         1 UNK         0.0600 
    225 H225       -7.6067  -19.7942  -53.1915 H         1 UNK         0.3000 
    226 H226       -5.1557  -18.3934  -52.3842 H         1 UNK         0.0600 
    227 H227       -6.9660  -16.8059  -51.7062 H         1 UNK         0.0600 
    228 H228       -6.0431  -16.1736  -53.0574 H         1 UNK         0.0600 
    229 H229       -7.6389  -16.8658  -53.3346 H         1 UNK         0.0600 
    230 H230       -5.6337  -20.6244  -54.0844 H         1 UNK         0.3000 
    231 H231       -4.7114  -19.5786  -56.6976 H         1 UNK         0.0600 
    232 H232       -7.1957  -19.8259  -56.8946 H         1 UNK         0.0600 
    233 H233       -7.0745  -21.5062  -56.3749 H         1 UNK         0.0600 
    234 H234       -6.3573  -20.9938  -57.8995 H         1 UNK         0.0600 
    235 H235       -3.2852  -20.7662  -54.5193 H         1 UNK         0.3000 
    236 H236       -1.9847  -22.9747  -55.9316 H         1 UNK         0.0600 
    237 H237       -3.6774  -24.2108  -54.5885 H         1 UNK         0.0600 
    238 H238       -2.0683  -24.4948  -53.9479 H         1 UNK         0.0600 
    239 H239       -3.1564  -23.3846  -53.1244 H         1 UNK         0.0600 
    240 H240       -1.0708  -20.5038  -55.8450 H         1 UNK         0.3000 
    241 H241        0.5388  -19.9900  -53.4766 H         1 UNK         0.0600 
    242 H242        2.9614  -21.9706  -55.9515 H         1 UNK         0.3800 
    243 H243        1.2254  -22.0691  -56.0803 H         1 UNK         0.3800 
    244 H244        1.1557  -17.8929  -54.4930 H         1 UNK         0.0800 
    245 H245        0.6260  -18.4079  -56.0685 H         1 UNK         0.0800 
    246 H246       -1.8187  -19.3261  -53.0741 H         1 UNK         0.0800 
    247 H247       -2.7907  -17.8924  -52.9342 H         1 UNK         0.0800 
@<TRIPOS>BOND
     1    1    2 1    
     2    1  127 1    
     3    1  128 1    
     4    1  129 1    
     5    2    3 2    
     6    2    4 am   BACKBONE|DICT|INTERRES
     7    4    5 1    
     8    4  130 1    
     9    5    6 1    
    10    5   65 1    
    11    5  131 1    
    12    6    7 1    
    13    6  132 1    
    14    6  133 1    
    15    7    8 1    
    16    8    9 1    
    17    8  134 1    
    18    8  135 1    
    19    9   10 ar   
    20    9   14 ar   
    21   10   11 ar   
    22   10  136 1    
    23   11   12 ar   
    24   11  126 1    
    25   12   13 ar   
    26   12  137 1    
    27   13   14 ar   
    28   13   15 1    
    29   14  138 1    
    30   15   16 1    
    31   15  139 1    
    32   15  140 1    
    33   16   17 1    
    34   17   18 1    
    35   17  141 1    
    36   17  142 1    
    37   18   19 1    
    38   18   67 1    
    39   18  143 1    
    40   19   20 am   BACKBONE|DICT|INTERRES
    41   19  144 1    
    42   20   21 2    
    43   20   22 1    
    44   22   23 1    
    45   22   24 1    
    46   22  145 1    
    47   23  146 1    
    48   23  147 1    
    49   23  148 1    
    50   24   25 am   BACKBONE|DICT|INTERRES
    51   24  149 1    
    52   25   26 2    
    53   25   27 1    
    54   27   28 1    
    55   27   29 1    
    56   27  150 1    
    57   28  151 1    
    58   28  152 1    
    59   28  153 1    
    60   29   30 am   BACKBONE|DICT|INTERRES
    61   29  154 1    
    62   30   31 2    
    63   30   32 1    
    64   32   33 1    
    65   32   34 1    
    66   32  155 1    
    67   33  156 1    
    68   33  157 1    
    69   33  158 1    
    70   34   35 am   BACKBONE|DICT|INTERRES
    71   34  159 1    
    72   35   36 2    
    73   35   37 1    
    74   37   38 1    
    75   37   39 1    
    76   37  160 1    
    77   38  161 1    
    78   38  162 1    
    79   38  163 1    
    80   39   40 am   BACKBONE|DICT|INTERRES
    81   39  164 1    
    82   40   41 2    
    83   40   42 1    
    84   42   43 1    
    85   42   44 1    
    86   42  165 1    
    87   43  166 1    
    88   43  167 1    
    89   43  168 1    
    90   44   45 am   BACKBONE|DICT|INTERRES
    91   44  169 1    
    92   45   46 2    
    93   45   47 1    
    94   47   48 1    
    95   47   49 1    
    96   47  170 1    
    97   48  171 1    
    98   48  172 1    
    99   48  173 1    
   100   49   50 am   BACKBONE|DICT|INTERRES
   101   49  174 1    
   102   50   51 2    
   103   50   52 1    
   104   52   53 1    
   105   52   54 1    
   106   52  175 1    
   107   53  176 1    
   108   53  177 1    
   109   53  178 1    
   110   54   55 am   BACKBONE|DICT|INTERRES
   111   54  179 1    
   112   55   56 2    
   113   55   57 1    
   114   57   58 1    
   115   57   59 1    
   116   57  180 1    
   117   58  181 1    
   118   58  182 1    
   119   58  183 1    
   120   59   60 am   BACKBONE|DICT|INTERRES
   121   59  184 1    
   122   60   61 2    
   123   60   62 1    
   124   62   63 1    
   125   62   64 1    
   126   62  185 1    
   127   63  186 1    
   128   63  187 1    
   129   63  188 1    
   130   64   65 am   BACKBONE|DICT|INTERRES
   131   64  189 1    
   132   65   66 2    
   133   67   68 2    
   134   67   69 am   BACKBONE|DICT|INTERRES
   135   69   70 1    
   136   69  190 1    
   137   70   71 1    
   138   70   72 1    
   139   70  191 1    
   140   71  192 1    
   141   71  193 1    
   142   71  194 1    
   143   72   73 2    
   144   72   74 am   BACKBONE|DICT|INTERRES
   145   74   75 1    
   146   74  195 1    
   147   75   76 1    
   148   75   77 1    
   149   75  196 1    
   150   76  197 1    
   151   76  198 1    
   152   76  199 1    
   153   77   78 2    
   154   77   79 am   BACKBONE|DICT|INTERRES
   155   79   80 1    
   156   79  200 1    
   157   80   81 1    
   158   80   82 1    
   159   80  201 1    
   160   81  202 1    
   161   81  203 1    
   162   81  204 1    
   163   82   83 2    
   164   82   84 am   BACKBONE|DICT|INTERRES
   165   84   85 1    
   166   84  205 1    
   167   85   86 1    
   168   85   87 1    
   169   85  206 1    
   170   86  207 1    
   171   86  208 1    
   172   86  209 1    
   173   87   88 2    
   174   87   89 am   BACKBONE|DICT|INTERRES
   175   89   90 1    
   176   89  210 1    
   177   90   91 1    
   178   90   92 1    
   179   90  211 1    
   180   91  212 1    
   181   91  213 1    
   182   91  214 1    
   183   92   93 2    
   184   92   94 am   BACKBONE|DICT|INTERRES
   185   94   95 1    
   186   94  215 1    
   187   95   96 1    
   188   95   97 1    
   189   95  216 1    
   190   96  217 1    
   191   96  218 1    
   192   96  219 1    
   193   97   98 2    
   194   97   99 am   BACKBONE|DICT|INTERRES
   195   99  100 1    
   196   99  220 1    
   197  100  101 1    
   198  100  102 1    
   199  100  221 1    
   200  101  222 1    
   201  101  223 1    
   202  101  224 1    
   203  102  103 2    
   204  102  104 am   BACKBONE|DICT|INTERRES
   205  104  105 1    
   206  104  225 1    
   207  105  106 1    
   208  105  107 1    
   209  105  226 1    
   210  106  227 1    
   211  106  228 1    
   212  106  229 1    
   213  107  108 2    
   214  107  109 am   BACKBONE|DICT|INTERRES
   215  109  110 1    
   216  109  230 1    
   217  110  111 1    
   218  110  112 1    
   219  110  231 1    
   220  111  232 1    
   221  111  233 1    
   222  111  234 1    
   223  112  113 2    
   224  112  114 am   BACKBONE|DICT|INTERRES
   225  114  115 1    
   226  114  235 1    
   227  115  116 1    
   228  115  117 1    
   229  115  236 1    
   230  116  237 1    
   231  116  238 1    
   232  116  239 1    
   233  117  118 2    
   234  117  119 am   BACKBONE|DICT|INTERRES
   235  119  120 1    
   236  119  240 1    
   237  120  121 1    
   238  120  124 1    
   239  120  241 1    
   240  121  122 am   BACKBONE|DICT|INTERRES
   241  121  123 2    
   242  122  242 1    
   243  122  243 1    
   244  124  125 1    
   245  124  244 1    
   246  124  245 1    
   247  125  126 1    
   248  126  246 1    
   249  126  247 1    
@<TRIPOS>SUBSTRUCTURE
     1 UNK         1 GROUP             0       ****    0 ROOT    
