@<TRIPOS>MOLECULE
3R540
247   249    1
SMALL
USER_CHARGES


@<TRIPOS>ATOM
      1 CA          4.3393   -9.2440  -49.8866 C.3       0 UNK        -0.1800 
      2 C           4.1178  -10.5822  -49.1960 C.2       0 UNK         0.5000 
      3 O           3.9162  -10.6196  -47.9825 O.2       0 UNK        -0.5000 
      4 N           4.1608  -11.6788  -49.9629 N.am      1 UNK        -0.5000 
      5 CA          3.9233  -13.0469  -49.4857 C.3       1 UNK         0.1400 
      6 C6          4.4937  -14.1008  -50.4699 C.3       23 UNK        -0.0398 
      7 S7          3.7668  -14.0280  -52.1513 S.3       23 UNK        -0.2404 
      8 C8          3.3215  -15.7660  -52.4762 C.3       23 UNK        -0.0205 
      9 C9          2.2702  -16.3029  -51.5141 C.ar      23 UNK        -0.0193 
     10 C10         0.9334  -15.9094  -51.6297 C.ar      23 UNK        -0.1150 
     11 C11        -0.0362  -16.4142  -50.7561 C.ar      23 UNK        -0.0193 
     12 C12         0.3458  -17.3231  -49.7637 C.ar      23 UNK        -0.1150 
     13 C13         1.6793  -17.7188  -49.6337 C.ar      23 UNK        -0.0193 
     14 C14         2.6343  -17.2124  -50.5177 C.ar      23 UNK        -0.1150 
     15 C15         2.1019  -18.6509  -48.5100 C.3       23 UNK        -0.0205 
     16 S16         1.8429  -20.4097  -48.9034 S.3       23 UNK        -0.2404 
     17 C17         0.0689  -20.6499  -48.5460 C.3       23 UNK        -0.0398 
     18 CA         -0.1894  -21.9504  -47.7432 C.3       11 UNK         0.1400 
     19 N           0.1581  -21.8288  -46.3219 N.am      11 UNK        -0.5000 
     20 C           0.2184  -22.8613  -45.4670 C.2       10 UNK         0.5000 
     21 O           0.0803  -24.0361  -45.8066 O.2       10 UNK        -0.5000 
     22 CA          0.4147  -22.5334  -43.9745 C.3       10 UNK         0.1400 
     23 CB          1.9023  -22.3570  -43.6348 C.3       10 UNK        -0.1800 
     24 N          -0.3458  -21.3572  -43.5458 N.am      10 UNK        -0.5000 
     25 C          -1.6855  -21.2980  -43.5157 C.2       9 UNK         0.5000 
     26 O          -2.4114  -22.2477  -43.8032 O.2       9 UNK        -0.5000 
     27 CA         -2.3296  -19.9459  -43.1525 C.3       9 UNK         0.1400 
     28 CB         -2.3790  -19.7520  -41.6304 C.3       9 UNK        -0.1800 
     29 N          -1.6500  -18.8103  -43.7748 N.am      9 UNK        -0.5000 
     30 C          -1.5543  -18.6171  -45.0979 C.2       8 UNK         0.5000 
     31 O          -2.0894  -19.3391  -45.9388 O.2       8 UNK        -0.5000 
     32 CA         -0.6410  -17.4709  -45.5622 C.3       8 UNK         0.1400 
     33 CB         -1.3795  -16.1272  -45.5684 C.3       8 UNK        -0.1800 
     34 N           0.5817  -17.3732  -44.7612 N.am      8 UNK        -0.5000 
     35 C           1.5205  -18.3294  -44.7037 C.2       7 UNK         0.5000 
     36 O           1.4660  -19.3775  -45.3449 O.2       7 UNK        -0.5000 
     37 CA          2.6772  -18.1079  -43.7174 C.3       7 UNK         0.1400 
     38 CB          3.7213  -17.1416  -44.2942 C.3       7 UNK        -0.1800 
     39 N           2.1896  -17.6213  -42.4269 N.am      7 UNK        -0.5000 
     40 C           1.5041  -18.3890  -41.5663 C.2       6 UNK         0.5000 
     41 O           1.2660  -19.5803  -41.7635 O.2       6 UNK        -0.5000 
     42 CA          0.9626  -17.7238  -40.2876 C.3       6 UNK         0.1400 
     43 CB          1.9718  -17.8698  -39.1393 C.3       6 UNK        -0.1800 
     44 N           0.6218  -16.3108  -40.4479 N.am      6 UNK        -0.5000 
     45 C          -0.2986  -15.8187  -41.2882 C.2       5 UNK         0.5000 
     46 O          -0.9643  -16.5160  -42.0555 O.2       5 UNK        -0.5000 
     47 CA         -0.4955  -14.2873  -41.2907 C.3       5 UNK         0.1400 
     48 CB          0.1596  -13.5711  -40.0888 C.3       5 UNK        -0.1800 
     49 N          -0.0515  -13.6525  -42.5351 N.am      5 UNK        -0.5000 
     50 C           1.1215  -13.7957  -43.1675 C.2       4 UNK         0.5000 
     51 O           1.9889  -14.6006  -42.8223 O.2       4 UNK        -0.5000 
     52 CA          1.3560  -12.8768  -44.3888 C.3       4 UNK         0.1400 
     53 CB          2.6817  -13.1727  -45.1114 C.3       4 UNK        -0.1800 
     54 N           0.2705  -12.9285  -45.3709 N.am      4 UNK        -0.5000 
     55 C          -0.9290  -12.3394  -45.2596 C.2       3 UNK         0.5000 
     56 O          -1.2751  -11.7087  -44.2590 O.2       3 UNK        -0.5000 
     57 CA         -1.9169  -12.5117  -46.4361 C.3       3 UNK         0.1400 
     58 CB         -2.8550  -11.2987  -46.6051 C.3       3 UNK        -0.1800 
     59 N          -1.2804  -12.8578  -47.7131 N.am      3 UNK        -0.5000 
     60 C          -0.4008  -12.1241  -48.4089 C.2       2 UNK         0.5000 
     61 O           0.0089  -11.0128  -48.0671 O.2       2 UNK        -0.5000 
     62 CA          0.0915  -12.7465  -49.7242 C.3       2 UNK         0.1400 
     63 CB         -0.6092  -12.1147  -50.9355 C.3       2 UNK        -0.1800 
     64 N           1.5349  -12.6193  -49.8745 N.am      2 UNK        -0.5000 
     65 C           2.4357  -13.3079  -49.1595 C.2       1 UNK         0.5000 
     66 O           2.1363  -14.1158  -48.2791 O.2       1 UNK        -0.5000 
     67 C          -1.6393  -22.4473  -47.9294 C.2       11 UNK         0.5000 
     68 O          -1.8649  -23.3727  -48.7092 O.2       11 UNK        -0.5000 
     69 N          -2.5914  -21.8776  -47.1780 N.am      12 UNK        -0.5000 
     70 CA         -3.9975  -22.2905  -47.1762 C.3       12 UNK         0.1400 
     71 CB         -4.8095  -21.3207  -46.3054 C.3       12 UNK        -0.1800 
     72 C          -4.2112  -23.7452  -46.7103 C.2       12 UNK         0.5000 
     73 O          -5.0822  -24.4312  -47.2440 O.2       12 UNK        -0.5000 
     74 N          -3.4011  -24.1893  -45.7411 N.am      13 UNK        -0.5000 
     75 CA         -3.4039  -25.5441  -45.1892 C.3       13 UNK         0.1400 
     76 CB         -2.7360  -25.5135  -43.8049 C.3       13 UNK        -0.1800 
     77 C          -2.7259  -26.5970  -46.0906 C.2       13 UNK         0.5000 
     78 O          -2.8544  -27.7893  -45.8045 O.2       13 UNK        -0.5000 
     79 N          -2.0082  -26.1680  -47.1394 N.am      14 UNK        -0.5000 
     80 CA         -1.3514  -27.0480  -48.1090 C.3       14 UNK         0.1400 
     81 CB         -0.3767  -26.2222  -48.9634 C.3       14 UNK        -0.1800 
     82 C          -2.3646  -27.7893  -49.0043 C.2       14 UNK         0.5000 
     83 O          -3.5365  -27.4076  -49.0665 O.2       14 UNK        -0.5000 
     84 N          -1.8846  -28.8308  -49.6977 N.am      15 UNK        -0.5000 
     85 CA         -2.6541  -29.6829  -50.6083 C.3       15 UNK         0.1400 
     86 CB         -1.7198  -30.7391  -51.2202 C.3       15 UNK        -0.1800 
     87 C          -3.3745  -28.8746  -51.7058 C.2       15 UNK         0.5000 
     88 O          -2.7136  -28.2821  -52.5609 O.2       15 UNK        -0.5000 
     89 N          -4.7119  -28.8396  -51.6170 N.am      16 UNK        -0.5000 
     90 CA         -5.6478  -28.0836  -52.4593 C.3       16 UNK         0.1400 
     91 CB         -5.5989  -28.5835  -53.9192 C.3       16 UNK        -0.1800 
     92 C          -5.5092  -26.5459  -52.3517 C.2       16 UNK         0.5000 
     93 O          -6.0082  -25.8435  -53.2315 O.2       16 UNK        -0.5000 
     94 N          -4.8753  -26.0637  -51.2693 N.am      17 UNK        -0.5000 
     95 CA         -4.5279  -24.6775  -50.9415 C.3       17 UNK         0.1400 
     96 CB         -5.7795  -23.7951  -50.7822 C.3       17 UNK        -0.1800 
     97 C          -3.5283  -24.0648  -51.9401 C.2       17 UNK         0.5000 
     98 O          -3.8855  -23.7680  -53.0828 O.2       17 UNK        -0.5000 
     99 N          -2.2900  -23.8455  -51.4825 N.am      18 UNK        -0.5000 
    100 CA        -1.2592  -23.1395  -52.2395 C.3       18 UNK         0.1400 
    101 CB         0.1047  -23.3187  -51.5576 C.3       18 UNK        -0.1800 
    102 C         -1.6239  -21.6515  -52.3678 C.2       18 UNK         0.5000 
    103 O         -2.1448  -21.0645  -51.4142 O.2       18 UNK        -0.5000 
    104 N         -1.3885  -21.0894  -53.5621 N.am      19 UNK        -0.5000 
    105 CA        -1.7048  -19.7094  -53.9558 C.3       19 UNK         0.1400 
    106 CB        -0.7347  -18.7332  -53.2633 C.3       19 UNK        -0.1800 
    107 C         -3.1921  -19.3334  -53.7496 C.2       19 UNK         0.5000 
    108 O         -3.5048  -18.1784  -53.4540 O.2       19 UNK        -0.5000 
    109 N         -4.0768  -20.3383  -53.8679 N.am      20 UNK        -0.5000 
    110 CA        -5.5286  -20.2874  -53.6621 C.3       20 UNK         0.1400 
    111 CB        -6.1992  -19.5146  -54.8167 C.3       20 UNK        -0.1800 
    112 C         -5.9407  -19.7515  -52.2723 C.2       20 UNK         0.5000 
    113 O         -6.9701  -19.0827  -52.1575 O.2       20 UNK        -0.5000 
    114 N         -5.1041  -20.0027  -51.2494 N.am      21 UNK        -0.5000 
    115 CA        -5.2255  -19.4971  -49.8729 C.3       21 UNK         0.1400 
    116 CB        -6.4631  -20.1046  -49.1742 C.3       21 UNK        -0.1800 
    117 C         -5.2103  -17.9528  -49.7793 C.2       21 UNK         0.5000 
    118 O         -5.7303  -17.3943  -48.8122 O.2       21 UNK        -0.5000 
    119 N         -4.6397  -17.2943  -50.7980 N.am      22 UNK        -0.5000 
    120 CA        -4.6521  -15.8392  -51.0179 C.3       22 UNK         0.1400 
    121 C         -6.0494  -15.2673  -51.4118 C.2       22 UNK         0.5000 
    122 N         -7.0227  -16.0845  -51.8013 N.am      22 UNK        -0.7600 
    123 O         -6.2516  -14.0560  -51.3965 O.2       22 UNK        -0.5000 
    124 C124       -3.9713  -15.0220  -49.8778 C.3       23 UNK        -0.0398 
    125 S125       -2.3195  -15.6021  -49.3442 S.3       23 UNK        -0.2404 
    126 C126       -1.4963  -16.0079  -50.9226 C.3       23 UNK        -0.0205 
    127 H127        3.4661   -8.6051  -49.7538 H         1 UNK         0.0600 
    128 H128        4.5140   -9.3632  -50.9562 H         1 UNK         0.0600 
    129 H129        5.2027   -8.7374  -49.4555 H         1 UNK         0.0600 
    130 H130        4.3396  -11.5901  -50.9536 H         1 UNK         0.3000 
    131 H131        4.4675  -13.1627  -48.5456 H         1 UNK         0.0600 
    132 H132        4.3799  -15.1003  -50.0505 H         1 UNK         0.0800 
    133 H133        5.5700  -13.9551  -50.5695 H         1 UNK         0.0800 
    134 H134        2.9425  -15.8451  -53.4961 H         1 UNK         0.0800 
    135 H135        4.2247  -16.3772  -52.4420 H         1 UNK         0.0800 
    136 H136        0.6510  -15.2122  -52.4059 H         1 UNK         0.1150 
    137 H137       -0.3982  -17.7173  -49.0878 H         1 UNK         0.1150 
    138 H138        3.6662  -17.5193  -50.4211 H         1 UNK         0.1150 
    139 H139        3.1573  -18.5007  -48.2787 H         1 UNK         0.0800 
    140 H140        1.5621  -18.3809  -47.6086 H         1 UNK         0.0800 
    141 H141       -0.4408  -20.6697  -49.5094 H         1 UNK         0.0800 
    142 H142       -0.3340  -19.7909  -48.0102 H         1 UNK         0.0800 
    143 H143        0.4500  -22.7323  -48.1589 H         1 UNK         0.0600 
    144 H144        0.3610  -20.8969  -45.9728 H         1 UNK         0.3000 
    145 H145        0.0460  -23.3869  -43.4018 H         1 UNK         0.0600 
    146 H146        2.0452  -22.1869  -42.5677 H         1 UNK         0.0600 
    147 H147        2.4692  -23.2499  -43.9004 H         1 UNK         0.0600 
    148 H148        2.3467  -21.5185  -44.1694 H         1 UNK         0.0600 
    149 H149        0.1920  -20.5503  -43.2499 H         1 UNK         0.3000 
    150 H150       -3.3561  -19.9564  -43.5240 H         1 UNK         0.0600 
    151 H151       -2.9603  -20.5445  -41.1575 H         1 UNK         0.0600 
    152 H152       -2.8455  -18.8026  -41.3667 H         1 UNK         0.0600 
    153 H153       -1.3833  -19.7712  -41.1893 H         1 UNK         0.0600 
    154 H154       -1.2210  -18.1310  -43.1532 H         1 UNK         0.3000 
    155 H155       -0.3552  -17.6873  -46.5917 H         1 UNK         0.0600 
    156 H156       -0.7821  -15.3713  -46.0743 H         1 UNK         0.0600 
    157 H157       -1.5995  -15.7735  -44.5611 H         1 UNK         0.0600 
    158 H158       -2.3252  -16.2025  -46.1071 H         1 UNK         0.0600 
    159 H159        0.6698  -16.5738  -44.1507 H         1 UNK         0.3000 
    160 H160        3.1688  -19.0702  -43.5578 H         1 UNK         0.0600 
    161 H161        3.2958  -16.1614  -44.5020 H         1 UNK         0.0600 
    162 H162        4.1288  -17.5248  -45.2305 H         1 UNK         0.0600 
    163 H163        4.5558  -17.0056  -43.6063 H         1 UNK         0.0600 
    164 H164        2.2968  -16.6307  -42.2366 H         1 UNK         0.3000 
    165 H165        0.0494  -18.2503  -40.0051 H         1 UNK         0.0600 
    166 H166        1.5643  -17.4867  -38.2036 H         1 UNK         0.0600 
    167 H167        2.2281  -18.9175  -38.9755 H         1 UNK         0.0600 
    168 H168        2.8986  -17.3337  -39.3479 H         1 UNK         0.0600 
    169 H169        1.1407  -15.6578  -39.8795 H         1 UNK         0.3000 
    170 H170       -1.5719  -14.1230  -41.2263 H         1 UNK         0.0600 
    171 H171       -0.1813  -13.9914  -39.1416 H         1 UNK         0.0600 
    172 H172        1.2482  -13.6347  -40.1149 H         1 UNK         0.0600 
    173 H173       -0.1044  -12.5135  -40.0791 H         1 UNK         0.0600 
    174 H174       -0.6945  -12.9749  -42.9349 H         1 UNK         0.3000 
    175 H175        1.4183  -11.8577  -44.0019 H         1 UNK         0.0600 
    176 H176        2.6784  -14.1641  -45.5642 H         1 UNK         0.0600 
    177 H177        2.8664  -12.4472  -45.9044 H         1 UNK         0.0600 
    178 H178        3.5284  -13.1228  -44.4257 H         1 UNK         0.0600 
    179 H179        0.4761  -13.4255  -46.2263 H         1 UNK         0.3000 
    180 H180       -2.5409  -13.3670  -46.1737 H         1 UNK         0.0600 
    181 H181       -3.5508  -11.4507  -47.4302 H         1 UNK         0.0600 
    182 H182       -2.2999  -10.3805  -46.7985 H         1 UNK         0.0600 
    183 H183       -3.4516  -11.1355  -45.7068 H         1 UNK         0.0600 
    184 H184       -1.5481  -13.7571  -48.0944 H         1 UNK         0.3000 
    185 H185       -0.1358  -13.8106  -49.7146 H         1 UNK         0.0600 
    186 H186       -0.2947  -12.5907  -51.8646 H         1 UNK         0.0600 
    187 H187       -1.6914  -12.2301  -50.8620 H         1 UNK         0.0600 
    188 H188       -0.3956  -11.0480  -51.0132 H         1 UNK         0.0600 
    189 H189        1.8679  -11.9482  -50.5497 H         1 UNK         0.3000 
    190 H190       -2.3465  -21.0913  -46.5806 H         1 UNK         0.3000 
    191 H191       -4.3602  -22.2173  -48.2030 H         1 UNK         0.0600 
    192 H192       -5.8743  -21.5509  -46.3550 H         1 UNK         0.0600 
    193 H193       -4.6797  -20.2894  -46.6334 H         1 UNK         0.0600 
    194 H194       -4.5124  -21.3747  -45.2584 H         1 UNK         0.0600 
    195 H195       -2.7657  -23.5286  -45.3049 H         1 UNK         0.3000 
    196 H196       -4.4414  -25.8569  -45.0556 H         1 UNK         0.0600 
    197 H197       -1.6958  -25.1934  -43.8703 H         1 UNK         0.0600 
    198 H198       -3.2553  -24.8316  -43.1313 H         1 UNK         0.0600 
    199 H199       -2.7482  -26.4995  -43.3388 H         1 UNK         0.0600 
    200 H200       -1.9613  -25.1744  -47.3232 H         1 UNK         0.3000 
    201 H201       -0.7775  -27.7905  -47.5508 H         1 UNK         0.0600 
    202 H202       -0.9061  -25.5785  -49.6641 H         1 UNK         0.0600 
    203 H203        0.2742  -26.8698  -49.5515 H         1 UNK         0.0600 
    204 H204        0.2644  -25.5933  -48.3449 H         1 UNK         0.0600 
    205 H205       -0.9045  -29.0564  -49.6102 H         1 UNK         0.3000 
    206 H206       -3.4021  -30.2067  -50.0096 H         1 UNK         0.0600 
    207 H207       -1.2769  -31.3699  -50.4492 H         1 UNK         0.0600 
    208 H208       -2.2649  -31.3941  -51.9011 H         1 UNK         0.0600 
    209 H209       -0.9080  -30.2803  -51.7863 H         1 UNK         0.0600 
    210 H210       -5.1423  -29.3335  -50.8470 H         1 UNK         0.3000 
    211 H211       -6.6419  -28.3134  -52.0735 H         1 UNK         0.0600 
    212 H212       -6.4094  -28.1535  -54.5085 H         1 UNK         0.0600 
    213 H213       -5.7049  -29.6671  -53.9695 H         1 UNK         0.0600 
    214 H214       -4.6630  -28.3139  -54.4091 H         1 UNK         0.0600 
    215 H215       -4.5104  -26.7409  -50.6045 H         1 UNK         0.3000 
    216 H216       -4.0415  -24.7194  -49.9652 H         1 UNK         0.0600 
    217 H217       -5.4911  -22.7847  -50.4975 H         1 UNK         0.0600 
    218 H218       -6.3535  -23.7175  -51.7055 H         1 UNK         0.0600 
    219 H219       -6.4377  -24.1803  -50.0034 H         1 UNK         0.0600 
    220 H220       -2.1058  -23.9612  -50.4894 H         1 UNK         0.3000 
    221 H221       -1.2035  -23.5825  -53.2362 H         1 UNK         0.0600 
    222 H222        0.3771  -24.3719  -51.4897 H         1 UNK         0.0600 
    223 H223        0.1111  -22.9052  -50.5508 H         1 UNK         0.0600 
    224 H224        0.8913  -22.8151  -52.1207 H         1 UNK         0.0600 
    225 H225       -0.9772  -21.6602  -54.2877 H         1 UNK         0.3000 
    226 H226       -1.5280  -19.6431  -55.0301 H         1 UNK         0.0600 
    227 H227       -0.8434  -18.7674  -52.1796 H         1 UNK         0.0600 
    228 H228        0.3020  -18.9746  -53.4973 H         1 UNK         0.0600 
    229 H229       -0.9053  -17.7051  -53.5842 H         1 UNK         0.0600 
    230 H230       -3.7077  -21.2575  -54.0718 H         1 UNK         0.3000 
    231 H231       -5.8798  -21.3196  -53.7028 H         1 UNK         0.0600 
    232 H232       -5.9329  -18.4571  -54.8019 H         1 UNK         0.0600 
    233 H233       -7.2861  -19.5799  -54.7550 H         1 UNK         0.0600 
    234 H234       -5.9069  -19.9206  -55.7850 H         1 UNK         0.0600 
    235 H235       -4.2428  -20.5002  -51.4504 H         1 UNK         0.3000 
    236 H236       -4.3368  -19.8398  -49.3406 H         1 UNK         0.0600 
    237 H237       -6.5222  -19.7916  -48.1320 H         1 UNK         0.0600 
    238 H238       -7.3929  -19.7935  -49.6502 H         1 UNK         0.0600 
    239 H239       -6.4354  -21.1924  -49.1776 H         1 UNK         0.0600 
    240 H240       -4.2622  -17.8332  -51.5697 H         1 UNK         0.3000 
    241 H241       -4.0587  -15.6888  -51.9193 H         1 UNK         0.0600 
    242 H242       -7.9150  -15.6964  -52.0624 H         1 UNK         0.3800 
    243 H243       -6.8870  -17.0894  -51.8380 H         1 UNK         0.3800 
    244 H244       -3.8602  -13.9811  -50.1857 H         1 UNK         0.0800 
    245 H245       -4.6129  -14.9997  -48.9960 H         1 UNK         0.0800 
    246 H246       -2.0188  -16.8340  -51.4021 H         1 UNK         0.0800 
    247 H247       -1.5787  -15.1502  -51.5918 H         1 UNK         0.0800 
@<TRIPOS>BOND
     1    1    2 1    
     2    1  127 1    
     3    1  128 1    
     4    1  129 1    
     5    2    3 2    
     6    2    4 am   BACKBONE|DICT|INTERRES
     7    4    5 1    
     8    4  130 1    
     9    5    6 1    
    10    5   65 1    
    11    5  131 1    
    12    6    7 1    
    13    6  132 1    
    14    6  133 1    
    15    7    8 1    
    16    8    9 1    
    17    8  134 1    
    18    8  135 1    
    19    9   10 ar   
    20    9   14 ar   
    21   10   11 ar   
    22   10  136 1    
    23   11   12 ar   
    24   11  126 1    
    25   12   13 ar   
    26   12  137 1    
    27   13   14 ar   
    28   13   15 1    
    29   14  138 1    
    30   15   16 1    
    31   15  139 1    
    32   15  140 1    
    33   16   17 1    
    34   17   18 1    
    35   17  141 1    
    36   17  142 1    
    37   18   19 1    
    38   18   67 1    
    39   18  143 1    
    40   19   20 am   BACKBONE|DICT|INTERRES
    41   19  144 1    
    42   20   21 2    
    43   20   22 1    
    44   22   23 1    
    45   22   24 1    
    46   22  145 1    
    47   23  146 1    
    48   23  147 1    
    49   23  148 1    
    50   24   25 am   BACKBONE|DICT|INTERRES
    51   24  149 1    
    52   25   26 2    
    53   25   27 1    
    54   27   28 1    
    55   27   29 1    
    56   27  150 1    
    57   28  151 1    
    58   28  152 1    
    59   28  153 1    
    60   29   30 am   BACKBONE|DICT|INTERRES
    61   29  154 1    
    62   30   31 2    
    63   30   32 1    
    64   32   33 1    
    65   32   34 1    
    66   32  155 1    
    67   33  156 1    
    68   33  157 1    
    69   33  158 1    
    70   34   35 am   BACKBONE|DICT|INTERRES
    71   34  159 1    
    72   35   36 2    
    73   35   37 1    
    74   37   38 1    
    75   37   39 1    
    76   37  160 1    
    77   38  161 1    
    78   38  162 1    
    79   38  163 1    
    80   39   40 am   BACKBONE|DICT|INTERRES
    81   39  164 1    
    82   40   41 2    
    83   40   42 1    
    84   42   43 1    
    85   42   44 1    
    86   42  165 1    
    87   43  166 1    
    88   43  167 1    
    89   43  168 1    
    90   44   45 am   BACKBONE|DICT|INTERRES
    91   44  169 1    
    92   45   46 2    
    93   45   47 1    
    94   47   48 1    
    95   47   49 1    
    96   47  170 1    
    97   48  171 1    
    98   48  172 1    
    99   48  173 1    
   100   49   50 am   BACKBONE|DICT|INTERRES
   101   49  174 1    
   102   50   51 2    
   103   50   52 1    
   104   52   53 1    
   105   52   54 1    
   106   52  175 1    
   107   53  176 1    
   108   53  177 1    
   109   53  178 1    
   110   54   55 am   BACKBONE|DICT|INTERRES
   111   54  179 1    
   112   55   56 2    
   113   55   57 1    
   114   57   58 1    
   115   57   59 1    
   116   57  180 1    
   117   58  181 1    
   118   58  182 1    
   119   58  183 1    
   120   59   60 am   BACKBONE|DICT|INTERRES
   121   59  184 1    
   122   60   61 2    
   123   60   62 1    
   124   62   63 1    
   125   62   64 1    
   126   62  185 1    
   127   63  186 1    
   128   63  187 1    
   129   63  188 1    
   130   64   65 am   BACKBONE|DICT|INTERRES
   131   64  189 1    
   132   65   66 2    
   133   67   68 2    
   134   67   69 am   BACKBONE|DICT|INTERRES
   135   69   70 1    
   136   69  190 1    
   137   70   71 1    
   138   70   72 1    
   139   70  191 1    
   140   71  192 1    
   141   71  193 1    
   142   71  194 1    
   143   72   73 2    
   144   72   74 am   BACKBONE|DICT|INTERRES
   145   74   75 1    
   146   74  195 1    
   147   75   76 1    
   148   75   77 1    
   149   75  196 1    
   150   76  197 1    
   151   76  198 1    
   152   76  199 1    
   153   77   78 2    
   154   77   79 am   BACKBONE|DICT|INTERRES
   155   79   80 1    
   156   79  200 1    
   157   80   81 1    
   158   80   82 1    
   159   80  201 1    
   160   81  202 1    
   161   81  203 1    
   162   81  204 1    
   163   82   83 2    
   164   82   84 am   BACKBONE|DICT|INTERRES
   165   84   85 1    
   166   84  205 1    
   167   85   86 1    
   168   85   87 1    
   169   85  206 1    
   170   86  207 1    
   171   86  208 1    
   172   86  209 1    
   173   87   88 2    
   174   87   89 am   BACKBONE|DICT|INTERRES
   175   89   90 1    
   176   89  210 1    
   177   90   91 1    
   178   90   92 1    
   179   90  211 1    
   180   91  212 1    
   181   91  213 1    
   182   91  214 1    
   183   92   93 2    
   184   92   94 am   BACKBONE|DICT|INTERRES
   185   94   95 1    
   186   94  215 1    
   187   95   96 1    
   188   95   97 1    
   189   95  216 1    
   190   96  217 1    
   191   96  218 1    
   192   96  219 1    
   193   97   98 2    
   194   97   99 am   BACKBONE|DICT|INTERRES
   195   99  100 1    
   196   99  220 1    
   197  100  101 1    
   198  100  102 1    
   199  100  221 1    
   200  101  222 1    
   201  101  223 1    
   202  101  224 1    
   203  102  103 2    
   204  102  104 am   BACKBONE|DICT|INTERRES
   205  104  105 1    
   206  104  225 1    
   207  105  106 1    
   208  105  107 1    
   209  105  226 1    
   210  106  227 1    
   211  106  228 1    
   212  106  229 1    
   213  107  108 2    
   214  107  109 am   BACKBONE|DICT|INTERRES
   215  109  110 1    
   216  109  230 1    
   217  110  111 1    
   218  110  112 1    
   219  110  231 1    
   220  111  232 1    
   221  111  233 1    
   222  111  234 1    
   223  112  113 2    
   224  112  114 am   BACKBONE|DICT|INTERRES
   225  114  115 1    
   226  114  235 1    
   227  115  116 1    
   228  115  117 1    
   229  115  236 1    
   230  116  237 1    
   231  116  238 1    
   232  116  239 1    
   233  117  118 2    
   234  117  119 am   BACKBONE|DICT|INTERRES
   235  119  120 1    
   236  119  240 1    
   237  120  121 1    
   238  120  124 1    
   239  120  241 1    
   240  121  122 am   BACKBONE|DICT|INTERRES
   241  121  123 2    
   242  122  242 1    
   243  122  243 1    
   244  124  125 1    
   245  124  244 1    
   246  124  245 1    
   247  125  126 1    
   248  126  246 1    
   249  126  247 1    
@<TRIPOS>SUBSTRUCTURE
     1 UNK         1 GROUP             0       ****    0 ROOT    
