@<TRIPOS>MOLECULE
3R540
247   249    1
SMALL
USER_CHARGES


@<TRIPOS>ATOM
      1 CA         -4.9021  -17.5783  -46.3829 C.3       0 UNK        -0.1800 
      2 C          -4.8488  -16.1842  -46.9936 C.2       0 UNK         0.5000 
      3 O          -5.8910  -15.5858  -47.2585 O.2       0 UNK        -0.5000 
      4 N          -3.6354  -15.6702  -47.2196 N.am      1 UNK        -0.5000 
      5 CA         -3.3645  -14.3525  -47.8070 C.3       1 UNK         0.1400 
      6 C6         -1.9473  -14.2759  -48.4327 C.3       23 UNK        -0.0398 
      7 S7         -1.6338  -15.5912  -49.6496 S.3       23 UNK        -0.2404 
      8 C8          0.0847  -15.2458  -50.1285 C.3       23 UNK        -0.0205 
      9 C9          0.8132  -16.5467  -50.4160 C.ar      23 UNK        -0.0193 
     10 C10         0.7617  -17.1281  -51.6852 C.ar      23 UNK        -0.1150 
     11 C11         1.3895  -18.3554  -51.9299 C.ar      23 UNK        -0.0193 
     12 C12         2.0806  -18.9873  -50.8894 C.ar      23 UNK        -0.1150 
     13 C13         2.1401  -18.4161  -49.6127 C.ar      23 UNK        -0.0193 
     14 C14         1.5194  -17.1849  -49.3952 C.ar      23 UNK        -0.1150 
     15 C15         2.8816  -19.0869  -48.4563 C.3       23 UNK        -0.0205 
     16 S16         2.7329  -20.9056  -48.4024 S.3       23 UNK        -0.2404 
     17 C17         0.9253  -21.1413  -48.3592 C.3       23 UNK        -0.0398 
     18 CA          0.5332  -22.4361  -47.6128 C.3       11 UNK         0.1400 
     19 N           0.7997  -22.3433  -46.1758 N.am      11 UNK        -0.5000 
     20 C           0.8984  -23.3927  -45.3505 C.2       10 UNK         0.5000 
     21 O           0.8045  -24.5630  -45.7183 O.2       10 UNK        -0.5000 
     22 CA          1.0976  -23.0743  -43.8566 C.3       10 UNK         0.1400 
     23 CB          2.5804  -22.8160  -43.5503 C.3       10 UNK        -0.1800 
     24 N           0.3048  -21.9242  -43.4165 N.am      10 UNK        -0.5000 
     25 C          -1.0345  -21.9067  -43.3658 C.2       9 UNK         0.5000 
     26 O          -1.7387  -22.8749  -43.6448 O.2       9 UNK        -0.5000 
     27 CA         -1.7045  -20.5734  -42.9904 C.3       9 UNK         0.1400 
     28 CB         -1.8807  -20.4696  -41.4691 C.3       9 UNK        -0.1800 
     29 N          -0.9894  -19.3952  -43.4874 N.am      9 UNK        -0.5000 
     30 C          -0.7732  -19.1235  -44.7850 C.2       8 UNK         0.5000 
     31 O          -1.0994  -19.8874  -45.6951 O.2       8 UNK        -0.5000 
     32 CA         -0.0579  -17.7995  -45.1260 C.3       8 UNK         0.1400 
     33 CB         -0.4428  -17.2700  -46.5190 C.3       8 UNK        -0.1800 
     34 N          -0.2293  -16.7826  -44.0852 N.am      8 UNK        -0.5000 
     35 C          -1.3610  -16.1555  -43.7288 C.2       7 UNK         0.5000 
     36 O          -2.3857  -16.1522  -44.4121 O.2       7 UNK        -0.5000 
     37 CA         -1.3587  -15.3886  -42.3886 C.3       7 UNK         0.1400 
     38 CB         -2.6044  -15.7215  -41.5420 C.3       7 UNK        -0.1800 
     39 N          -0.1266  -15.5336  -41.6006 N.am      7 UNK        -0.5000 
     40 C           0.3469  -16.6500  -41.0271 C.2       6 UNK         0.5000 
     41 O          -0.2193  -17.7413  -41.0994 O.2       6 UNK        -0.5000 
     42 CA          1.7193  -16.5324  -40.3304 C.3       6 UNK         0.1400 
     43 CB          2.2859  -17.9024  -39.9031 C.3       6 UNK        -0.1800 
     44 N           2.7148  -15.8068  -41.1303 N.am      6 UNK        -0.5000 
     45 C           3.0990  -16.0649  -42.3889 C.2       5 UNK         0.5000 
     46 O           2.5861  -16.9366  -43.0934 O.2       5 UNK        -0.5000 
     47 CA          4.2225  -15.1700  -42.9569 C.3       5 UNK         0.1400 
     48 CB          4.6629  -15.6036  -44.3673 C.3       5 UNK        -0.1800 
     49 N           3.8207  -13.7648  -43.0100 N.am      5 UNK        -0.5000 
     50 C           3.7336  -12.9228  -41.9707 C.2       4 UNK         0.5000 
     51 O           4.0586  -13.2257  -40.8216 O.2       4 UNK        -0.5000 
     52 CA          3.1469  -11.5235  -42.2552 C.3       4 UNK         0.1400 
     53 CB          4.2736  -10.4967  -42.4441 C.3       4 UNK        -0.1800 
     54 N           2.2619  -11.4862  -43.4261 N.am      4 UNK        -0.5000 
     55 C           1.1031  -12.1513  -43.5243 C.2       3 UNK         0.5000 
     56 O           0.6400  -12.8438  -42.6153 O.2       3 UNK        -0.5000 
     57 CA          0.3987  -12.0854  -44.8928 C.3       3 UNK         0.1400 
     58 CB          1.1488  -12.9555  -45.9171 C.3       3 UNK        -0.1800 
     59 N          -0.9843  -12.5528  -44.8351 N.am      3 UNK        -0.5000 
     60 C          -2.0200  -11.8949  -44.2955 C.2       2 UNK         0.5000 
     61 O          -1.9311  -10.7722  -43.7960 O.2       2 UNK        -0.5000 
     62 CA         -3.3792  -12.6334  -44.3319 C.3       2 UNK         0.1400 
     63 CB         -4.5933  -11.6856  -44.2392 C.3       2 UNK        -0.1800 
     64 N          -3.4857  -13.5480  -45.4784 N.am      2 UNK        -0.5000 
     65 C          -3.5205  -13.2115  -46.7795 C.2       1 UNK         0.5000 
     66 O          -3.6104  -12.0534  -47.1879 O.2       1 UNK        -0.5000 
     67 C          -0.9338  -22.8273  -47.8827 C.2       11 UNK         0.5000 
     68 O          -1.1930  -23.6200  -48.7873 O.2       11 UNK        -0.5000 
     69 N          -1.8648  -22.3100  -47.0679 N.am      12 UNK        -0.5000 
     70 CA         -3.2793  -22.6803  -47.0977 C.3       12 UNK         0.1400 
     71 CB         -4.0841  -21.7181  -46.2130 C.3       12 UNK        -0.1800 
     72 C          -3.5112  -24.1476  -46.6844 C.2       12 UNK         0.5000 
     73 O          -4.3020  -24.8405  -47.3245 O.2       12 UNK        -0.5000 
     74 N          -2.7884  -24.6141  -45.6559 N.am      13 UNK        -0.5000 
     75 CA         -2.7884  -26.0080  -45.2046 C.3       13 UNK         0.1400 
     76 CB         -2.0196  -26.1223  -43.8800 C.3       13 UNK        -0.1800 
     77 C          -2.2116  -26.9804  -46.2510 C.2       13 UNK         0.5000 
     78 O          -2.6787  -28.1166  -46.3458 O.2       13 UNK        -0.5000 
     79 N          -1.2419  -26.5123  -47.0482 N.am      14 UNK        -0.5000 
     80 CA         -0.6376  -27.2256  -48.1735 C.3       14 UNK         0.1400 
     81 CB          0.7431  -26.6136  -48.4708 C.3       14 UNK        -0.1800 
     82 C          -1.5626  -27.2437  -49.4107 C.2       14 UNK         0.5000 
     83 O          -1.1933  -26.7399  -50.4717 O.2       14 UNK        -0.5000 
     84 N          -2.7542  -27.8338  -49.2435 N.am      15 UNK        -0.5000 
     85 CA         -3.7847  -28.0747  -50.2593 C.3       15 UNK         0.1400 
     86 CB         -3.2958  -29.1261  -51.2781 C.3       15 UNK        -0.1800 
     87 C          -4.3161  -26.7887  -50.9295 C.2       15 UNK         0.5000 
     88 O          -4.5510  -26.7780  -52.1393 O.2       15 UNK        -0.5000 
     89 N          -4.5107  -25.7337  -50.1234 N.am      16 UNK        -0.5000 
     90 CA         -5.0557  -24.4243  -50.5007 C.3       16 UNK         0.1400 
     91 CB         -6.5267  -24.5495  -50.9518 C.3       16 UNK        -0.1800 
     92 C          -4.1851  -23.6429  -51.5061 C.2       16 UNK         0.5000 
     93 O          -4.7105  -22.8112  -52.2457 O.2       16 UNK        -0.5000 
     94 N          -2.8671  -23.8813  -51.5006 N.am      17 UNK        -0.5000 
     95 CA         -1.8874  -23.2197  -52.3642 C.3       17 UNK         0.1400 
     96 CB         -0.6770  -24.1524  -52.5442 C.3       17 UNK        -0.1800 
     97 C          -1.4879  -21.8247  -51.8348 C.2       17 UNK         0.5000 
     98 O          -0.3000  -21.5331  -51.7050 O.2       17 UNK        -0.5000 
     99 N          -2.4893  -20.9918  -51.5419 N.am      18 UNK        -0.5000 
    100 CA        -2.3771  -19.6164  -51.0695 C.3       18 UNK         0.1400 
    101 CB        -2.4801  -19.5968  -49.5331 C.3       18 UNK        -0.1800 
    102 C         -3.5009  -18.7896  -51.7136 C.2       18 UNK         0.5000 
    103 O         -4.3397  -19.3437  -52.4267 O.2       18 UNK        -0.5000 
    104 N         -3.5087  -17.4763  -51.4503 N.am      19 UNK        -0.5000 
    105 CA        -4.5395  -16.5054  -51.8460 C.3       19 UNK         0.1400 
    106 CB        -5.8327  -16.7478  -51.0411 C.3       19 UNK        -0.1800 
    107 C         -4.7794  -16.4513  -53.3707 C.2       19 UNK         0.5000 
    108 O         -5.9221  -16.3503  -53.8195 O.2       19 UNK        -0.5000 
    109 N         -3.6787  -16.5504  -54.1304 N.am      20 UNK        -0.5000 
    110 CA        -3.5931  -16.5992  -55.5948 C.3       20 UNK         0.1400 
    111 CB        -4.2160  -15.3462  -56.2456 C.3       20 UNK        -0.1800 
    112 C         -4.1082  -17.9111  -56.2287 C.2       20 UNK         0.5000 
    113 O         -4.1366  -18.0065  -57.4561 O.2       20 UNK        -0.5000 
    114 N         -4.4343  -18.9244  -55.4120 N.am      21 UNK        -0.5000 
    115 CA        -4.7475  -20.2914  -55.8463 C.3       21 UNK         0.1400 
    116 CB        -5.9162  -20.8385  -55.0097 C.3       21 UNK        -0.1800 
    117 C         -3.5019  -21.2044  -55.7826 C.2       21 UNK         0.5000 
    118 O         -3.6325  -22.4277  -55.7499 O.2       21 UNK        -0.5000 
    119 N         -2.3154  -20.5851  -55.7885 N.am      22 UNK        -0.5000 
    120 CA        -0.9471  -21.1313  -55.7201 C.3       22 UNK         0.1400 
    121 C         -0.5325  -22.1518  -56.8318 C.2       22 UNK         0.5000 
    122 N         -1.4536  -22.7924  -57.5355 N.am      22 UNK        -0.7600 
    123 O          0.6527  -22.3792  -57.0589 O.2       22 UNK        -0.5000 
    124 C124        0.0720  -19.9632  -55.6104 C.3       23 UNK        -0.0398 
    125 S125       -0.2387  -18.8747  -54.1737 S.3       23 UNK        -0.2404 
    126 C126        1.3645  -19.0056  -53.3104 C.3       23 UNK        -0.0205 
    127 H127       -3.9050  -17.9747  -46.1869 H         1 UNK         0.0600 
    128 H128       -5.4135  -18.2649  -47.0575 H         1 UNK         0.0600 
    129 H129       -5.4462  -17.5537  -45.4389 H         1 UNK         0.0600 
    130 H130       -2.8223  -16.2041  -46.9500 H         1 UNK         0.3000 
    131 H131       -4.0929  -14.1753  -48.6014 H         1 UNK         0.0600 
    132 H132       -1.1834  -14.3447  -47.6570 H         1 UNK         0.0800 
    133 H133       -1.7993  -13.3152  -48.9299 H         1 UNK         0.0800 
    134 H134        0.5981  -14.7013  -49.3345 H         1 UNK         0.0800 
    135 H135        0.0958  -14.5981  -51.0062 H         1 UNK         0.0800 
    136 H136        0.2241  -16.6275  -52.4777 H         1 UNK         0.1150 
    137 H137        2.5708  -19.9324  -51.0747 H         1 UNK         0.1150 
    138 H138        1.5755  -16.7230  -48.4207 H         1 UNK         0.1150 
    139 H139        2.5311  -18.6914  -47.5015 H         1 UNK         0.0800 
    140 H140        3.9382  -18.8266  -48.5272 H         1 UNK         0.0800 
    141 H141        0.5837  -21.1714  -49.3924 H         1 UNK         0.0800 
    142 H142        0.4493  -20.2721  -47.9041 H         1 UNK         0.0800 
    143 H143        1.1459  -23.2463  -48.0146 H         1 UNK         0.0600 
    144 H144        0.8402  -21.4135  -45.7867 H         1 UNK         0.3000 
    145 H145        0.7770  -23.9474  -43.2842 H         1 UNK         0.0600 
    146 H146        2.9551  -21.9372  -44.0767 H         1 UNK         0.0600 
    147 H147        3.1941  -23.6658  -43.8522 H         1 UNK         0.0600 
    148 H148        2.7417  -22.6628  -42.4831 H         1 UNK         0.0600 
    149 H149        0.8069  -21.0849  -43.1673 H         1 UNK         0.3000 
    150 H150       -2.6970  -20.5653  -43.4440 H         1 UNK         0.0600 
    151 H151       -0.9197  -20.4465  -40.9537 H         1 UNK         0.0600 
    152 H152       -2.4425  -21.3202  -41.0809 H         1 UNK         0.0600 
    153 H153       -2.4281  -19.5670  -41.1967 H         1 UNK         0.0600 
    154 H154       -0.6846  -18.7295  -42.7833 H         1 UNK         0.3000 
    155 H155        1.0082  -18.0289  -45.1468 H         1 UNK         0.0600 
    156 H156       -1.5195  -17.1798  -46.6307 H         1 UNK         0.0600 
    157 H157       -0.1116  -17.9579  -47.2957 H         1 UNK         0.0600 
    158 H158        0.0082  -16.2982  -46.7161 H         1 UNK         0.0600 
    159 H159        0.5739  -16.6857  -43.4728 H         1 UNK         0.3000 
    160 H160       -1.4242  -14.3345  -42.6458 H         1 UNK         0.0600 
    161 H161       -2.6645  -16.7837  -41.3035 H         1 UNK         0.0600 
    162 H162       -3.5207  -15.4593  -42.0720 H         1 UNK         0.0600 
    163 H163       -2.6042  -15.1656  -40.6045 H         1 UNK         0.0600 
    164 H164        0.4364  -14.6907  -41.5567 H         1 UNK         0.3000 
    165 H165        1.5545  -15.9438  -39.4270 H         1 UNK         0.0600 
    166 H166        1.6012  -18.4169  -39.2278 H         1 UNK         0.0600 
    167 H167        2.4531  -18.5556  -40.7605 H         1 UNK         0.0600 
    168 H168        3.2343  -17.7901  -39.3778 H         1 UNK         0.0600 
    169 H169        3.1642  -15.0204  -40.6708 H         1 UNK         0.3000 
    170 H170        5.0837  -15.2661  -42.2925 H         1 UNK         0.0600 
    171 H171        5.4931  -14.9948  -44.7256 H         1 UNK         0.0600 
    172 H172        4.9985  -16.6414  -44.3706 H         1 UNK         0.0600 
    173 H173        3.8489  -15.5189  -45.0887 H         1 UNK         0.0600 
    174 H174        3.5132  -13.4272  -43.9091 H         1 UNK         0.3000 
    175 H175        2.5602  -11.2323  -41.3814 H         1 UNK         0.0600 
    176 H176        4.9360  -10.4797  -41.5775 H         1 UNK         0.0600 
    177 H177        4.8837  -10.7245  -43.3190 H         1 UNK         0.0600 
    178 H178        3.8740   -9.4896  -42.5649 H         1 UNK         0.0600 
    179 H179        2.5837  -10.9407  -44.2129 H         1 UNK         0.3000 
    180 H180        0.4023  -11.0482  -45.2341 H         1 UNK         0.0600 
    181 H181        1.1618  -14.0062  -45.6222 H         1 UNK         0.0600 
    182 H182        2.1847  -12.6341  -46.0305 H         1 UNK         0.0600 
    183 H183        0.6876  -12.8890  -46.9025 H         1 UNK         0.0600 
    184 H184       -1.1565  -13.4739  -45.2046 H         1 UNK         0.3000 
    185 H185       -3.4037  -13.2648  -43.4438 H         1 UNK         0.0600 
    186 H186       -4.5936  -11.1474  -43.2908 H         1 UNK         0.0600 
    187 H187       -4.5927  -10.9391  -45.0335 H         1 UNK         0.0600 
    188 H188       -5.5307  -12.2387  -44.2976 H         1 UNK         0.0600 
    189 H189       -3.4044  -14.5353  -45.2549 H         1 UNK         0.3000 
    190 H190       -1.5862  -21.6075  -46.3885 H         1 UNK         0.3000 
    191 H191       -3.6275  -22.5613  -48.1253 H         1 UNK         0.0600 
    192 H192       -3.9270  -20.6814  -46.5120 H         1 UNK         0.0600 
    193 H193       -5.1527  -21.9222  -46.2888 H         1 UNK         0.0600 
    194 H194       -3.8073  -21.8097  -45.1632 H         1 UNK         0.0600 
    195 H195       -2.2174  -23.9653  -45.1207 H         1 UNK         0.3000 
    196 H196       -3.8246  -26.2995  -45.0215 H         1 UNK         0.0600 
    197 H197       -0.9821  -25.8055  -43.9883 H         1 UNK         0.0600 
    198 H198       -2.0135  -27.1512  -43.5181 H         1 UNK         0.0600 
    199 H199       -2.4780  -25.5087  -43.1045 H         1 UNK         0.0600 
    200 H200       -0.9081  -25.5705  -46.8895 H         1 UNK         0.3000 
    201 H201       -0.4765  -28.2645  -47.8787 H         1 UNK         0.0600 
    202 H202        0.6645  -25.5732  -48.7854 H         1 UNK         0.0600 
    203 H203        1.3882  -26.6496  -47.5928 H         1 UNK         0.0600 
    204 H204        1.2490  -27.1595  -49.2679 H         1 UNK         0.0600 
    205 H205       -2.9657  -28.1718  -48.3092 H         1 UNK         0.3000 
    206 H206       -4.6348  -28.5063  -49.7293 H         1 UNK         0.0600 
    207 H207       -2.9558  -30.0325  -50.7773 H         1 UNK         0.0600 
    208 H208       -4.0973  -29.4154  -51.9587 H         1 UNK         0.0600 
    209 H209       -2.4719  -28.7485  -51.8846 H         1 UNK         0.0600 
    210 H210       -4.2774  -25.8223  -49.1397 H         1 UNK         0.3000 
    211 H211       -5.0574  -23.8218  -49.5936 H         1 UNK         0.0600 
    212 H212       -7.1203  -25.0911  -50.2153 H         1 UNK         0.0600 
    213 H213       -6.9839  -23.5668  -51.0736 H         1 UNK         0.0600 
    214 H214       -6.6166  -25.0697  -51.9057 H         1 UNK         0.0600 
    215 H215       -2.4917  -24.5398  -50.8295 H         1 UNK         0.3000 
    216 H216       -2.3352  -23.0726  -53.3487 H         1 UNK         0.0600 
    217 H217       -0.1675  -24.3312  -51.5961 H         1 UNK         0.0600 
    218 H218        0.0501  -23.7256  -53.2361 H         1 UNK         0.0600 
    219 H219       -0.9806  -25.1187  -52.9473 H         1 UNK         0.0600 
    220 H220       -3.4354  -21.2823  -51.7746 H         1 UNK         0.3000 
    221 H221       -1.4209  -19.1906  -51.3775 H         1 UNK         0.0600 
    222 H222       -3.4422  -19.9775  -49.1883 H         1 UNK         0.0600 
    223 H223       -1.7015  -20.2066  -49.0816 H         1 UNK         0.0600 
    224 H224       -2.3623  -18.5883  -49.1360 H         1 UNK         0.0600 
    225 H225       -2.7699  -17.0968  -50.8699 H         1 UNK         0.3000 
    226 H226       -4.1599  -15.5218  -51.5659 H         1 UNK         0.0600 
    227 H227       -5.6328  -16.7544  -49.9698 H         1 UNK         0.0600 
    228 H228       -6.5650  -15.9615  -51.2277 H         1 UNK         0.0600 
    229 H229       -6.2982  -17.6991  -51.3010 H         1 UNK         0.0600 
    230 H230       -2.7972  -16.6518  -53.6468 H         1 UNK         0.3000 
    231 H231       -2.5253  -16.5741  -55.8170 H         1 UNK         0.0600 
    232 H232       -5.3026  -15.3384  -56.1598 H         1 UNK         0.0600 
    233 H233       -3.9769  -15.2995  -57.3086 H         1 UNK         0.0600 
    234 H234       -3.8349  -14.4327  -55.7893 H         1 UNK         0.0600 
    235 H235       -4.3860  -18.7894  -54.4068 H         1 UNK         0.3000 
    236 H236       -5.0737  -20.2820  -56.8880 H         1 UNK         0.0600 
    237 H237       -5.6420  -20.9617  -53.9630 H         1 UNK         0.0600 
    238 H238       -6.7785  -20.1732  -55.0539 H         1 UNK         0.0600 
    239 H239       -6.2391  -21.8133  -55.3769 H         1 UNK         0.0600 
    240 H240       -2.3505  -19.5785  -55.8253 H         1 UNK         0.3000 
    241 H241       -0.8879  -21.6997  -54.7926 H         1 UNK         0.0600 
    242 H242       -1.1784  -23.4509  -58.2470 H         1 UNK         0.3800 
    243 H243       -2.4245  -22.7166  -57.2544 H         1 UNK         0.3800 
    244 H244        0.0444  -19.3527  -56.5144 H         1 UNK         0.0800 
    245 H245        1.0909  -20.3477  -55.5435 H         1 UNK         0.0800 
    246 H246        2.1409  -18.5498  -53.9260 H         1 UNK         0.0800 
    247 H247        1.6154  -20.0640  -53.2190 H         1 UNK         0.0800 
@<TRIPOS>BOND
     1    1    2 1    
     2    1  127 1    
     3    1  128 1    
     4    1  129 1    
     5    2    3 2    
     6    2    4 am   BACKBONE|DICT|INTERRES
     7    4    5 1    
     8    4  130 1    
     9    5    6 1    
    10    5   65 1    
    11    5  131 1    
    12    6    7 1    
    13    6  132 1    
    14    6  133 1    
    15    7    8 1    
    16    8    9 1    
    17    8  134 1    
    18    8  135 1    
    19    9   10 ar   
    20    9   14 ar   
    21   10   11 ar   
    22   10  136 1    
    23   11   12 ar   
    24   11  126 1    
    25   12   13 ar   
    26   12  137 1    
    27   13   14 ar   
    28   13   15 1    
    29   14  138 1    
    30   15   16 1    
    31   15  139 1    
    32   15  140 1    
    33   16   17 1    
    34   17   18 1    
    35   17  141 1    
    36   17  142 1    
    37   18   19 1    
    38   18   67 1    
    39   18  143 1    
    40   19   20 am   BACKBONE|DICT|INTERRES
    41   19  144 1    
    42   20   21 2    
    43   20   22 1    
    44   22   23 1    
    45   22   24 1    
    46   22  145 1    
    47   23  146 1    
    48   23  147 1    
    49   23  148 1    
    50   24   25 am   BACKBONE|DICT|INTERRES
    51   24  149 1    
    52   25   26 2    
    53   25   27 1    
    54   27   28 1    
    55   27   29 1    
    56   27  150 1    
    57   28  151 1    
    58   28  152 1    
    59   28  153 1    
    60   29   30 am   BACKBONE|DICT|INTERRES
    61   29  154 1    
    62   30   31 2    
    63   30   32 1    
    64   32   33 1    
    65   32   34 1    
    66   32  155 1    
    67   33  156 1    
    68   33  157 1    
    69   33  158 1    
    70   34   35 am   BACKBONE|DICT|INTERRES
    71   34  159 1    
    72   35   36 2    
    73   35   37 1    
    74   37   38 1    
    75   37   39 1    
    76   37  160 1    
    77   38  161 1    
    78   38  162 1    
    79   38  163 1    
    80   39   40 am   BACKBONE|DICT|INTERRES
    81   39  164 1    
    82   40   41 2    
    83   40   42 1    
    84   42   43 1    
    85   42   44 1    
    86   42  165 1    
    87   43  166 1    
    88   43  167 1    
    89   43  168 1    
    90   44   45 am   BACKBONE|DICT|INTERRES
    91   44  169 1    
    92   45   46 2    
    93   45   47 1    
    94   47   48 1    
    95   47   49 1    
    96   47  170 1    
    97   48  171 1    
    98   48  172 1    
    99   48  173 1    
   100   49   50 am   BACKBONE|DICT|INTERRES
   101   49  174 1    
   102   50   51 2    
   103   50   52 1    
   104   52   53 1    
   105   52   54 1    
   106   52  175 1    
   107   53  176 1    
   108   53  177 1    
   109   53  178 1    
   110   54   55 am   BACKBONE|DICT|INTERRES
   111   54  179 1    
   112   55   56 2    
   113   55   57 1    
   114   57   58 1    
   115   57   59 1    
   116   57  180 1    
   117   58  181 1    
   118   58  182 1    
   119   58  183 1    
   120   59   60 am   BACKBONE|DICT|INTERRES
   121   59  184 1    
   122   60   61 2    
   123   60   62 1    
   124   62   63 1    
   125   62   64 1    
   126   62  185 1    
   127   63  186 1    
   128   63  187 1    
   129   63  188 1    
   130   64   65 am   BACKBONE|DICT|INTERRES
   131   64  189 1    
   132   65   66 2    
   133   67   68 2    
   134   67   69 am   BACKBONE|DICT|INTERRES
   135   69   70 1    
   136   69  190 1    
   137   70   71 1    
   138   70   72 1    
   139   70  191 1    
   140   71  192 1    
   141   71  193 1    
   142   71  194 1    
   143   72   73 2    
   144   72   74 am   BACKBONE|DICT|INTERRES
   145   74   75 1    
   146   74  195 1    
   147   75   76 1    
   148   75   77 1    
   149   75  196 1    
   150   76  197 1    
   151   76  198 1    
   152   76  199 1    
   153   77   78 2    
   154   77   79 am   BACKBONE|DICT|INTERRES
   155   79   80 1    
   156   79  200 1    
   157   80   81 1    
   158   80   82 1    
   159   80  201 1    
   160   81  202 1    
   161   81  203 1    
   162   81  204 1    
   163   82   83 2    
   164   82   84 am   BACKBONE|DICT|INTERRES
   165   84   85 1    
   166   84  205 1    
   167   85   86 1    
   168   85   87 1    
   169   85  206 1    
   170   86  207 1    
   171   86  208 1    
   172   86  209 1    
   173   87   88 2    
   174   87   89 am   BACKBONE|DICT|INTERRES
   175   89   90 1    
   176   89  210 1    
   177   90   91 1    
   178   90   92 1    
   179   90  211 1    
   180   91  212 1    
   181   91  213 1    
   182   91  214 1    
   183   92   93 2    
   184   92   94 am   BACKBONE|DICT|INTERRES
   185   94   95 1    
   186   94  215 1    
   187   95   96 1    
   188   95   97 1    
   189   95  216 1    
   190   96  217 1    
   191   96  218 1    
   192   96  219 1    
   193   97   98 2    
   194   97   99 am   BACKBONE|DICT|INTERRES
   195   99  100 1    
   196   99  220 1    
   197  100  101 1    
   198  100  102 1    
   199  100  221 1    
   200  101  222 1    
   201  101  223 1    
   202  101  224 1    
   203  102  103 2    
   204  102  104 am   BACKBONE|DICT|INTERRES
   205  104  105 1    
   206  104  225 1    
   207  105  106 1    
   208  105  107 1    
   209  105  226 1    
   210  106  227 1    
   211  106  228 1    
   212  106  229 1    
   213  107  108 2    
   214  107  109 am   BACKBONE|DICT|INTERRES
   215  109  110 1    
   216  109  230 1    
   217  110  111 1    
   218  110  112 1    
   219  110  231 1    
   220  111  232 1    
   221  111  233 1    
   222  111  234 1    
   223  112  113 2    
   224  112  114 am   BACKBONE|DICT|INTERRES
   225  114  115 1    
   226  114  235 1    
   227  115  116 1    
   228  115  117 1    
   229  115  236 1    
   230  116  237 1    
   231  116  238 1    
   232  116  239 1    
   233  117  118 2    
   234  117  119 am   BACKBONE|DICT|INTERRES
   235  119  120 1    
   236  119  240 1    
   237  120  121 1    
   238  120  124 1    
   239  120  241 1    
   240  121  122 am   BACKBONE|DICT|INTERRES
   241  121  123 2    
   242  122  242 1    
   243  122  243 1    
   244  124  125 1    
   245  124  244 1    
   246  124  245 1    
   247  125  126 1    
   248  126  246 1    
   249  126  247 1    
@<TRIPOS>SUBSTRUCTURE
     1 UNK         1 GROUP             0       ****    0 ROOT    
