@<TRIPOS>MOLECULE
3R540
247   249    1
SMALL
USER_CHARGES


@<TRIPOS>ATOM
      1 CA         -1.8055  -13.6166  -44.4660 C.3       0 UNK        -0.1800 
      2 C          -1.4407  -12.5099  -45.4459 C.2       0 UNK         0.5000 
      3 O          -1.6109  -11.3314  -45.1367 O.2       0 UNK        -0.5000 
      4 N          -0.9372  -12.8897  -46.6258 N.am      1 UNK        -0.5000 
      5 CA         -0.5685  -11.9844  -47.7248 C.3       1 UNK         0.1400 
      6 C6         -0.6333  -12.7081  -49.0945 C.3       23 UNK        -0.0398 
      7 S7         -2.3395  -13.1581  -49.5674 S.3       23 UNK        -0.2404 
      8 C8         -2.4896  -14.8727  -48.9730 C.3       23 UNK        -0.0205 
      9 C9         -1.7152  -15.8620  -49.8301 C.ar      23 UNK        -0.0193 
     10 C10        -2.2599  -16.3241  -51.0311 C.ar      23 UNK        -0.1150 
     11 C11        -1.5651  -17.2490  -51.8152 C.ar      23 UNK        -0.0193 
     12 C12        -0.3175  -17.7148  -51.3903 C.ar      23 UNK        -0.1150 
     13 C13         0.2405  -17.2543  -50.1948 C.ar      23 UNK        -0.0193 
     14 C14        -0.4658  -16.3330  -49.4163 C.ar      23 UNK        -0.1150 
     15 C15         1.6244  -17.7144  -49.7635 C.3       23 UNK        -0.0205 
     16 S16         1.5798  -18.7743  -48.2873 S.3       23 UNK        -0.2404 
     17 C17         0.9892  -20.3667  -48.9526 C.3       23 UNK        -0.0398 
     18 CA         -0.2068  -20.9781  -48.1806 C.3       11 UNK         0.1400 
     19 N          -0.0130  -20.9807  -46.7267 N.am      11 UNK        -0.5000 
     20 C          -0.5381  -21.8950  -45.9009 C.2       10 UNK         0.5000 
     21 O          -1.1939  -22.8639  -46.2829 O.2       10 UNK        -0.5000 
     22 CA         -0.3050  -21.6895  -44.3927 C.3       10 UNK         0.1400 
     23 CB          1.0426  -22.2926  -43.9688 C.3       10 UNK        -0.1800 
     24 N          -0.3609  -20.2892  -43.9679 N.am      10 UNK        -0.5000 
     25 C          -1.4386  -19.4982  -44.0669 C.2       9 UNK         0.5000 
     26 O          -2.4988  -19.8543  -44.5775 O.2       9 UNK        -0.5000 
     27 CA         -1.3027  -18.0599  -43.5377 C.3       9 UNK         0.1400 
     28 CB         -1.5486  -18.0007  -42.0232 C.3       9 UNK        -0.1800 
     29 N           0.0076  -17.4917  -43.8461 N.am      9 UNK        -0.5000 
     30 C           0.3654  -17.0604  -45.0624 C.2       8 UNK         0.5000 
     31 O          -0.4021  -17.0352  -46.0230 O.2       8 UNK        -0.5000 
     32 CA          1.8071  -16.5520  -45.2373 C.3       8 UNK         0.1400 
     33 CB          1.8200  -15.0235  -45.3623 C.3       8 UNK        -0.1800 
     34 N           2.6952  -16.9679  -44.1488 N.am      8 UNK        -0.5000 
     35 C           3.2671  -18.1773  -44.0807 C.2       7 UNK         0.5000 
     36 O           3.1056  -19.0584  -44.9257 O.2       7 UNK        -0.5000 
     37 CA          4.1352  -18.4682  -42.8427 C.3       7 UNK         0.1400 
     38 CB          5.4083  -17.6077  -42.8317 C.3       7 UNK        -0.1800 
     39 N           3.4331  -18.3191  -41.5654 N.am      7 UNK        -0.5000 
     40 C           2.3098  -18.9537  -41.2080 C.2       6 UNK         0.5000 
     41 O           1.6442  -19.6447  -41.9781 O.2       6 UNK        -0.5000 
     42 CA          1.8318  -18.8049  -39.7509 C.3       6 UNK         0.1400 
     43 CB          2.5246  -19.8311  -38.8349 C.3       6 UNK        -0.1800 
     44 N           1.9177  -17.4467  -39.2034 N.am      6 UNK        -0.5000 
     45 C           2.9933  -16.7137  -38.8903 C.2       5 UNK         0.5000 
     46 O           4.1550  -17.0837  -39.0698 O.2       5 UNK        -0.5000 
     47 CA          2.6978  -15.3068  -38.3277 C.3       5 UNK         0.1400 
     48 CB          3.9258  -14.6753  -37.6484 C.3       5 UNK        -0.1800 
     49 N           2.2340  -14.4070  -39.3819 N.am      5 UNK        -0.5000 
     50 C           1.0557  -14.4702  -40.0165 C.2       4 UNK         0.5000 
     51 O           0.1456  -15.2311  -39.6837 O.2       4 UNK        -0.5000 
     52 CA          0.8611  -13.5529  -41.2411 C.3       4 UNK         0.1400 
     53 CB         -0.1562  -12.4437  -40.9333 C.3       4 UNK        -0.1800 
     54 N           2.0902  -12.9362  -41.7523 N.am      4 UNK        -0.5000 
     55 C           3.1239  -13.5897  -42.2960 C.2       3 UNK         0.5000 
     56 O           3.1738  -14.8164  -42.3968 O.2       3 UNK        -0.5000 
     57 CA          4.2693  -12.7197  -42.8482 C.3       3 UNK         0.1400 
     58 CB          5.6229  -13.4474  -42.7829 C.3       3 UNK        -0.1800 
     59 N           4.0127  -12.3298  -44.2342 N.am      3 UNK        -0.5000 
     60 C           3.0782  -11.4613  -44.6421 C.2       2 UNK         0.5000 
     61 O           2.3529  -10.8303  -43.8718 O.2       2 UNK        -0.5000 
     62 CA          2.8979  -11.2729  -46.1569 C.3       2 UNK         0.1400 
     63 CB          3.9719  -11.9599  -47.0287 C.3       2 UNK        -0.1800 
     64 N           1.5738  -11.7699  -46.5131 N.am      2 UNK        -0.5000 
     65 C           0.8151  -11.3223  -47.5200 C.2       1 UNK         0.5000 
     66 O           1.1693  -10.4226  -48.2835 O.2       1 UNK        -0.5000 
     67 C          -1.5606  -20.3651  -48.5949 C.2       11 UNK         0.5000 
     68 O          -2.0726  -20.7194  -49.6559 O.2       11 UNK        -0.5000 
     69 N          -2.1383  -19.4968  -47.7521 N.am      12 UNK        -0.5000 
     70 CA         -3.4768  -18.9419  -47.9487 C.3       12 UNK         0.1400 
     71 CB         -3.6573  -17.7044  -47.0570 C.3       12 UNK        -0.1800 
     72 C          -4.5724  -19.9811  -47.6503 C.2       12 UNK         0.5000 
     73 O          -5.5392  -20.0783  -48.4078 O.2       12 UNK        -0.5000 
     74 N          -4.3947  -20.7342  -46.5532 N.am      13 UNK        -0.5000 
     75 CA         -5.2951  -21.7677  -46.0389 C.3       13 UNK         0.1400 
     76 CB         -4.6706  -22.4022  -44.7859 C.3       13 UNK        -0.1800 
     77 C          -5.6266  -22.8377  -47.0934 C.2       13 UNK         0.5000 
     78 O          -4.7545  -23.6266  -47.4646 O.2       13 UNK        -0.5000 
     79 N          -6.8689  -22.7931  -47.5980 N.am      14 UNK        -0.5000 
     80 CA         -7.4195  -23.6224  -48.6781 C.3       14 UNK         0.1400 
     81 CB         -7.6009  -25.0768  -48.1943 C.3       14 UNK        -0.1800 
     82 C          -6.6123  -23.5393  -49.9932 C.2       14 UNK         0.5000 
     83 O          -6.6015  -24.5021  -50.7612 O.2       14 UNK        -0.5000 
     84 N          -5.9068  -22.4166  -50.2061 N.am      15 UNK        -0.5000 
     85 CA         -4.9303  -22.1853  -51.2746 C.3       15 UNK         0.1400 
     86 CB         -5.6431  -22.0483  -52.6356 C.3       15 UNK        -0.1800 
     87 C          -3.8034  -23.2418  -51.2899 C.2       15 UNK         0.5000 
     88 O          -3.4293  -23.7237  -52.3605 O.2       15 UNK        -0.5000 
     89 N          -3.3230  -23.6186  -50.0944 N.am      16 UNK        -0.5000 
     90 CA         -2.3352  -24.6696  -49.8290 C.3       16 UNK         0.1400 
     91 CB         -0.9772  -24.3291  -50.4811 C.3       16 UNK        -0.1800 
     92 C          -2.8602  -26.0611  -50.2396 C.2       16 UNK         0.5000 
     93 O          -2.1218  -26.8503  -50.8284 O.2       16 UNK        -0.5000 
     94 N          -4.1496  -26.3124  -49.9644 N.am      17 UNK        -0.5000 
     95 CA         -4.9437  -27.4538  -50.4382 C.3       17 UNK         0.1400 
     96 CB         -4.4544  -28.7744  -49.8084 C.3       17 UNK        -0.1800 
     97 C          -5.0069  -27.4921  -51.9813 C.2       17 UNK         0.5000 
     98 O          -4.7307  -28.5216  -52.5987 O.2       17 UNK        -0.5000 
     99 N          -5.3324  -26.3284  -52.5607 N.am      18 UNK        -0.5000 
    100 CA        -5.4200  -25.9939  -53.9862 C.3       18 UNK         0.1400 
    101 CB        -6.4811  -26.8624  -54.6916 C.3       18 UNK        -0.1800 
    102 C         -4.0797  -25.9863  -54.7551 C.2       18 UNK         0.5000 
    103 O         -4.0915  -25.7070  -55.9549 O.2       18 UNK        -0.5000 
    104 N         -2.9505  -26.2593  -54.0860 N.am      19 UNK        -0.5000 
    105 CA        -1.6242  -26.3276  -54.7030 C.3       19 UNK         0.1400 
    106 CB        -0.6549  -27.0570  -53.7619 C.3       19 UNK        -0.1800 
    107 C         -1.0532  -24.9538  -55.1019 C.2       19 UNK         0.5000 
    108 O         -0.3060  -24.8804  -56.0786 O.2       19 UNK        -0.5000 
    109 N         -1.4029  -23.8954  -54.3567 N.am      20 UNK        -0.5000 
    110 CA        -0.9686  -22.5230  -54.6338 C.3       20 UNK         0.1400 
    111 CB        -0.8746  -21.7359  -53.3174 C.3       20 UNK        -0.1800 
    112 C         -1.8840  -21.8103  -55.6483 C.2       20 UNK         0.5000 
    113 O         -1.4551  -20.8220  -56.2447 O.2       20 UNK        -0.5000 
    114 N         -3.1054  -22.3370  -55.8419 N.am      21 UNK        -0.5000 
    115 CA        -4.1185  -21.9140  -56.8182 C.3       21 UNK         0.1400 
    116 CB        -3.6676  -22.2880  -58.2450 C.3       21 UNK        -0.1800 
    117 C         -4.5209  -20.4284  -56.6813 C.2       21 UNK         0.5000 
    118 O         -4.5855  -19.7016  -57.6746 O.2       21 UNK        -0.5000 
    119 N         -4.7642  -20.0069  -55.4350 N.am      22 UNK        -0.5000 
    120 CA        -5.0472  -18.6165  -55.0367 C.3       22 UNK         0.1400 
    121 C         -6.4182  -18.0474  -55.5087 C.2       22 UNK         0.5000 
    122 N         -7.3498  -18.8610  -55.9904 N.am      22 UNK        -0.7600 
    123 O         -6.6390  -16.8417  -55.4369 O.2       22 UNK        -0.5000 
    124 C124       -4.8772  -18.4054  -53.5076 C.3       23 UNK        -0.0398 
    125 S125       -3.3234  -19.0982  -52.8472 S.3       23 UNK        -0.2404 
    126 C126       -2.1557  -17.7355  -53.1270 C.3       23 UNK        -0.0205 
    127 H127       -2.8703  -13.5774  -44.2369 H         1 UNK         0.0600 
    128 H128       -1.2531  -13.4922  -43.5366 H         1 UNK         0.0600 
    129 H129       -1.5818  -14.6059  -44.8660 H         1 UNK         0.0600 
    130 H130       -0.8310  -13.8741  -46.8194 H         1 UNK         0.3000 
    131 H131       -1.2911  -11.1656  -47.7490 H         1 UNK         0.0600 
    132 H132        0.0106  -13.5874  -49.1046 H         1 UNK         0.0800 
    133 H133       -0.2587  -12.0587  -49.8879 H         1 UNK         0.0800 
    134 H134       -2.1692  -14.9320  -47.9338 H         1 UNK         0.0800 
    135 H135       -3.5451  -15.1484  -48.9761 H         1 UNK         0.0800 
    136 H136       -3.2264  -15.9647  -51.3555 H         1 UNK         0.1150 
    137 H137        0.2225  -18.4276  -51.9974 H         1 UNK         0.1150 
    138 H138       -0.0382  -15.9864  -48.4864 H         1 UNK         0.1150 
    139 H139        2.1367  -18.2370  -50.5727 H         1 UNK         0.0800 
    140 H140        2.2307  -16.8357  -49.5396 H         1 UNK         0.0800 
    141 H141        1.8300  -21.0597  -48.9055 H         1 UNK         0.0800 
    142 H142        0.7551  -20.2699  -50.0145 H         1 UNK         0.0800 
    143 H143       -0.2573  -22.0209  -48.4956 H         1 UNK         0.0600 
    144 H144        0.5306  -20.2193  -46.3438 H         1 UNK         0.3000 
    145 H145       -1.0976  -22.2243  -43.8653 H         1 UNK         0.0600 
    146 H146        1.1621  -22.2659  -42.8856 H         1 UNK         0.0600 
    147 H147        1.1218  -23.3355  -44.2784 H         1 UNK         0.0600 
    148 H148        1.8807  -21.7515  -44.4104 H         1 UNK         0.0600 
    149 H149        0.4586  -19.9369  -43.4810 H         1 UNK         0.3000 
    150 H150       -2.0680  -17.4503  -44.0234 H         1 UNK         0.0600 
    151 H151       -2.5556  -18.3431  -41.7816 H         1 UNK         0.0600 
    152 H152       -1.4511  -16.9827  -41.6449 H         1 UNK         0.0600 
    153 H153       -0.8509  -18.6318  -41.4747 H         1 UNK         0.0600 
    154 H154        0.7057  -17.5096  -43.1177 H         1 UNK         0.3000 
    155 H155        2.1940  -16.9563  -46.1730 H         1 UNK         0.0600 
    156 H156        1.2954  -14.7108  -46.2649 H         1 UNK         0.0600 
    157 H157        2.8399  -14.6488  -45.4341 H         1 UNK         0.0600 
    158 H158        1.3372  -14.5427  -44.5113 H         1 UNK         0.0600 
    159 H159        2.8853  -16.2810  -43.4199 H         1 UNK         0.3000 
    160 H160        4.4454  -19.5128  -42.9121 H         1 UNK         0.0600 
    161 H161        6.0982  -17.9388  -42.0554 H         1 UNK         0.0600 
    162 H162        5.1838  -16.5577  -42.6482 H         1 UNK         0.0600 
    163 H163        5.9356  -17.6717  -43.7844 H         1 UNK         0.0600 
    164 H164        3.8977  -17.7688  -40.8491 H         1 UNK         0.3000 
    165 H165        0.7682  -19.0462  -39.7493 H         1 UNK         0.0600 
    166 H166        3.6037  -19.6809  -38.7932 H         1 UNK         0.0600 
    167 H167        2.1379  -19.7760  -37.8173 H         1 UNK         0.0600 
    168 H168        2.3533  -20.8471  -39.1928 H         1 UNK         0.0600 
    169 H169        1.0254  -16.9691  -39.1208 H         1 UNK         0.3000 
    170 H170        1.9111  -15.4038  -37.5766 H         1 UNK         0.0600 
    171 H171        4.3038  -15.3172  -36.8517 H         1 UNK         0.0600 
    172 H172        4.7410  -14.5130  -38.3550 H         1 UNK         0.0600 
    173 H173        3.6763  -13.7140  -37.1988 H         1 UNK         0.0600 
    174 H174        2.9190  -13.7624  -39.7463 H         1 UNK         0.3000 
    175 H175        0.4550  -14.1807  -42.0362 H         1 UNK         0.0600 
    176 H176        0.2001  -11.7811  -40.1437 H         1 UNK         0.0600 
    177 H177       -0.3578  -11.8359  -41.8158 H         1 UNK         0.0600 
    178 H178       -1.1082  -12.8639  -40.6059 H         1 UNK         0.0600 
    179 H179        2.1040  -11.9250  -41.7780 H         1 UNK         0.3000 
    180 H180        4.3426  -11.8190  -42.2351 H         1 UNK         0.0600 
    181 H181        5.6502  -14.3118  -43.4473 H         1 UNK         0.0600 
    182 H182        5.8293  -13.8023  -41.7722 H         1 UNK         0.0600 
    183 H183        6.4396  -12.7836  -43.0669 H         1 UNK         0.0600 
    184 H184        4.5543  -12.8121  -44.9362 H         1 UNK         0.3000 
    185 H185        2.9421  -10.1971  -46.3392 H         1 UNK         0.0600 
    186 H186        4.9743  -11.6241  -46.7603 H         1 UNK         0.0600 
    187 H187        3.9419  -13.0460  -46.9388 H         1 UNK         0.0600 
    188 H188        3.8294  -11.7171  -48.0819 H         1 UNK         0.0600 
    189 H189        1.1770  -12.4533  -45.8854 H         1 UNK         0.3000 
    190 H190       -1.6577  -19.2413  -46.9014 H         1 UNK         0.3000 
    191 H191       -3.5696  -18.6277  -48.9911 H         1 UNK         0.0600 
    192 H192       -3.7135  -17.9639  -46.0001 H         1 UNK         0.0600 
    193 H193       -2.8285  -17.0107  -47.1776 H         1 UNK         0.0600 
    194 H194       -4.5741  -17.1725  -47.3125 H         1 UNK         0.0600 
    195 H195       -3.5815  -20.5392  -45.9752 H         1 UNK         0.3000 
    196 H196       -6.2202  -21.2732  -45.7368 H         1 UNK         0.0600 
    197 H197       -4.5315  -21.6634  -43.9967 H         1 UNK         0.0600 
    198 H198       -3.6982  -22.8462  -45.0027 H         1 UNK         0.0600 
    199 H199       -5.3101  -23.1895  -44.3850 H         1 UNK         0.0600 
    200 H200       -7.4896  -22.0723  -47.2561 H         1 UNK         0.3000 
    201 H201       -8.4078  -23.2206  -48.9049 H         1 UNK         0.0600 
    202 H202       -8.1261  -25.6771  -48.9381 H         1 UNK         0.0600 
    203 H203       -8.1887  -25.1156  -47.2773 H         1 UNK         0.0600 
    204 H204       -6.6442  -25.5617  -47.9985 H         1 UNK         0.0600 
    205 H205       -5.9617  -21.6784  -49.5096 H         1 UNK         0.3000 
    206 H206       -4.4475  -21.2335  -51.0508 H         1 UNK         0.0600 
    207 H207       -6.3501  -21.2195  -52.6267 H         1 UNK         0.0600 
    208 H208       -6.1934  -22.9497  -52.9011 H         1 UNK         0.0600 
    209 H209       -4.9243  -21.8602  -53.4309 H         1 UNK         0.0600 
    210 H210       -3.7373  -23.2090  -49.2647 H         1 UNK         0.3000 
    211 H211       -2.1934  -24.6892  -48.7473 H         1 UNK         0.0600 
    212 H212       -0.6869  -23.2986  -50.2878 H         1 UNK         0.0600 
    213 H213       -0.1879  -24.9738  -50.0938 H         1 UNK         0.0600 
    214 H214       -1.0016  -24.4605  -51.5622 H         1 UNK         0.0600 
    215 H215       -4.6729  -25.5818  -49.5020 H         1 UNK         0.3000 
    216 H216       -5.9647  -27.2840  -50.0931 H         1 UNK         0.0600 
    217 H217       -5.1183  -29.5986  -50.0716 H         1 UNK         0.0600 
    218 H218       -3.4533  -29.0434  -50.1461 H         1 UNK         0.0600 
    219 H219       -4.4349  -28.7080  -48.7207 H         1 UNK         0.0600 
    220 H220       -5.5734  -25.5623  -51.9357 H         1 UNK         0.3000 
    221 H221       -5.7753  -24.9642  -54.0180 H         1 UNK         0.0600 
    222 H222       -6.1711  -27.9051  -54.7628 H         1 UNK         0.0600 
    223 H223       -7.4332  -26.8293  -54.1620 H         1 UNK         0.0600 
    224 H224       -6.6647  -26.5091  -55.7069 H         1 UNK         0.0600 
    225 H225       -3.0050  -26.4471  -53.0940 H         1 UNK         0.3000 
    226 H226       -1.7118  -26.9232  -55.6142 H         1 UNK         0.0600 
    227 H227       -1.0474  -28.0289  -53.4622 H         1 UNK         0.0600 
    228 H228        0.3049  -27.2290  -54.2503 H         1 UNK         0.0600 
    229 H229       -0.4599  -26.4797  -52.8583 H         1 UNK         0.0600 
    230 H230       -2.0558  -24.0180  -53.5847 H         1 UNK         0.3000 
    231 H231        0.0334  -22.5462  -55.0677 H         1 UNK         0.0600 
    232 H232       -0.5230  -20.7187  -53.4940 H         1 UNK         0.0600 
    233 H233       -0.1754  -22.2044  -52.6253 H         1 UNK         0.0600 
    234 H234       -1.8392  -21.6619  -52.8184 H         1 UNK         0.0600 
    235 H235       -3.3346  -23.1609  -55.3042 H         1 UNK         0.3000 
    236 H236       -5.0161  -22.4935  -56.5974 H         1 UNK         0.0600 
    237 H237       -3.4315  -23.3500  -58.3157 H         1 UNK         0.0600 
    238 H238       -4.4543  -22.0823  -58.9718 H         1 UNK         0.0600 
    239 H239       -2.7835  -21.7271  -58.5500 H         1 UNK         0.0600 
    240 H240       -4.6464  -20.6608  -54.6770 H         1 UNK         0.3000 
    241 H241       -4.2921  -18.0003  -55.5285 H         1 UNK         0.0600 
    242 H242       -7.1790  -19.8507  -56.0627 H         1 UNK         0.3800 
    243 H243       -8.2316  -18.4803  -56.2964 H         1 UNK         0.3800 
    244 H244       -4.9310  -17.3454  -53.2532 H         1 UNK         0.0800 
    245 H245       -5.6989  -18.8803  -52.9696 H         1 UNK         0.0800 
    246 H246       -2.6384  -16.9064  -53.6458 H         1 UNK         0.0800 
    247 H247       -1.3653  -18.0863  -53.7923 H         1 UNK         0.0800 
@<TRIPOS>BOND
     1    1    2 1    
     2    1  127 1    
     3    1  128 1    
     4    1  129 1    
     5    2    3 2    
     6    2    4 am   BACKBONE|DICT|INTERRES
     7    4    5 1    
     8    4  130 1    
     9    5    6 1    
    10    5   65 1    
    11    5  131 1    
    12    6    7 1    
    13    6  132 1    
    14    6  133 1    
    15    7    8 1    
    16    8    9 1    
    17    8  134 1    
    18    8  135 1    
    19    9   10 ar   
    20    9   14 ar   
    21   10   11 ar   
    22   10  136 1    
    23   11   12 ar   
    24   11  126 1    
    25   12   13 ar   
    26   12  137 1    
    27   13   14 ar   
    28   13   15 1    
    29   14  138 1    
    30   15   16 1    
    31   15  139 1    
    32   15  140 1    
    33   16   17 1    
    34   17   18 1    
    35   17  141 1    
    36   17  142 1    
    37   18   19 1    
    38   18   67 1    
    39   18  143 1    
    40   19   20 am   BACKBONE|DICT|INTERRES
    41   19  144 1    
    42   20   21 2    
    43   20   22 1    
    44   22   23 1    
    45   22   24 1    
    46   22  145 1    
    47   23  146 1    
    48   23  147 1    
    49   23  148 1    
    50   24   25 am   BACKBONE|DICT|INTERRES
    51   24  149 1    
    52   25   26 2    
    53   25   27 1    
    54   27   28 1    
    55   27   29 1    
    56   27  150 1    
    57   28  151 1    
    58   28  152 1    
    59   28  153 1    
    60   29   30 am   BACKBONE|DICT|INTERRES
    61   29  154 1    
    62   30   31 2    
    63   30   32 1    
    64   32   33 1    
    65   32   34 1    
    66   32  155 1    
    67   33  156 1    
    68   33  157 1    
    69   33  158 1    
    70   34   35 am   BACKBONE|DICT|INTERRES
    71   34  159 1    
    72   35   36 2    
    73   35   37 1    
    74   37   38 1    
    75   37   39 1    
    76   37  160 1    
    77   38  161 1    
    78   38  162 1    
    79   38  163 1    
    80   39   40 am   BACKBONE|DICT|INTERRES
    81   39  164 1    
    82   40   41 2    
    83   40   42 1    
    84   42   43 1    
    85   42   44 1    
    86   42  165 1    
    87   43  166 1    
    88   43  167 1    
    89   43  168 1    
    90   44   45 am   BACKBONE|DICT|INTERRES
    91   44  169 1    
    92   45   46 2    
    93   45   47 1    
    94   47   48 1    
    95   47   49 1    
    96   47  170 1    
    97   48  171 1    
    98   48  172 1    
    99   48  173 1    
   100   49   50 am   BACKBONE|DICT|INTERRES
   101   49  174 1    
   102   50   51 2    
   103   50   52 1    
   104   52   53 1    
   105   52   54 1    
   106   52  175 1    
   107   53  176 1    
   108   53  177 1    
   109   53  178 1    
   110   54   55 am   BACKBONE|DICT|INTERRES
   111   54  179 1    
   112   55   56 2    
   113   55   57 1    
   114   57   58 1    
   115   57   59 1    
   116   57  180 1    
   117   58  181 1    
   118   58  182 1    
   119   58  183 1    
   120   59   60 am   BACKBONE|DICT|INTERRES
   121   59  184 1    
   122   60   61 2    
   123   60   62 1    
   124   62   63 1    
   125   62   64 1    
   126   62  185 1    
   127   63  186 1    
   128   63  187 1    
   129   63  188 1    
   130   64   65 am   BACKBONE|DICT|INTERRES
   131   64  189 1    
   132   65   66 2    
   133   67   68 2    
   134   67   69 am   BACKBONE|DICT|INTERRES
   135   69   70 1    
   136   69  190 1    
   137   70   71 1    
   138   70   72 1    
   139   70  191 1    
   140   71  192 1    
   141   71  193 1    
   142   71  194 1    
   143   72   73 2    
   144   72   74 am   BACKBONE|DICT|INTERRES
   145   74   75 1    
   146   74  195 1    
   147   75   76 1    
   148   75   77 1    
   149   75  196 1    
   150   76  197 1    
   151   76  198 1    
   152   76  199 1    
   153   77   78 2    
   154   77   79 am   BACKBONE|DICT|INTERRES
   155   79   80 1    
   156   79  200 1    
   157   80   81 1    
   158   80   82 1    
   159   80  201 1    
   160   81  202 1    
   161   81  203 1    
   162   81  204 1    
   163   82   83 2    
   164   82   84 am   BACKBONE|DICT|INTERRES
   165   84   85 1    
   166   84  205 1    
   167   85   86 1    
   168   85   87 1    
   169   85  206 1    
   170   86  207 1    
   171   86  208 1    
   172   86  209 1    
   173   87   88 2    
   174   87   89 am   BACKBONE|DICT|INTERRES
   175   89   90 1    
   176   89  210 1    
   177   90   91 1    
   178   90   92 1    
   179   90  211 1    
   180   91  212 1    
   181   91  213 1    
   182   91  214 1    
   183   92   93 2    
   184   92   94 am   BACKBONE|DICT|INTERRES
   185   94   95 1    
   186   94  215 1    
   187   95   96 1    
   188   95   97 1    
   189   95  216 1    
   190   96  217 1    
   191   96  218 1    
   192   96  219 1    
   193   97   98 2    
   194   97   99 am   BACKBONE|DICT|INTERRES
   195   99  100 1    
   196   99  220 1    
   197  100  101 1    
   198  100  102 1    
   199  100  221 1    
   200  101  222 1    
   201  101  223 1    
   202  101  224 1    
   203  102  103 2    
   204  102  104 am   BACKBONE|DICT|INTERRES
   205  104  105 1    
   206  104  225 1    
   207  105  106 1    
   208  105  107 1    
   209  105  226 1    
   210  106  227 1    
   211  106  228 1    
   212  106  229 1    
   213  107  108 2    
   214  107  109 am   BACKBONE|DICT|INTERRES
   215  109  110 1    
   216  109  230 1    
   217  110  111 1    
   218  110  112 1    
   219  110  231 1    
   220  111  232 1    
   221  111  233 1    
   222  111  234 1    
   223  112  113 2    
   224  112  114 am   BACKBONE|DICT|INTERRES
   225  114  115 1    
   226  114  235 1    
   227  115  116 1    
   228  115  117 1    
   229  115  236 1    
   230  116  237 1    
   231  116  238 1    
   232  116  239 1    
   233  117  118 2    
   234  117  119 am   BACKBONE|DICT|INTERRES
   235  119  120 1    
   236  119  240 1    
   237  120  121 1    
   238  120  124 1    
   239  120  241 1    
   240  121  122 am   BACKBONE|DICT|INTERRES
   241  121  123 2    
   242  122  242 1    
   243  122  243 1    
   244  124  125 1    
   245  124  244 1    
   246  124  245 1    
   247  125  126 1    
   248  126  246 1    
   249  126  247 1    
@<TRIPOS>SUBSTRUCTURE
     1 UNK         1 GROUP             0       ****    0 ROOT    
