@<TRIPOS>MOLECULE
3R540
247   249    1
SMALL
USER_CHARGES


@<TRIPOS>ATOM
      1 CA         -1.9169   -9.9380  -48.0079 C.3       0 UNK        -0.1800 
      2 C          -2.1528  -11.3312  -47.4426 C.2       0 UNK         0.5000 
      3 O          -1.1943  -12.0749  -47.2263 O.2       0 UNK        -0.5000 
      4 N          -3.4243  -11.6818  -47.2082 N.am      1 UNK        -0.5000 
      5 CA         -3.8951  -12.9756  -46.7003 C.3       1 UNK         0.1400 
      6 C6         -5.4419  -13.0547  -46.6577 C.3       23 UNK        -0.0398 
      7 S7         -6.1767  -12.8633  -48.3194 S.3       23 UNK        -0.2404 
      8 C8         -6.8489  -14.5293  -48.6486 C.3       23 UNK        -0.0205 
      9 C9         -5.8211  -15.6517  -48.5330 C.ar      23 UNK        -0.0193 
     10 C10        -4.5611  -15.5431  -49.1323 C.ar      23 UNK        -0.1150 
     11 C11        -3.6210  -16.5677  -48.9996 C.ar      23 UNK        -0.0193 
     12 C12        -3.9621  -17.7270  -48.3005 C.ar      23 UNK        -0.1150 
     13 C13        -5.2276  -17.8668  -47.7260 C.ar      23 UNK        -0.0193 
     14 C14        -6.1469  -16.8193  -47.8345 C.ar      23 UNK        -0.1150 
     15 C15        -5.6218  -19.1656  -47.0365 C.3       23 UNK        -0.0205 
     16 S16        -5.1889  -19.2062  -45.2630 S.3       23 UNK        -0.2404 
     17 C17        -3.3848  -19.4871  -45.2841 C.3       23 UNK        -0.0398 
     18 CA         -2.9889  -20.9233  -45.7144 C.3       11 UNK         0.1400 
     19 N          -1.6719  -20.9581  -46.3510 N.am      11 UNK        -0.5000 
     20 C          -1.2234  -21.9726  -47.1036 C.2       10 UNK         0.5000 
     21 O          -1.8839  -22.9768  -47.3639 O.2       10 UNK        -0.5000 
     22 CA          0.2207  -21.8637  -47.6247 C.3       10 UNK         0.1400 
     23 CB          0.2824  -20.9805  -48.8814 C.3       10 UNK        -0.1800 
     24 N           1.1493  -21.3571  -46.6123 N.am      10 UNK        -0.5000 
     25 C           1.4183  -21.9794  -45.4546 C.2       9 UNK         0.5000 
     26 O           0.9305  -23.0616  -45.1301 O.2       9 UNK        -0.5000 
     27 CA          2.3479  -21.2507  -44.4686 C.3       9 UNK         0.1400 
     28 CB          3.8178  -21.4019  -44.8872 C.3       9 UNK        -0.1800 
     29 N           2.0152  -19.8339  -44.3183 N.am      9 UNK        -0.5000 
     30 C           0.8457  -19.3739  -43.8506 C.2       8 UNK         0.5000 
     31 O          -0.0726  -20.0958  -43.4681 O.2       8 UNK        -0.5000 
     32 CA          0.6359  -17.8530  -43.8681 C.3       8 UNK         0.1400 
     33 CB          1.3734  -17.1756  -42.7044 C.3       8 UNK        -0.1800 
     34 N           1.0506  -17.2539  -45.1332 N.am      8 UNK        -0.5000 
     35 C           0.4975  -17.5245  -46.3236 C.2       7 UNK         0.5000 
     36 O          -0.4595  -18.2812  -46.4851 O.2       7 UNK        -0.5000 
     37 CA          1.1543  -16.8610  -47.5425 C.3       7 UNK         0.1400 
     38 CB          0.7111  -15.3941  -47.6688 C.3       7 UNK        -0.1800 
     39 N           2.6129  -16.9345  -47.4845 N.am      7 UNK        -0.5000 
     40 C           3.3186  -18.0740  -47.5338 C.2       6 UNK         0.5000 
     41 O           2.8168  -19.1922  -47.6491 O.2       6 UNK        -0.5000 
     42 CA          4.8419  -17.9387  -47.3650 C.3       6 UNK         0.1400 
     43 CB          5.4999  -17.5125  -48.6859 C.3       6 UNK        -0.1800 
     44 N           5.2015  -16.9887  -46.3100 N.am      6 UNK        -0.5000 
     45 C           4.9425  -17.1716  -45.0070 C.2       5 UNK         0.5000 
     46 O           4.4038  -18.1792  -44.5505 O.2       5 UNK        -0.5000 
     47 CA          5.2995  -16.0091  -44.0623 C.3       5 UNK         0.1400 
     48 CB          6.7805  -16.0715  -43.6605 C.3       5 UNK        -0.1800 
     49 N           5.0013  -14.6913  -44.6316 N.am      5 UNK        -0.5000 
     50 C           3.7732  -14.2741  -44.9639 C.2       4 UNK         0.5000 
     51 O           2.7620  -14.9719  -44.8547 O.2       4 UNK        -0.5000 
     52 CA          3.6644  -12.8675  -45.5718 C.3       4 UNK         0.1400 
     53 CB          3.8653  -12.9274  -47.0943 C.3       4 UNK        -0.1800 
     54 N           2.3468  -12.3040  -45.2907 N.am      4 UNK        -0.5000 
     55 C           2.0305  -11.6247  -44.1811 C.2       3 UNK         0.5000 
     56 O           2.8466  -11.2916  -43.3208 O.2       3 UNK        -0.5000 
     57 CA          0.5435  -11.2765  -43.9990 C.3       3 UNK         0.1400 
     58 CB          0.1764  -10.0249  -44.8095 C.3       3 UNK        -0.1800 
     59 N          -0.3184  -12.3919  -44.3956 N.am      3 UNK        -0.5000 
     60 C          -0.5642  -13.4585  -43.6193 C.2       2 UNK         0.5000 
     61 O          -0.1281  -13.5712  -42.4727 O.2       2 UNK        -0.5000 
     62 CA         -1.4210  -14.5952  -44.2214 C.3       2 UNK         0.1400 
     63 CB         -2.2395  -15.3654  -43.1645 C.3       2 UNK        -0.1800 
     64 N          -2.2682  -14.1822  -45.3434 N.am      2 UNK        -0.5000 
     65 C          -3.2764  -13.2990  -45.3264 C.2       1 UNK         0.5000 
     66 O          -3.6851  -12.7211  -44.3177 O.2       1 UNK        -0.5000 
     67 C          -3.1086  -21.9469  -44.5641 C.2       11 UNK         0.5000 
     68 O          -4.1244  -22.6365  -44.4760 O.2       11 UNK        -0.5000 
     69 N          -2.0619  -22.0753  -43.7344 N.am      12 UNK        -0.5000 
     70 CA         -1.9778  -23.0458  -42.6370 C.3       12 UNK         0.1400 
     71 CB         -0.7369  -22.7532  -41.7806 C.3       12 UNK        -0.1800 
     72 C          -1.9668  -24.5082  -43.1202 C.2       12 UNK         0.5000 
     73 O          -2.5702  -25.3668  -42.4762 O.2       12 UNK        -0.5000 
     74 N          -1.3191  -24.7570  -44.2659 N.am      13 UNK        -0.5000 
     75 CA         -1.3106  -26.0424  -44.9683 C.3       13 UNK         0.1400 
     76 CB         -0.1170  -26.0614  -45.9372 C.3       13 UNK        -0.1800 
     77 C          -2.6206  -26.3383  -45.7299 C.2       13 UNK         0.5000 
     78 O          -2.7533  -27.4285  -46.2893 O.2       13 UNK        -0.5000 
     79 N          -3.5433  -25.3656  -45.7718 N.am      14 UNK        -0.5000 
     80 CA         -4.7872  -25.2981  -46.5416 C.3       14 UNK         0.1400 
     81 CB         -5.7512  -26.4544  -46.2115 C.3       14 UNK        -0.1800 
     82 C          -4.5245  -25.1676  -48.0495 C.2       14 UNK         0.5000 
     83 O          -4.9044  -24.1554  -48.6375 O.2       14 UNK        -0.5000 
     84 N          -3.8732  -26.1832  -48.6360 N.am      15 UNK        -0.5000 
     85 CA         -3.3540  -26.2504  -50.0073 C.3       15 UNK         0.1400 
     86 CB         -2.0469  -25.4369  -50.0968 C.3       15 UNK        -0.1800 
     87 C          -4.3840  -25.8609  -51.0901 C.2       15 UNK         0.5000 
     88 O          -4.0563  -25.1125  -52.0118 O.2       15 UNK        -0.5000 
     89 N          -5.6255  -26.3444  -50.9243 N.am      16 UNK        -0.5000 
     90 CA         -6.8039  -26.0510  -51.7516 C.3       16 UNK         0.1400 
     91 CB         -6.6621  -26.6957  -53.1463 C.3       16 UNK        -0.1800 
     92 C          -7.1395  -24.5424  -51.8035 C.2       16 UNK         0.5000 
     93 O          -7.4301  -24.0067  -52.8737 O.2       16 UNK        -0.5000 
     94 N          -7.0724  -23.8952  -50.6303 N.am      17 UNK        -0.5000 
     95 CA         -7.1902  -22.4527  -50.3909 C.3       17 UNK         0.1400 
     96 CB         -8.5717  -21.9106  -50.8157 C.3       17 UNK        -0.1800 
     97 C          -6.0028  -21.6797  -50.9992 C.2       17 UNK         0.5000 
     98 O          -6.2001  -20.6853  -51.6994 O.2       17 UNK        -0.5000 
     99 N          -4.7902  -22.1751  -50.7069 N.am      18 UNK        -0.5000 
    100 CA        -3.4842  -21.6658  -51.1358 C.3       18 UNK         0.1400 
    101 CB        -3.1582  -20.3580  -50.3948 C.3       18 UNK        -0.1800 
    102 C         -3.3459  -21.5570  -52.6686 C.2       18 UNK         0.5000 
    103 O         -2.8868  -20.5357  -53.1859 O.2       18 UNK        -0.5000 
    104 N         -3.7413  -22.6331  -53.3650 N.am      19 UNK        -0.5000 
    105 CA        -3.8052  -22.7391  -54.8255 C.3       19 UNK         0.1400 
    106 CB        -4.4789  -24.0646  -55.2071 C.3       19 UNK        -0.1800 
    107 C         -2.4461  -22.6043  -55.5364 C.2       19 UNK         0.5000 
    108 O         -2.4141  -22.2364  -56.7110 O.2       19 UNK        -0.5000 
    109 N         -1.3453  -22.8409  -54.8106 N.am      20 UNK        -0.5000 
    110 CA         0.0398  -22.6260  -55.2401 C.3       20 UNK         0.1400 
    111 CB         0.9611  -23.4837  -54.3538 C.3       20 UNK        -0.1800 
    112 C          0.4478  -21.1314  -55.2416 C.2       20 UNK         0.5000 
    113 O          1.5674  -20.7988  -54.8470 O.2       20 UNK        -0.5000 
    114 N         -0.4781  -20.2540  -55.6573 N.am      21 UNK        -0.5000 
    115 CA        -0.3676  -18.7962  -55.7863 C.3       21 UNK         0.1400 
    116 CB         0.5092  -18.4486  -57.0070 C.3       21 UNK        -0.1800 
    117 C          0.0979  -18.0794  -54.4994 C.2       21 UNK         0.5000 
    118 O          0.7910  -17.0636  -54.5848 O.2       21 UNK        -0.5000 
    119 N         -0.2656  -18.6346  -53.3334 N.am      22 UNK        -0.5000 
    120 CA         0.2074  -18.2145  -52.0006 C.3       22 UNK         0.1400 
    121 C          1.7479  -18.3671  -51.7820 C.2       22 UNK         0.5000 
    122 N          2.4519  -19.1905  -52.5512 N.am      22 UNK        -0.7600 
    123 O          2.3172  -17.7532  -50.8851 O.2       22 UNK        -0.5000 
    124 C124       -0.3348  -16.8149  -51.5883 C.3       23 UNK        -0.0398 
    125 S125       -2.1449  -16.8293  -51.3407 S.3       23 UNK        -0.2404 
    126 C126       -2.2243  -16.4117  -49.5744 C.3       23 UNK        -0.0205 
    127 H127       -1.2287   -9.9871  -48.8516 H         1 UNK         0.0600 
    128 H128       -1.4815   -9.2898  -47.2483 H         1 UNK         0.0600 
    129 H129       -2.8441   -9.4812  -48.3546 H         1 UNK         0.0600 
    130 H130       -4.1560  -11.0141  -47.4050 H         1 UNK         0.3000 
    131 H131       -3.5434  -13.7310  -47.4035 H         1 UNK         0.0600 
    132 H132       -5.7681  -14.0027  -46.2261 H         1 UNK         0.0800 
    133 H133       -5.8484  -12.2743  -46.0120 H         1 UNK         0.0800 
    134 H134       -7.6831  -14.7019  -47.9666 H         1 UNK         0.0800 
    135 H135       -7.2677  -14.5448  -49.6554 H         1 UNK         0.0800 
    136 H136       -4.3017  -14.6498  -49.6831 H         1 UNK         0.1150 
    137 H137       -3.2384  -18.5230  -48.2085 H         1 UNK         0.1150 
    138 H138       -7.1255  -16.9226  -47.3869 H         1 UNK         0.1150 
    139 H139       -6.7004  -19.3053  -47.1231 H         1 UNK         0.0800 
    140 H140       -5.1796  -20.0115  -47.5626 H         1 UNK         0.0800 
    141 H141       -2.9762  -19.2468  -44.3008 H         1 UNK         0.0800 
    142 H142       -2.9506  -18.7486  -45.9546 H         1 UNK         0.0800 
    143 H143       -3.6905  -21.2533  -46.4817 H         1 UNK         0.0600 
    144 H144       -1.0769  -20.1459  -46.2167 H         1 UNK         0.3000 
    145 H145        0.5492  -22.8679  -47.9003 H         1 UNK         0.0600 
    146 H146        1.2947  -20.9358  -49.2838 H         1 UNK         0.0600 
    147 H147       -0.3602  -21.3786  -49.6670 H         1 UNK         0.0600 
    148 H148       -0.0391  -19.9590  -48.6751 H         1 UNK         0.0600 
    149 H149        1.6247  -20.4842  -46.8257 H         1 UNK         0.3000 
    150 H150        2.2265  -21.7224  -43.4914 H         1 UNK         0.0600 
    151 H151        4.0868  -22.4530  -44.9982 H         1 UNK         0.0600 
    152 H152        4.4854  -20.9727  -44.1400 H         1 UNK         0.0600 
    153 H153        4.0197  -20.9081  -45.8380 H         1 UNK         0.0600 
    154 H154        2.7375  -19.1689  -44.5805 H         1 UNK         0.3000 
    155 H155       -0.4332  -17.6689  -43.7476 H         1 UNK         0.0600 
    156 H156        1.0496  -17.5843  -41.7466 H         1 UNK         0.0600 
    157 H157        1.1778  -16.1035  -42.6838 H         1 UNK         0.0600 
    158 H158        2.4523  -17.3149  -42.7743 H         1 UNK         0.0600 
    159 H159        1.8121  -16.5810  -45.0889 H         1 UNK         0.3000 
    160 H160        0.8260  -17.4021  -48.4319 H         1 UNK         0.0600 
    161 H161        1.0853  -14.7821  -46.8495 H         1 UNK         0.0600 
    162 H162       -0.3742  -15.3071  -47.6538 H         1 UNK         0.0600 
    163 H163        1.0614  -14.9553  -48.6032 H         1 UNK         0.0600 
    164 H164        3.1079  -16.0679  -47.3453 H         1 UNK         0.3000 
    165 H165        5.2353  -18.9192  -47.0882 H         1 UNK         0.0600 
    166 H166        6.5863  -17.4960  -48.5988 H         1 UNK         0.0600 
    167 H167        5.2480  -18.2084  -49.4875 H         1 UNK         0.0600 
    168 H168        5.1715  -16.5210  -49.0002 H         1 UNK         0.0600 
    169 H169        5.6478  -16.1306  -46.5975 H         1 UNK         0.3000 
    170 H170        4.6976  -16.1242  -43.1584 H         1 UNK         0.0600 
    171 H171        7.0241  -17.0384  -43.2179 H         1 UNK         0.0600 
    172 H172        7.4388  -15.9279  -44.5183 H         1 UNK         0.0600 
    173 H173        7.0209  -15.3078  -42.9207 H         1 UNK         0.0600 
    174 H174        5.7853  -14.0678  -44.7601 H         1 UNK         0.3000 
    175 H175        4.4397  -12.2304  -45.1408 H         1 UNK         0.0600 
    176 H176        3.1202  -13.5577  -47.5799 H         1 UNK         0.0600 
    177 H177        3.7990  -11.9334  -47.5373 H         1 UNK         0.0600 
    178 H178        4.8483  -13.3277  -47.3456 H         1 UNK         0.0600 
    179 H179        1.6009  -12.5725  -45.9149 H         1 UNK         0.3000 
    180 H180        0.3729  -11.0535  -42.9435 H         1 UNK         0.0600 
    181 H181        0.3790  -10.1595  -45.8724 H         1 UNK         0.0600 
    182 H182        0.7539   -9.1625  -44.4744 H         1 UNK         0.0600 
    183 H183       -0.8786   -9.7752  -44.6948 H         1 UNK         0.0600 
    184 H184       -0.7030  -12.3649  -45.3352 H         1 UNK         0.3000 
    185 H185       -0.7027  -15.2926  -44.6460 H         1 UNK         0.0600 
    186 H186       -1.5904  -15.7979  -42.4023 H         1 UNK         0.0600 
    187 H187       -2.9531  -14.7183  -42.6541 H         1 UNK         0.0600 
    188 H188       -2.7945  -16.1866  -43.6186 H         1 UNK         0.0600 
    189 H189       -1.9927  -14.5496  -46.2423 H         1 UNK         0.3000 
    190 H190       -1.2707  -21.4420  -43.8324 H         1 UNK         0.3000 
    191 H191       -2.8612  -22.9136  -42.0090 H         1 UNK         0.0600 
    192 H192        0.1805  -22.8251  -42.3656 H         1 UNK         0.0600 
    193 H193       -0.7824  -21.7528  -41.3501 H         1 UNK         0.0600 
    194 H194       -0.6562  -23.4590  -40.9530 H         1 UNK         0.0600 
    195 H195       -0.7865  -24.0069  -44.6967 H         1 UNK         0.3000 
    196 H196       -1.1707  -26.8403  -44.2364 H         1 UNK         0.0600 
    197 H197        0.8232  -25.9049  -45.4082 H         1 UNK         0.0600 
    198 H198       -0.2071  -25.2838  -46.6971 H         1 UNK         0.0600 
    199 H199       -0.0421  -27.0190  -46.4539 H         1 UNK         0.0600 
    200 H200       -3.3154  -24.5030  -45.2934 H         1 UNK         0.3000 
    201 H201       -5.2762  -24.3743  -46.2292 H         1 UNK         0.0600 
    202 H202       -6.7059  -26.3168  -46.7204 H         1 UNK         0.0600 
    203 H203       -5.9572  -26.4980  -45.1421 H         1 UNK         0.0600 
    204 H204       -5.3606  -27.4253  -46.5158 H         1 UNK         0.0600 
    205 H205       -3.5853  -26.9390  -48.0215 H         1 UNK         0.3000 
    206 H206       -3.1044  -27.2954  -50.1950 H         1 UNK         0.0600 
    207 H207       -1.3011  -25.8206  -49.4005 H         1 UNK         0.0600 
    208 H208       -2.2108  -24.3884  -49.8527 H         1 UNK         0.0600 
    209 H209       -1.6115  -25.4848  -51.0957 H         1 UNK         0.0600 
    210 H210       -5.7903  -26.9359  -50.1219 H         1 UNK         0.3000 
    211 H211       -7.6523  -26.5280  -51.2589 H         1 UNK         0.0600 
    212 H212       -6.4949  -27.7697  -53.0663 H         1 UNK         0.0600 
    213 H213       -7.5661  -26.5529  -53.7392 H         1 UNK         0.0600 
    214 H214       -5.8310  -26.2712  -53.7083 H         1 UNK         0.0600 
    215 H215       -6.7425  -24.4224  -49.8322 H         1 UNK         0.3000 
    216 H216       -7.1123  -22.3201  -49.3106 H         1 UNK         0.0600 
    217 H217       -8.6939  -20.8744  -50.4983 H         1 UNK         0.0600 
    218 H218       -8.7080  -21.9350  -51.8970 H         1 UNK         0.0600 
    219 H219       -9.3780  -22.4864  -50.3618 H         1 UNK         0.0600 
    220 H220       -4.7599  -22.9879  -50.0952 H         1 UNK         0.3000 
    221 H221       -2.7469  -22.4039  -50.8230 H         1 UNK         0.0600 
    222 H222       -3.8674  -19.5663  -50.6383 H         1 UNK         0.0600 
    223 H223       -3.1774  -20.5156  -49.3170 H         1 UNK         0.0600 
    224 H224       -2.1645  -19.9951  -50.6511 H         1 UNK         0.0600 
    225 H225       -4.0428  -23.4570  -52.8475 H         1 UNK         0.3000 
    226 H226       -4.4357  -21.9225  -55.1825 H         1 UNK         0.0600 
    227 H227       -5.4907  -24.1178  -54.8065 H         1 UNK         0.0600 
    228 H228       -4.5547  -24.1712  -56.2900 H         1 UNK         0.0600 
    229 H229       -3.9205  -24.9220  -54.8294 H         1 UNK         0.0600 
    230 H230       -1.4770  -23.1164  -53.8488 H         1 UNK         0.3000 
    231 H231        0.1414  -22.9810  -56.2676 H         1 UNK         0.0600 
    232 H232        1.9977  -23.4229  -54.6880 H         1 UNK         0.0600 
    233 H233        0.6747  -24.5351  -54.3878 H         1 UNK         0.0600 
    234 H234        0.9309  -23.1605  -53.3125 H         1 UNK         0.0600 
    235 H235       -1.3599  -20.6487  -55.9636 H         1 UNK         0.3000 
    236 H236       -1.3756  -18.4302  -55.9859 H         1 UNK         0.0600 
    237 H237        0.1463  -18.9448  -57.9071 H         1 UNK         0.0600 
    238 H238        0.5021  -17.3763  -57.2060 H         1 UNK         0.0600 
    239 H239        1.5466  -18.7482  -56.8540 H         1 UNK         0.0600 
    240 H240       -0.8817  -19.4378  -53.3561 H         1 UNK         0.3000 
    241 H241       -0.2127  -18.9376  -51.3027 H         1 UNK         0.0600 
    242 H242        3.4415  -19.2810  -52.3898 H         1 UNK         0.3800 
    243 H243        2.0238  -19.7024  -53.3173 H         1 UNK         0.3800 
    244 H244        0.1377  -16.4685  -50.6687 H         1 UNK         0.0800 
    245 H245       -0.0891  -16.0623  -52.3374 H         1 UNK         0.0800 
    246 H246       -1.5325  -17.0502  -49.0237 H         1 UNK         0.0800 
    247 H247       -1.8855  -15.3838  -49.4397 H         1 UNK         0.0800 
@<TRIPOS>BOND
     1    1    2 1    
     2    1  127 1    
     3    1  128 1    
     4    1  129 1    
     5    2    3 2    
     6    2    4 am   BACKBONE|DICT|INTERRES
     7    4    5 1    
     8    4  130 1    
     9    5    6 1    
    10    5   65 1    
    11    5  131 1    
    12    6    7 1    
    13    6  132 1    
    14    6  133 1    
    15    7    8 1    
    16    8    9 1    
    17    8  134 1    
    18    8  135 1    
    19    9   10 ar   
    20    9   14 ar   
    21   10   11 ar   
    22   10  136 1    
    23   11   12 ar   
    24   11  126 1    
    25   12   13 ar   
    26   12  137 1    
    27   13   14 ar   
    28   13   15 1    
    29   14  138 1    
    30   15   16 1    
    31   15  139 1    
    32   15  140 1    
    33   16   17 1    
    34   17   18 1    
    35   17  141 1    
    36   17  142 1    
    37   18   19 1    
    38   18   67 1    
    39   18  143 1    
    40   19   20 am   BACKBONE|DICT|INTERRES
    41   19  144 1    
    42   20   21 2    
    43   20   22 1    
    44   22   23 1    
    45   22   24 1    
    46   22  145 1    
    47   23  146 1    
    48   23  147 1    
    49   23  148 1    
    50   24   25 am   BACKBONE|DICT|INTERRES
    51   24  149 1    
    52   25   26 2    
    53   25   27 1    
    54   27   28 1    
    55   27   29 1    
    56   27  150 1    
    57   28  151 1    
    58   28  152 1    
    59   28  153 1    
    60   29   30 am   BACKBONE|DICT|INTERRES
    61   29  154 1    
    62   30   31 2    
    63   30   32 1    
    64   32   33 1    
    65   32   34 1    
    66   32  155 1    
    67   33  156 1    
    68   33  157 1    
    69   33  158 1    
    70   34   35 am   BACKBONE|DICT|INTERRES
    71   34  159 1    
    72   35   36 2    
    73   35   37 1    
    74   37   38 1    
    75   37   39 1    
    76   37  160 1    
    77   38  161 1    
    78   38  162 1    
    79   38  163 1    
    80   39   40 am   BACKBONE|DICT|INTERRES
    81   39  164 1    
    82   40   41 2    
    83   40   42 1    
    84   42   43 1    
    85   42   44 1    
    86   42  165 1    
    87   43  166 1    
    88   43  167 1    
    89   43  168 1    
    90   44   45 am   BACKBONE|DICT|INTERRES
    91   44  169 1    
    92   45   46 2    
    93   45   47 1    
    94   47   48 1    
    95   47   49 1    
    96   47  170 1    
    97   48  171 1    
    98   48  172 1    
    99   48  173 1    
   100   49   50 am   BACKBONE|DICT|INTERRES
   101   49  174 1    
   102   50   51 2    
   103   50   52 1    
   104   52   53 1    
   105   52   54 1    
   106   52  175 1    
   107   53  176 1    
   108   53  177 1    
   109   53  178 1    
   110   54   55 am   BACKBONE|DICT|INTERRES
   111   54  179 1    
   112   55   56 2    
   113   55   57 1    
   114   57   58 1    
   115   57   59 1    
   116   57  180 1    
   117   58  181 1    
   118   58  182 1    
   119   58  183 1    
   120   59   60 am   BACKBONE|DICT|INTERRES
   121   59  184 1    
   122   60   61 2    
   123   60   62 1    
   124   62   63 1    
   125   62   64 1    
   126   62  185 1    
   127   63  186 1    
   128   63  187 1    
   129   63  188 1    
   130   64   65 am   BACKBONE|DICT|INTERRES
   131   64  189 1    
   132   65   66 2    
   133   67   68 2    
   134   67   69 am   BACKBONE|DICT|INTERRES
   135   69   70 1    
   136   69  190 1    
   137   70   71 1    
   138   70   72 1    
   139   70  191 1    
   140   71  192 1    
   141   71  193 1    
   142   71  194 1    
   143   72   73 2    
   144   72   74 am   BACKBONE|DICT|INTERRES
   145   74   75 1    
   146   74  195 1    
   147   75   76 1    
   148   75   77 1    
   149   75  196 1    
   150   76  197 1    
   151   76  198 1    
   152   76  199 1    
   153   77   78 2    
   154   77   79 am   BACKBONE|DICT|INTERRES
   155   79   80 1    
   156   79  200 1    
   157   80   81 1    
   158   80   82 1    
   159   80  201 1    
   160   81  202 1    
   161   81  203 1    
   162   81  204 1    
   163   82   83 2    
   164   82   84 am   BACKBONE|DICT|INTERRES
   165   84   85 1    
   166   84  205 1    
   167   85   86 1    
   168   85   87 1    
   169   85  206 1    
   170   86  207 1    
   171   86  208 1    
   172   86  209 1    
   173   87   88 2    
   174   87   89 am   BACKBONE|DICT|INTERRES
   175   89   90 1    
   176   89  210 1    
   177   90   91 1    
   178   90   92 1    
   179   90  211 1    
   180   91  212 1    
   181   91  213 1    
   182   91  214 1    
   183   92   93 2    
   184   92   94 am   BACKBONE|DICT|INTERRES
   185   94   95 1    
   186   94  215 1    
   187   95   96 1    
   188   95   97 1    
   189   95  216 1    
   190   96  217 1    
   191   96  218 1    
   192   96  219 1    
   193   97   98 2    
   194   97   99 am   BACKBONE|DICT|INTERRES
   195   99  100 1    
   196   99  220 1    
   197  100  101 1    
   198  100  102 1    
   199  100  221 1    
   200  101  222 1    
   201  101  223 1    
   202  101  224 1    
   203  102  103 2    
   204  102  104 am   BACKBONE|DICT|INTERRES
   205  104  105 1    
   206  104  225 1    
   207  105  106 1    
   208  105  107 1    
   209  105  226 1    
   210  106  227 1    
   211  106  228 1    
   212  106  229 1    
   213  107  108 2    
   214  107  109 am   BACKBONE|DICT|INTERRES
   215  109  110 1    
   216  109  230 1    
   217  110  111 1    
   218  110  112 1    
   219  110  231 1    
   220  111  232 1    
   221  111  233 1    
   222  111  234 1    
   223  112  113 2    
   224  112  114 am   BACKBONE|DICT|INTERRES
   225  114  115 1    
   226  114  235 1    
   227  115  116 1    
   228  115  117 1    
   229  115  236 1    
   230  116  237 1    
   231  116  238 1    
   232  116  239 1    
   233  117  118 2    
   234  117  119 am   BACKBONE|DICT|INTERRES
   235  119  120 1    
   236  119  240 1    
   237  120  121 1    
   238  120  124 1    
   239  120  241 1    
   240  121  122 am   BACKBONE|DICT|INTERRES
   241  121  123 2    
   242  122  242 1    
   243  122  243 1    
   244  124  125 1    
   245  124  244 1    
   246  124  245 1    
   247  125  126 1    
   248  126  246 1    
   249  126  247 1    
@<TRIPOS>SUBSTRUCTURE
     1 UNK         1 GROUP             0       ****    0 ROOT    
