@<TRIPOS>MOLECULE
3R540
247   249    1
SMALL
USER_CHARGES


@<TRIPOS>ATOM
      1 CA         -0.5063  -16.3119  -47.5323 C.3       0 UNK        -0.1800 
      2 C          -0.5857  -14.9716  -48.2444 C.2       0 UNK         0.5000 
      3 O          -1.3088  -14.0836  -47.7947 O.2       0 UNK        -0.5000 
      4 N           0.1754  -14.8063  -49.3353 N.am      1 UNK        -0.5000 
      5 CA          0.2011  -13.5971  -50.1778 C.3       1 UNK         0.1400 
      6 C6          0.9924  -13.8055  -51.4928 C.3       23 UNK        -0.0398 
      7 S7          0.3831  -15.2350  -52.4487 S.3       23 UNK        -0.2404 
      8 C8          1.8161  -16.3558  -52.4107 C.3       23 UNK        -0.0205 
      9 C9          1.3650  -17.8061  -52.3918 C.ar      23 UNK        -0.0193 
     10 C10         0.8940  -18.4145  -53.5569 C.ar      23 UNK        -0.1150 
     11 C11         0.4492  -19.7425  -53.5407 C.ar      23 UNK        -0.0193 
     12 C12         0.5131  -20.4647  -52.3433 C.ar      23 UNK        -0.1150 
     13 C13         1.0029  -19.8756  -51.1726 C.ar      23 UNK        -0.0193 
     14 C14         1.4242  -18.5426  -51.2075 C.ar      23 UNK        -0.1150 
     15 C15         1.1411  -20.7049  -49.8992 C.3       23 UNK        -0.0205 
     16 S16         0.6570  -19.8123  -48.3816 S.3       23 UNK        -0.2404 
     17 C17        -0.8530  -20.6963  -47.8734 C.3       23 UNK        -0.0398 
     18 CA         -0.5245  -21.9884  -47.0908 C.3       11 UNK         0.1400 
     19 N           0.2329  -21.7494  -45.8559 N.am      11 UNK        -0.5000 
     20 C           0.8558  -22.7128  -45.1616 C.2       10 UNK         0.5000 
     21 O           0.8201  -23.9037  -45.4705 O.2       10 UNK        -0.5000 
     22 CA          1.5943  -22.2925  -43.8807 C.3       10 UNK         0.1400 
     23 CB          2.8898  -21.5332  -44.2048 C.3       10 UNK        -0.1800 
     24 N           0.7423  -21.4950  -43.0009 N.am      10 UNK        -0.5000 
     25 C          -0.3462  -21.9719  -42.3799 C.2       9 UNK         0.5000 
     26 O          -0.6954  -23.1519  -42.4267 O.2       9 UNK        -0.5000 
     27 CA         -1.2080  -20.9628  -41.5987 C.3       9 UNK         0.1400 
     28 CB         -0.6726  -20.7906  -40.1696 C.3       9 UNK        -0.1800 
     29 N          -1.3013  -19.6548  -42.2501 N.am      9 UNK        -0.5000 
     30 C          -1.8614  -19.4376  -43.4493 C.2       8 UNK         0.5000 
     31 O          -2.3868  -20.3179  -44.1286 O.2       8 UNK        -0.5000 
     32 CA         -1.7640  -18.0100  -44.0163 C.3       8 UNK         0.1400 
     33 CB         -2.7958  -17.0794  -43.3627 C.3       8 UNK        -0.1800 
     34 N          -0.4256  -17.4410  -43.8694 N.am      8 UNK        -0.5000 
     35 C           0.6825  -17.9605  -44.4162 C.2       7 UNK         0.5000 
     36 O           0.6888  -18.9616  -45.1305 O.2       7 UNK        -0.5000 
     37 CA          2.0100  -17.2749  -44.0581 C.3       7 UNK         0.1400 
     38 CB          2.2092  -15.9886  -44.8769 C.3       7 UNK        -0.1800 
     39 N           2.0876  -16.9767  -42.6277 N.am      7 UNK        -0.5000 
     40 C           2.1903  -17.9094  -41.6692 C.2       6 UNK         0.5000 
     41 O           2.2753  -19.1163  -41.8946 O.2       6 UNK        -0.5000 
     42 CA          2.1540  -17.4115  -40.2131 C.3       6 UNK         0.1400 
     43 CB          3.5458  -16.9401  -39.7663 C.3       6 UNK        -0.1800 
     44 N           1.1877  -16.3309  -40.0115 N.am      6 UNK        -0.5000 
     45 C          -0.1414  -16.4738  -40.1143 C.2       5 UNK         0.5000 
     46 O          -0.6980  -17.5415  -40.3649 O.2       5 UNK        -0.5000 
     47 CA         -0.9863  -15.1958  -39.9622 C.3       5 UNK         0.1400 
     48 CB         -1.2785  -14.9126  -38.4812 C.3       5 UNK        -0.1800 
     49 N          -0.3628  -14.0175  -40.5719 N.am      5 UNK        -0.5000 
     50 C          -0.0896  -13.8987  -41.8772 C.2       4 UNK         0.5000 
     51 O          -0.3043  -14.7875  -42.7054 O.2       4 UNK        -0.5000 
     52 CA          0.5921  -12.5958  -42.3216 C.3       4 UNK         0.1400 
     53 CB          2.1196  -12.7641  -42.3132 C.3       4 UNK        -0.1800 
     54 N           0.1674  -12.2336  -43.6698 N.am      4 UNK        -0.5000 
     55 C          -0.9973  -11.6500  -43.9794 C.2       3 UNK         0.5000 
     56 O          -1.8116  -11.2774  -43.1327 O.2       3 UNK        -0.5000 
     57 CA         -1.3207  -11.4734  -45.4801 C.3       3 UNK         0.1400 
     58 CB         -1.9889  -10.1165  -45.7852 C.3       3 UNK        -0.1800 
     59 N          -0.1829  -11.7197  -46.3771 N.am      3 UNK        -0.5000 
     60 C           0.9466  -11.0016  -46.4989 C.2       2 UNK         0.5000 
     61 O           1.1793   -9.9770  -45.8575 O.2       2 UNK        -0.5000 
     62 CA          2.0230  -11.5331  -47.4697 C.3       2 UNK         0.1400 
     63 CB          3.2083  -12.1128  -46.6798 C.3       2 UNK        -0.1800 
     64 N           1.5283  -12.5645  -48.3827 N.am      2 UNK        -0.5000 
     65 C           0.7255  -12.3478  -49.4343 C.2       1 UNK         0.5000 
     66 O           0.3798  -11.2265  -49.8081 O.2       1 UNK        -0.5000 
     67 C          -1.7925  -22.8328  -46.8617 C.2       11 UNK         0.5000 
     68 O          -2.1755  -23.5807  -47.7617 O.2       11 UNK        -0.5000 
     69 N          -2.3998  -22.7519  -45.6687 N.am      12 UNK        -0.5000 
     70 CA         -3.5118  -23.6060  -45.2407 C.3       12 UNK         0.1400 
     71 CB         -4.0255  -23.1563  -43.8657 C.3       12 UNK        -0.1800 
     72 C          -3.1613  -25.1058  -45.2303 C.2       12 UNK         0.5000 
     73 O          -4.0249  -25.9270  -45.5382 O.2       12 UNK        -0.5000 
     74 N          -1.9020  -25.4299  -44.9117 N.am      13 UNK        -0.5000 
     75 CA         -1.3668  -26.7864  -44.9602 C.3       13 UNK         0.1400 
     76 CB         -0.2952  -26.9462  -43.8695 C.3       13 UNK        -0.1800 
     77 C          -0.7898  -27.1140  -46.3481 C.2       13 UNK         0.5000 
     78 O          -1.1176  -28.1583  -46.9118 O.2       13 UNK        -0.5000 
     79 N           0.0749  -26.2299  -46.8635 N.am      14 UNK        -0.5000 
     80 CA          0.8958  -26.4718  -48.0508 C.3       14 UNK         0.1400 
     81 CB          2.0697  -25.4798  -48.0567 C.3       14 UNK        -0.1800 
     82 C           0.1335  -26.3925  -49.3843 C.2       14 UNK         0.5000 
     83 O           0.4989  -27.1030  -50.3219 O.2       14 UNK        -0.5000 
     84 N          -0.8799  -25.5220  -49.4612 N.am      15 UNK        -0.5000 
     85 CA         -1.6084  -25.2015  -50.6911 C.3       15 UNK         0.1400 
     86 CB         -1.2003  -23.7881  -51.1476 C.3       15 UNK        -0.1800 
     87 C          -3.1319  -25.3089  -50.5128 C.2       15 UNK         0.5000 
     88 O          -3.8677  -24.8397  -51.3795 O.2       15 UNK        -0.5000 
     89 N          -3.5930  -25.8779  -49.3879 N.am      16 UNK        -0.5000 
     90 CA         -5.0027  -25.9940  -48.9857 C.3       16 UNK         0.1400 
     91 CB         -5.7402  -27.0075  -49.8855 C.3       16 UNK        -0.1800 
     92 C          -5.7243  -24.6274  -48.9035 C.2       16 UNK         0.5000 
     93 O          -6.9134  -24.5337  -49.2107 O.2       16 UNK        -0.5000 
     94 N          -4.9674  -23.5929  -48.5083 N.am      17 UNK        -0.5000 
     95 CA         -5.3404  -22.1804  -48.3804 C.3       17 UNK         0.1400 
     96 CB         -6.5547  -21.9864  -47.4473 C.3       17 UNK        -0.1800 
     97 C          -5.5059  -21.4392  -49.7226 C.2       17 UNK         0.5000 
     98 O          -5.9282  -20.2817  -49.7141 O.2       17 UNK        -0.5000 
     99 N          -5.1301  -22.0631  -50.8489 N.am      18 UNK        -0.5000 
    100 CA        -5.1616  -21.4631  -52.1857 C.3       18 UNK         0.1400 
    101 CB        -5.3063  -22.5758  -53.2396 C.3       18 UNK        -0.1800 
    102 C         -3.9348  -20.5608  -52.4388 C.2       18 UNK         0.5000 
    103 O         -3.1994  -20.7726  -53.4021 O.2       18 UNK        -0.5000 
    104 N         -3.7265  -19.5719  -51.5612 N.am      19 UNK        -0.5000 
    105 CA        -2.7400  -18.5095  -51.7386 C.3       19 UNK         0.1400 
    106 CB        -2.4034  -17.8861  -50.3768 C.3       19 UNK        -0.1800 
    107 C         -3.2878  -17.4488  -52.7056 C.2       19 UNK         0.5000 
    108 O         -4.4791  -17.1315  -52.6455 O.2       19 UNK        -0.5000 
    109 N         -2.4135  -16.9266  -53.5745 N.am      20 UNK        -0.5000 
    110 CA        -2.6487  -15.9467  -54.6455 C.3       20 UNK         0.1400 
    111 CB        -3.1636  -14.6051  -54.0898 C.3       20 UNK        -0.1800 
    112 C         -3.5454  -16.4732  -55.7845 C.2       20 UNK         0.5000 
    113 O         -3.1424  -16.4298  -56.9474 O.2       20 UNK        -0.5000 
    114 N         -4.7192  -17.0106  -55.4361 N.am      21 UNK        -0.5000 
    115 CA        -5.6301  -17.7419  -56.3143 C.3       21 UNK         0.1400 
    116 CB        -7.0621  -17.5919  -55.7706 C.3       21 UNK        -0.1800 
    117 C         -5.1820  -19.2139  -56.4211 C.2       21 UNK         0.5000 
    118 O         -5.9056  -20.1195  -56.0045 O.2       21 UNK        -0.5000 
    119 N         -3.9647  -19.4117  -56.9374 N.am      22 UNK        -0.5000 
    120 CA        -3.2436  -20.6955  -56.9708 C.3       22 UNK         0.1400 
    121 C         -3.7620  -21.7200  -58.0228 C.2       22 UNK         0.5000 
    122 N         -4.6662  -21.3552  -58.9236 N.am      22 UNK        -0.7600 
    123 O         -3.3368  -22.8720  -58.0203 O.2       22 UNK        -0.5000 
    124 C124       -1.7132  -20.4813  -57.1193 C.3       23 UNK        -0.0398 
    125 S125       -1.0320  -19.3149  -55.8891 S.3       23 UNK        -0.2404 
    126 C126       -0.0778  -20.4255  -54.8018 C.3       23 UNK        -0.0205 
    127 H127       -1.3825  -16.9176  -47.7613 H         1 UNK         0.0600 
    128 H128       -0.4762  -16.1546  -46.4553 H         1 UNK         0.0600 
    129 H129        0.3852  -16.8688  -47.8196 H         1 UNK         0.0600 
    130 H130        0.7362  -15.5768  -49.6678 H         1 UNK         0.3000 
    131 H131       -0.8351  -13.3824  -50.4489 H         1 UNK         0.0600 
    132 H132        0.8986  -12.9249  -52.1310 H         1 UNK         0.0800 
    133 H133        2.0591  -13.9147  -51.2906 H         1 UNK         0.0800 
    134 H134        2.4380  -16.1524  -51.5380 H         1 UNK         0.0800 
    135 H135        2.4426  -16.1709  -53.2844 H         1 UNK         0.0800 
    136 H136        0.8699  -17.8435  -54.4742 H         1 UNK         0.1150 
    137 H137        0.1914  -21.4960  -52.3288 H         1 UNK         0.1150 
    138 H138        1.8130  -18.0804  -50.3114 H         1 UNK         0.1150 
    139 H139        0.5734  -21.6316  -49.9813 H         1 UNK         0.0800 
    140 H140        2.1863  -21.0002  -49.8006 H         1 UNK         0.0800 
    141 H141       -1.4456  -20.9121  -48.7648 H         1 UNK         0.0800 
    142 H142       -1.4523  -20.0222  -47.2587 H         1 UNK         0.0800 
    143 H143        0.1160  -22.5957  -47.7336 H         1 UNK         0.0600 
    144 H144        0.3236  -20.7808  -45.5559 H         1 UNK         0.3000 
    145 H145        1.8696  -23.2030  -43.3443 H         1 UNK         0.0600 
    146 H146        3.4443  -21.2970  -43.2965 H         1 UNK         0.0600 
    147 H147        3.5438  -22.1339  -44.8381 H         1 UNK         0.0600 
    148 H148        2.6966  -20.5983  -44.7296 H         1 UNK         0.0600 
    149 H149        0.9934  -20.5207  -42.8796 H         1 UNK         0.3000 
    150 H150       -2.2179  -21.3729  -41.5353 H         1 UNK         0.0600 
    151 H151       -0.6004  -21.7520  -39.6595 H         1 UNK         0.0600 
    152 H152       -1.3317  -20.1569  -39.5759 H         1 UNK         0.0600 
    153 H153        0.3201  -20.3391  -40.1645 H         1 UNK         0.0600 
    154 H154       -0.9272  -18.8645  -41.7316 H         1 UNK         0.3000 
    155 H155       -1.9835  -18.0625  -45.0847 H         1 UNK         0.0600 
    156 H156       -2.6209  -16.9717  -42.2923 H         1 UNK         0.0600 
    157 H157       -3.8074  -17.4654  -43.4938 H         1 UNK         0.0600 
    158 H158       -2.7653  -16.0844  -43.8075 H         1 UNK         0.0600 
    159 H159       -0.3489  -16.5881  -43.3212 H         1 UNK         0.3000 
    160 H160        2.8205  -17.9633  -44.3070 H         1 UNK         0.0600 
    161 H161        1.4178  -15.2612  -44.6962 H         1 UNK         0.0600 
    162 H162        2.2128  -16.2078  -45.9453 H         1 UNK         0.0600 
    163 H163        3.1621  -15.5146  -44.6415 H         1 UNK         0.0600 
    164 H164        1.9670  -16.0134  -42.3551 H         1 UNK         0.3000 
    165 H165        1.8591  -18.2523  -39.5815 H         1 UNK         0.0600 
    166 H166        3.5475  -16.6595  -38.7128 H         1 UNK         0.0600 
    167 H167        4.2845  -17.7331  -39.8913 H         1 UNK         0.0600 
    168 H168        3.8865  -16.0799  -40.3439 H         1 UNK         0.0600 
    169 H169        1.5593  -15.4165  -39.8017 H         1 UNK         0.3000 
    170 H170       -1.9378  -15.3681  -40.4694 H         1 UNK         0.0600 
    171 H171       -1.7598  -15.7696  -38.0080 H         1 UNK         0.0600 
    172 H172       -0.3663  -14.6987  -37.9229 H         1 UNK         0.0600 
    173 H173       -1.9500  -14.0614  -38.3674 H         1 UNK         0.0600 
    174 H174       -0.1476  -13.2499  -39.9517 H         1 UNK         0.3000 
    175 H175        0.3216  -11.7930  -41.6324 H         1 UNK         0.0600 
    176 H176        2.4450  -13.5544  -42.9903 H         1 UNK         0.0600 
    177 H177        2.6175  -11.8420  -42.6144 H         1 UNK         0.0600 
    178 H178        2.4815  -13.0160  -41.3155 H         1 UNK         0.0600 
    179 H179        0.7536  -12.5455  -44.4277 H         1 UNK         0.3000 
    180 H180       -2.0487  -12.2513  -45.7144 H         1 UNK         0.0600 
    181 H181       -1.3576   -9.2767  -45.4943 H         1 UNK         0.0600 
    182 H182       -2.9315  -10.0151  -45.2463 H         1 UNK         0.0600 
    183 H183       -2.2126  -10.0176  -46.8475 H         1 UNK         0.0600 
    184 H184       -0.2921  -12.5410  -46.9634 H         1 UNK         0.3000 
    185 H185        2.3814  -10.6869  -48.0597 H         1 UNK         0.0600 
    186 H186        3.6327  -11.3678  -46.0054 H         1 UNK         0.0600 
    187 H187        2.9103  -12.9702  -46.0749 H         1 UNK         0.0600 
    188 H188        4.0076  -12.4347  -47.3477 H         1 UNK         0.0600 
    189 H189        1.7638  -13.5196  -48.1563 H         1 UNK         0.3000 
    190 H190       -2.0898  -22.0472  -45.0058 H         1 UNK         0.3000 
    191 H191       -4.3263  -23.4715  -45.9487 H         1 UNK         0.0600 
    192 H192       -3.2509  -23.2234  -43.1030 H         1 UNK         0.0600 
    193 H193       -4.8609  -23.7768  -43.5392 H         1 UNK         0.0600 
    194 H194       -4.3820  -22.1268  -43.8954 H         1 UNK         0.0600 
    195 H195       -1.2489  -24.6896  -44.6888 H         1 UNK         0.3000 
    196 H196       -2.1627  -27.5039  -44.7486 H         1 UNK         0.0600 
    197 H197        0.1256  -27.9524  -43.8797 H         1 UNK         0.0600 
    198 H198       -0.7177  -26.7801  -42.8784 H         1 UNK         0.0600 
    199 H199        0.5286  -26.2435  -44.0005 H         1 UNK         0.0600 
    200 H200        0.2988  -25.3924  -46.3283 H         1 UNK         0.3000 
    201 H201        1.3113  -27.4788  -47.9725 H         1 UNK         0.0600 
    202 H202        2.6665  -25.5692  -47.1488 H         1 UNK         0.0600 
    203 H203        1.7247  -24.4479  -48.1293 H         1 UNK         0.0600 
    204 H204        2.7343  -25.6637  -48.9019 H         1 UNK         0.0600 
    205 H205       -1.1354  -24.9738  -48.6456 H         1 UNK         0.3000 
    206 H206       -1.3505  -25.9031  -51.4865 H         1 UNK         0.0600 
    207 H207       -0.1218  -23.7201  -51.2889 H         1 UNK         0.0600 
    208 H208       -1.6670  -23.5265  -52.0984 H         1 UNK         0.0600 
    209 H209       -1.4943  -23.0306  -50.4205 H         1 UNK         0.0600 
    210 H210       -2.9146  -26.2310  -48.7283 H         1 UNK         0.3000 
    211 H211       -5.0020  -26.3977  -47.9732 H         1 UNK         0.0600 
    212 H212       -5.8391  -26.6446  -50.9090 H         1 UNK         0.0600 
    213 H213       -6.7450  -27.2051  -49.5105 H         1 UNK         0.0600 
    214 H214       -5.2143  -27.9617  -49.9171 H         1 UNK         0.0600 
    215 H215       -3.9873  -23.7857  -48.3169 H         1 UNK         0.3000 
    216 H216       -4.4889  -21.7029  -47.8942 H         1 UNK         0.0600 
    217 H217       -6.6871  -20.9336  -47.1959 H         1 UNK         0.0600 
    218 H218       -6.4320  -22.5272  -46.5095 H         1 UNK         0.0600 
    219 H219       -7.4817  -22.3245  -47.9107 H         1 UNK         0.0600 
    220 H220       -4.7678  -23.0086  -50.7960 H         1 UNK         0.3000 
    221 H221       -6.0467  -20.8285  -52.2664 H         1 UNK         0.0600 
    222 H222       -4.4126  -23.1968  -53.2988 H         1 UNK         0.0600 
    223 H223       -6.1541  -23.2246  -53.0195 H         1 UNK         0.0600 
    224 H224       -5.4694  -22.1518  -54.2307 H         1 UNK         0.0600 
    225 H225       -4.4087  -19.4469  -50.8219 H         1 UNK         0.3000 
    226 H226       -1.8280  -18.9363  -52.1548 H         1 UNK         0.0600 
    227 H227       -1.9977  -18.6308  -49.6934 H         1 UNK         0.0600 
    228 H228       -1.6507  -17.1042  -50.4861 H         1 UNK         0.0600 
    229 H229       -3.2803  -17.4385  -49.9076 H         1 UNK         0.0600 
    230 H230       -1.4657  -17.2770  -53.5400 H         1 UNK         0.3000 
    231 H231       -1.6671  -15.7588  -55.0838 H         1 UNK         0.0600 
    232 H232       -2.4937  -14.2133  -53.3245 H         1 UNK         0.0600 
    233 H233       -4.1572  -14.6948  -53.6507 H         1 UNK         0.0600 
    234 H234       -3.2255  -13.8575  -54.8813 H         1 UNK         0.0600 
    235 H235       -4.9220  -17.0501  -54.4398 H         1 UNK         0.3000 
    236 H236       -5.6017  -17.3092  -57.3164 H         1 UNK         0.0600 
    237 H237       -7.7783  -18.1164  -56.4043 H         1 UNK         0.0600 
    238 H238       -7.1547  -17.9962  -54.7617 H         1 UNK         0.0600 
    239 H239       -7.3627  -16.5445  -55.7394 H         1 UNK         0.0600 
    240 H240       -3.4328  -18.5986  -57.2221 H         1 UNK         0.3000 
    241 H241       -3.4067  -21.1737  -56.0039 H         1 UNK         0.0600 
    242 H242       -4.9975  -22.0276  -59.5976 H         1 UNK         0.3800 
    243 H243       -5.0285  -20.4153  -58.9317 H         1 UNK         0.3800 
    244 H244       -1.1836  -21.4324  -57.0417 H         1 UNK         0.0800 
    245 H245       -1.4837  -20.0887  -58.1112 H         1 UNK         0.0800 
    246 H246       -0.7169  -21.2663  -54.5269 H         1 UNK         0.0800 
    247 H247        0.7649  -20.8367  -55.3586 H         1 UNK         0.0800 
@<TRIPOS>BOND
     1    1    2 1    
     2    1  127 1    
     3    1  128 1    
     4    1  129 1    
     5    2    3 2    
     6    2    4 am   BACKBONE|DICT|INTERRES
     7    4    5 1    
     8    4  130 1    
     9    5    6 1    
    10    5   65 1    
    11    5  131 1    
    12    6    7 1    
    13    6  132 1    
    14    6  133 1    
    15    7    8 1    
    16    8    9 1    
    17    8  134 1    
    18    8  135 1    
    19    9   10 ar   
    20    9   14 ar   
    21   10   11 ar   
    22   10  136 1    
    23   11   12 ar   
    24   11  126 1    
    25   12   13 ar   
    26   12  137 1    
    27   13   14 ar   
    28   13   15 1    
    29   14  138 1    
    30   15   16 1    
    31   15  139 1    
    32   15  140 1    
    33   16   17 1    
    34   17   18 1    
    35   17  141 1    
    36   17  142 1    
    37   18   19 1    
    38   18   67 1    
    39   18  143 1    
    40   19   20 am   BACKBONE|DICT|INTERRES
    41   19  144 1    
    42   20   21 2    
    43   20   22 1    
    44   22   23 1    
    45   22   24 1    
    46   22  145 1    
    47   23  146 1    
    48   23  147 1    
    49   23  148 1    
    50   24   25 am   BACKBONE|DICT|INTERRES
    51   24  149 1    
    52   25   26 2    
    53   25   27 1    
    54   27   28 1    
    55   27   29 1    
    56   27  150 1    
    57   28  151 1    
    58   28  152 1    
    59   28  153 1    
    60   29   30 am   BACKBONE|DICT|INTERRES
    61   29  154 1    
    62   30   31 2    
    63   30   32 1    
    64   32   33 1    
    65   32   34 1    
    66   32  155 1    
    67   33  156 1    
    68   33  157 1    
    69   33  158 1    
    70   34   35 am   BACKBONE|DICT|INTERRES
    71   34  159 1    
    72   35   36 2    
    73   35   37 1    
    74   37   38 1    
    75   37   39 1    
    76   37  160 1    
    77   38  161 1    
    78   38  162 1    
    79   38  163 1    
    80   39   40 am   BACKBONE|DICT|INTERRES
    81   39  164 1    
    82   40   41 2    
    83   40   42 1    
    84   42   43 1    
    85   42   44 1    
    86   42  165 1    
    87   43  166 1    
    88   43  167 1    
    89   43  168 1    
    90   44   45 am   BACKBONE|DICT|INTERRES
    91   44  169 1    
    92   45   46 2    
    93   45   47 1    
    94   47   48 1    
    95   47   49 1    
    96   47  170 1    
    97   48  171 1    
    98   48  172 1    
    99   48  173 1    
   100   49   50 am   BACKBONE|DICT|INTERRES
   101   49  174 1    
   102   50   51 2    
   103   50   52 1    
   104   52   53 1    
   105   52   54 1    
   106   52  175 1    
   107   53  176 1    
   108   53  177 1    
   109   53  178 1    
   110   54   55 am   BACKBONE|DICT|INTERRES
   111   54  179 1    
   112   55   56 2    
   113   55   57 1    
   114   57   58 1    
   115   57   59 1    
   116   57  180 1    
   117   58  181 1    
   118   58  182 1    
   119   58  183 1    
   120   59   60 am   BACKBONE|DICT|INTERRES
   121   59  184 1    
   122   60   61 2    
   123   60   62 1    
   124   62   63 1    
   125   62   64 1    
   126   62  185 1    
   127   63  186 1    
   128   63  187 1    
   129   63  188 1    
   130   64   65 am   BACKBONE|DICT|INTERRES
   131   64  189 1    
   132   65   66 2    
   133   67   68 2    
   134   67   69 am   BACKBONE|DICT|INTERRES
   135   69   70 1    
   136   69  190 1    
   137   70   71 1    
   138   70   72 1    
   139   70  191 1    
   140   71  192 1    
   141   71  193 1    
   142   71  194 1    
   143   72   73 2    
   144   72   74 am   BACKBONE|DICT|INTERRES
   145   74   75 1    
   146   74  195 1    
   147   75   76 1    
   148   75   77 1    
   149   75  196 1    
   150   76  197 1    
   151   76  198 1    
   152   76  199 1    
   153   77   78 2    
   154   77   79 am   BACKBONE|DICT|INTERRES
   155   79   80 1    
   156   79  200 1    
   157   80   81 1    
   158   80   82 1    
   159   80  201 1    
   160   81  202 1    
   161   81  203 1    
   162   81  204 1    
   163   82   83 2    
   164   82   84 am   BACKBONE|DICT|INTERRES
   165   84   85 1    
   166   84  205 1    
   167   85   86 1    
   168   85   87 1    
   169   85  206 1    
   170   86  207 1    
   171   86  208 1    
   172   86  209 1    
   173   87   88 2    
   174   87   89 am   BACKBONE|DICT|INTERRES
   175   89   90 1    
   176   89  210 1    
   177   90   91 1    
   178   90   92 1    
   179   90  211 1    
   180   91  212 1    
   181   91  213 1    
   182   91  214 1    
   183   92   93 2    
   184   92   94 am   BACKBONE|DICT|INTERRES
   185   94   95 1    
   186   94  215 1    
   187   95   96 1    
   188   95   97 1    
   189   95  216 1    
   190   96  217 1    
   191   96  218 1    
   192   96  219 1    
   193   97   98 2    
   194   97   99 am   BACKBONE|DICT|INTERRES
   195   99  100 1    
   196   99  220 1    
   197  100  101 1    
   198  100  102 1    
   199  100  221 1    
   200  101  222 1    
   201  101  223 1    
   202  101  224 1    
   203  102  103 2    
   204  102  104 am   BACKBONE|DICT|INTERRES
   205  104  105 1    
   206  104  225 1    
   207  105  106 1    
   208  105  107 1    
   209  105  226 1    
   210  106  227 1    
   211  106  228 1    
   212  106  229 1    
   213  107  108 2    
   214  107  109 am   BACKBONE|DICT|INTERRES
   215  109  110 1    
   216  109  230 1    
   217  110  111 1    
   218  110  112 1    
   219  110  231 1    
   220  111  232 1    
   221  111  233 1    
   222  111  234 1    
   223  112  113 2    
   224  112  114 am   BACKBONE|DICT|INTERRES
   225  114  115 1    
   226  114  235 1    
   227  115  116 1    
   228  115  117 1    
   229  115  236 1    
   230  116  237 1    
   231  116  238 1    
   232  116  239 1    
   233  117  118 2    
   234  117  119 am   BACKBONE|DICT|INTERRES
   235  119  120 1    
   236  119  240 1    
   237  120  121 1    
   238  120  124 1    
   239  120  241 1    
   240  121  122 am   BACKBONE|DICT|INTERRES
   241  121  123 2    
   242  122  242 1    
   243  122  243 1    
   244  124  125 1    
   245  124  244 1    
   246  124  245 1    
   247  125  126 1    
   248  126  246 1    
   249  126  247 1    
@<TRIPOS>SUBSTRUCTURE
     1 UNK         1 GROUP             0       ****    0 ROOT    
