@<TRIPOS>MOLECULE
3R540
247   249    1
SMALL
USER_CHARGES


@<TRIPOS>ATOM
      1 CA          5.1262  -14.2095  -47.5174 C.3       0 UNK        -0.1800 
      2 C           4.1050  -14.5400  -48.5960 C.2       0 UNK         0.5000 
      3 O           4.2573  -15.5409  -49.2951 O.2       0 UNK        -0.5000 
      4 N           3.0503  -13.7211  -48.7178 N.am      1 UNK        -0.5000 
      5 CA          1.9437  -13.8772  -49.6782 C.3       1 UNK         0.1400 
      6 C6          0.9955  -12.6521  -49.6224 C.3       23 UNK        -0.0398 
      7 S7          0.1328  -12.3322  -51.1970 S.3       23 UNK        -0.2404 
      8 C8         -1.5875  -12.1043  -50.6438 C.3       23 UNK        -0.0205 
      9 C9         -2.3344  -13.4247  -50.5286 C.ar      23 UNK        -0.0193 
     10 C10        -2.8639  -14.0204  -51.6755 C.ar      23 UNK        -0.1150 
     11 C11        -3.5790  -15.2154  -51.5863 C.ar      23 UNK        -0.0193 
     12 C12        -3.7748  -15.8098  -50.3379 C.ar      23 UNK        -0.1150 
     13 C13        -3.2342  -15.2396  -49.1774 C.ar      23 UNK        -0.0193 
     14 C14        -2.5171  -14.0419  -49.2867 C.ar      23 UNK        -0.1150 
     15 C15        -3.3611  -15.8831  -47.7942 C.3       23 UNK        -0.0205 
     16 S16        -4.3767  -17.4009  -47.6936 S.3       23 UNK        -0.2404 
     17 C17        -3.7556  -18.1565  -46.1502 C.3       23 UNK        -0.0398 
     18 CA         -2.9721  -19.4707  -46.4027 C.3       11 UNK         0.1400 
     19 N          -1.9959  -19.7495  -45.3413 N.am      11 UNK        -0.5000 
     20 C          -1.0850  -20.7340  -45.4041 C.2       10 UNK         0.5000 
     21 O          -0.9941  -21.5182  -46.3495 O.2       10 UNK        -0.5000 
     22 CA         -0.1689  -20.9348  -44.1863 C.3       10 UNK         0.1400 
     23 CB          1.1008  -20.0839  -44.3052 C.3       10 UNK        -0.1800 
     24 N          -0.8048  -20.6817  -42.8924 N.am      10 UNK        -0.5000 
     25 C          -1.8707  -21.3349  -42.4073 C.2       9 UNK         0.5000 
     26 O          -2.5522  -22.1193  -43.0670 O.2       9 UNK        -0.5000 
     27 CA         -2.2363  -21.0628  -40.9413 C.3       9 UNK         0.1400 
     28 CB         -1.2064  -21.7023  -39.9963 C.3       9 UNK        -0.1800 
     29 N          -2.2981  -19.6269  -40.6920 N.am      9 UNK        -0.5000 
     30 C          -3.4251  -18.9036  -40.7112 C.2       8 UNK         0.5000 
     31 O          -4.5513  -19.3884  -40.8272 O.2       8 UNK        -0.5000 
     32 CA         -3.2728  -17.3729  -40.6023 C.3       8 UNK         0.1400 
     33 CB         -3.4175  -16.9202  -39.1414 C.3       8 UNK        -0.1800 
     34 N          -2.0070  -16.8641  -41.1362 N.am      8 UNK        -0.5000 
     35 C          -1.6046  -16.9887  -42.4080 C.2       7 UNK         0.5000 
     36 O          -2.2537  -17.5575  -43.2858 O.2       7 UNK        -0.5000 
     37 CA         -0.2139  -16.4332  -42.7482 C.3       7 UNK         0.1400 
     38 CB         -0.2985  -14.9536  -43.1487 C.3       7 UNK        -0.1800 
     39 N           0.8008  -16.5975  -41.7067 N.am      7 UNK        -0.5000 
     40 C           1.1700  -17.7494  -41.1315 C.2       6 UNK         0.5000 
     41 O           0.5567  -18.8097  -41.2716 O.2       6 UNK        -0.5000 
     42 CA          2.4702  -17.7045  -40.3017 C.3       6 UNK         0.1400 
     43 CB          2.8355  -19.0776  -39.7093 C.3       6 UNK        -0.1800 
     44 N           3.5972  -17.2259  -41.1084 N.am      6 UNK        -0.5000 
     45 C           3.8485  -15.9471  -41.4230 C.2       5 UNK         0.5000 
     46 O           3.1643  -15.0047  -41.0211 O.2       5 UNK        -0.5000 
     47 CA          5.0366  -15.6727  -42.3656 C.3       5 UNK         0.1400 
     48 CB          6.2960  -15.3317  -41.5547 C.3       5 UNK        -0.1800 
     49 N           5.3376  -16.7843  -43.2730 N.am      5 UNK        -0.5000 
     50 C           4.5630  -17.1626  -44.2979 C.2       4 UNK         0.5000 
     51 O           3.4926  -16.6217  -44.5900 O.2       4 UNK        -0.5000 
     52 CA          5.0740  -18.3465  -45.1316 C.3       4 UNK         0.1400 
     53 CB          4.9634  -19.6704  -44.3523 C.3       4 UNK        -0.1800 
     54 N           4.3032  -18.4101  -46.3685 N.am      4 UNK        -0.5000 
     55 C           4.6559  -19.0514  -47.4878 C.2       3 UNK         0.5000 
     56 O           5.6739  -19.7390  -47.5794 O.2       3 UNK        -0.5000 
     57 CA          3.7633  -18.8680  -48.7318 C.3       3 UNK         0.1400 
     58 CB          3.2979  -20.2179  -49.3143 C.3       3 UNK        -0.1800 
     59 N           2.6554  -17.9218  -48.5336 N.am      3 UNK        -0.5000 
     60 C           1.4482  -18.1384  -47.9887 C.2       2 UNK         0.5000 
     61 O           1.0568  -19.2392  -47.6095 O.2       2 UNK        -0.5000 
     62 CA          0.5154  -16.9229  -47.8003 C.3       2 UNK         0.1400 
     63 CB          0.1352  -16.7732  -46.3222 C.3       2 UNK        -0.1800 
     64 N           1.1050  -15.6567  -48.2261 N.am      2 UNK        -0.5000 
     65 C           1.1695  -15.2025  -49.4839 C.2       1 UNK         0.5000 
     66 O           0.7044  -15.8019  -50.4524 O.2       1 UNK        -0.5000 
     67 C          -3.9224  -20.6641  -46.6563 C.2       11 UNK         0.5000 
     68 O          -4.3416  -20.8669  -47.7937 O.2       11 UNK        -0.5000 
     69 N          -4.2018  -21.4564  -45.6114 N.am      12 UNK        -0.5000 
     70 CA         -4.9583  -22.7011  -45.7025 C.3       12 UNK         0.1400 
     71 CB         -5.7946  -22.8823  -44.4257 C.3       12 UNK        -0.1800 
     72 C          -4.0254  -23.9047  -45.9210 C.2       12 UNK         0.5000 
     73 O          -4.2750  -24.7052  -46.8214 O.2       12 UNK        -0.5000 
     74 N          -2.9738  -24.0164  -45.0961 N.am      13 UNK        -0.5000 
     75 CA         -2.0861  -25.1800  -45.0180 C.3       13 UNK         0.1400 
     76 CB         -1.1977  -25.0633  -43.7701 C.3       13 UNK        -0.1800 
     77 C          -1.2293  -25.4102  -46.2753 C.2       13 UNK         0.5000 
     78 O          -1.0902  -26.5554  -46.7065 O.2       13 UNK        -0.5000 
     79 N          -0.6888  -24.3280  -46.8498 N.am      14 UNK        -0.5000 
     80 CA          0.0585  -24.3466  -48.1111 C.3       14 UNK         0.1400 
     81 CB          1.2556  -23.3867  -47.9978 C.3       14 UNK        -0.1800 
     82 C          -0.8344  -23.9538  -49.3026 C.2       14 UNK         0.5000 
     83 O          -0.3529  -23.9266  -50.4374 O.2       14 UNK        -0.5000 
     84 N          -2.1011  -23.6062  -49.0236 N.am      15 UNK        -0.5000 
     85 CA         -3.1217  -23.1167  -49.9551 C.3       15 UNK         0.1400 
     86 CB         -3.5755  -24.2524  -50.8913 C.3       15 UNK        -0.1800 
     87 C          -2.6845  -21.8442  -50.7130 C.2       15 UNK         0.5000 
     88 O          -3.0876  -21.6491  -51.8615 O.2       15 UNK        -0.5000 
     89 N          -1.8394  -21.0271  -50.0642 N.am      16 UNK        -0.5000 
     90 CA         -1.1517  -19.8519  -50.6058 C.3       16 UNK         0.1400 
     91 CB         -2.1532  -18.7205  -50.8955 C.3       16 UNK        -0.1800 
     92 C          -0.2512  -20.2035  -51.8094 C.2       16 UNK         0.5000 
     93 O          -0.3174  -19.5474  -52.8486 O.2       16 UNK        -0.5000 
     94 N           0.5593  -21.2580  -51.6320 N.am      17 UNK        -0.5000 
     95 CA          1.4535  -21.8776  -52.6160 C.3       17 UNK         0.1400 
     96 CB          2.5295  -20.8920  -53.1242 C.3       17 UNK        -0.1800 
     97 C           0.6659  -22.5589  -53.7512 C.2       17 UNK         0.5000 
     98 O           0.9250  -22.3038  -54.9289 O.2       17 UNK        -0.5000 
     99 N          -0.2846  -23.4215  -53.3586 N.am      18 UNK        -0.5000 
    100 CA        -1.1522  -24.2276  -54.2279 C.3       18 UNK         0.1400 
    101 CB        -0.3274  -25.2859  -54.9905 C.3       18 UNK        -0.1800 
    102 C         -2.0570  -23.3848  -55.1550 C.2       18 UNK         0.5000 
    103 O         -2.3355  -23.7897  -56.2849 O.2       18 UNK        -0.5000 
    104 N         -2.5167  -22.2335  -54.6504 N.am      19 UNK        -0.5000 
    105 CA        -3.3973  -21.2921  -55.3447 C.3       19 UNK         0.1400 
    106 CB        -2.9002  -19.8648  -55.0593 C.3       19 UNK        -0.1800 
    107 C         -4.8685  -21.4498  -54.9129 C.2       19 UNK         0.5000 
    108 O         -5.6908  -20.6019  -55.2620 O.2       19 UNK        -0.5000 
    109 N         -5.1711  -22.4896  -54.1179 N.am      20 UNK        -0.5000 
    110 CA        -6.4654  -22.7769  -53.4824 C.3       20 UNK         0.1400 
    111 CB        -7.5241  -23.1440  -54.5429 C.3       20 UNK        -0.1800 
    112 C         -6.9273  -21.6426  -52.5402 C.2       20 UNK         0.5000 
    113 O         -8.1263  -21.3815  -52.4263 O.2       20 UNK        -0.5000 
    114 N         -5.9508  -20.9546  -51.9249 N.am      21 UNK        -0.5000 
    115 CA        -6.0903  -19.7457  -51.1031 C.3       21 UNK         0.1400 
    116 CB        -6.8872  -20.0515  -49.8181 C.3       21 UNK        -0.1800 
    117 C         -6.6642  -18.5331  -51.8747 C.2       21 UNK         0.5000 
    118 O         -7.1433  -17.5942  -51.2395 O.2       21 UNK        -0.5000 
    119 N         -6.6178  -18.5881  -53.2173 N.am      22 UNK        -0.5000 
    120 CA        -7.1836  -17.6415  -54.1974 C.3       22 UNK         0.1400 
    121 C         -8.6826  -17.2505  -54.0067 C.2       22 UNK         0.5000 
    122 N         -9.4971  -18.0864  -53.3728 N.am      22 UNK        -0.7600 
    123 O         -9.1307  -16.2068  -54.4743 O.2       22 UNK        -0.5000 
    124 C124       -6.2314  -16.4672  -54.5673 C.3       23 UNK        -0.0398 
    125 S125       -5.8085  -15.3194  -53.2132 S.3       23 UNK        -0.2404 
    126 C126       -4.1210  -15.8803  -52.8392 C.3       23 UNK        -0.0205 
    127 H127        6.1109  -14.0700  -47.9633 H         1 UNK         0.0600 
    128 H128        5.1885  -15.0272  -46.7990 H         1 UNK         0.0600 
    129 H129        4.8652  -13.3002  -46.9757 H         1 UNK         0.0600 
    130 H130        2.9913  -12.9151  -48.1114 H         1 UNK         0.3000 
    131 H131        2.4035  -13.9158  -50.6682 H         1 UNK         0.0600 
    132 H132        1.5684  -11.7478  -49.4122 H         1 UNK         0.0800 
    133 H133        0.2831  -12.7413  -48.8005 H         1 UNK         0.0800 
    134 H134       -2.1006  -11.4680  -51.3666 H         1 UNK         0.0800 
    135 H135       -1.6114  -11.5588  -49.6992 H         1 UNK         0.0800 
    136 H136       -2.7172  -13.5532  -52.6393 H         1 UNK         0.1150 
    137 H137       -4.3387  -16.7292  -50.2917 H         1 UNK         0.1150 
    138 H138       -2.0987  -13.5882  -48.3992 H         1 UNK         0.1150 
    139 H139       -2.3556  -16.1192  -47.4553 H         1 UNK         0.0800 
    140 H140       -3.7638  -15.1515  -47.0922 H         1 UNK         0.0800 
    141 H141       -4.5881  -18.3141  -45.4622 H         1 UNK         0.0800 
    142 H142       -3.1107  -17.4265  -45.6631 H         1 UNK         0.0800 
    143 H143       -2.3840  -19.3386  -47.3142 H         1 UNK         0.0600 
    144 H144       -2.0314  -19.1548  -44.5190 H         1 UNK         0.3000 
    145 H145        0.1398  -21.9810  -44.1878 H         1 UNK         0.0600 
    146 H146        1.7554  -20.2441  -43.4490 H         1 UNK         0.0600 
    147 H147        1.6631  -20.3448  -45.2027 H         1 UNK         0.0600 
    148 H148        0.8744  -19.0208  -44.3579 H         1 UNK         0.0600 
    149 H149       -0.3147  -20.0337  -42.2793 H         1 UNK         0.3000 
    150 H150       -3.2046  -21.5276  -40.7439 H         1 UNK         0.0600 
    151 H151       -1.1289  -22.7759  -40.1731 H         1 UNK         0.0600 
    152 H152       -1.4937  -21.5644  -38.9538 H         1 UNK         0.0600 
    153 H153       -0.2113  -21.2747  -40.1263 H         1 UNK         0.0600 
    154 H154       -1.4104  -19.1408  -40.6425 H         1 UNK         0.3000 
    155 H155       -4.0808  -16.9230  -41.1828 H         1 UNK         0.0600 
    156 H156       -2.6167  -17.3176  -38.5164 H         1 UNK         0.0600 
    157 H157       -4.3637  -17.2607  -38.7187 H         1 UNK         0.0600 
    158 H158       -3.3999  -15.8332  -39.0609 H         1 UNK         0.0600 
    159 H159       -1.3916  -16.3995  -40.4847 H         1 UNK         0.3000 
    160 H160        0.1418  -16.9963  -43.6074 H         1 UNK         0.0600 
    161 H161       -0.5697  -14.3233  -42.3010 H         1 UNK         0.0600 
    162 H162       -1.0471  -14.7984  -43.9268 H         1 UNK         0.0600 
    163 H163        0.6549  -14.5985  -43.5409 H         1 UNK         0.0600 
    164 H164        1.3909  -15.7919  -41.5259 H         1 UNK         0.3000 
    165 H165        2.3049  -17.0142  -39.4720 H         1 UNK         0.0600 
    166 H166        3.7335  -19.0154  -39.0945 H         1 UNK         0.0600 
    167 H167        2.0338  -19.4555  -39.0733 H         1 UNK         0.0600 
    168 H168        3.0130  -19.8190  -40.4895 H         1 UNK         0.0600 
    169 H169        4.1920  -17.9353  -41.5094 H         1 UNK         0.3000 
    170 H170        4.7769  -14.8021  -42.9719 H         1 UNK         0.0600 
    171 H171        6.1144  -14.4886  -40.8867 H         1 UNK         0.0600 
    172 H172        6.6202  -16.1729  -40.9406 H         1 UNK         0.0600 
    173 H173        7.1230  -15.0534  -42.2082 H         1 UNK         0.0600 
    174 H174        6.2032  -17.2769  -43.1044 H         1 UNK         0.3000 
    175 H175        6.1200  -18.1565  -45.3808 H         1 UNK         0.0600 
    176 H176        3.9347  -19.8822  -44.0685 H         1 UNK         0.0600 
    177 H177        5.3260  -20.5130  -44.9408 H         1 UNK         0.0600 
    178 H178        5.5561  -19.6419  -43.4376 H         1 UNK         0.0600 
    179 H179        3.4717  -17.8336  -46.3649 H         1 UNK         0.3000 
    180 H180        4.3979  -18.3987  -49.4848 H         1 UNK         0.0600 
    181 H181        2.8507  -20.8553  -48.5516 H         1 UNK         0.0600 
    182 H182        4.1370  -20.7679  -49.7413 H         1 UNK         0.0600 
    183 H183        2.5626  -20.0716  -50.1026 H         1 UNK         0.0600 
    184 H184        2.8834  -16.9725  -48.8099 H         1 UNK         0.3000 
    185 H185       -0.3893  -17.1094  -48.3826 H         1 UNK         0.0600 
    186 H186       -0.4291  -17.6360  -45.9732 H         1 UNK         0.0600 
    187 H187        1.0244  -16.6828  -45.6983 H         1 UNK         0.0600 
    188 H188       -0.4796  -15.8906  -46.1494 H         1 UNK         0.0600 
    189 H189        1.5433  -15.1050  -47.5029 H         1 UNK         0.3000 
    190 H190       -3.7605  -21.2621  -44.7215 H         1 UNK         0.3000 
    191 H191       -5.6501  -22.6543  -46.5465 H         1 UNK         0.0600 
    192 H192       -5.1718  -22.9211  -43.5313 H         1 UNK         0.0600 
    193 H193       -6.3711  -23.8074  -44.4651 H         1 UNK         0.0600 
    194 H194       -6.5032  -22.0632  -44.3023 H         1 UNK         0.0600 
    195 H195       -2.8401  -23.3063  -44.3784 H         1 UNK         0.3000 
    196 H196       -2.7189  -26.0612  -44.8922 H         1 UNK         0.0600 
    197 H197       -0.5602  -25.9415  -43.6604 H         1 UNK         0.0600 
    198 H198       -1.7987  -24.9829  -42.8640 H         1 UNK         0.0600 
    199 H199       -0.5476  -24.1904  -43.8179 H         1 UNK         0.0600 
    200 H200       -0.8615  -23.4064  -46.4550 H         1 UNK         0.3000 
    201 H201        0.4469  -25.3474  -48.3096 H         1 UNK         0.0600 
    202 H202        1.8798  -23.6332  -47.1390 H         1 UNK         0.0600 
    203 H203        0.9379  -22.3489  -47.8926 H         1 UNK         0.0600 
    204 H204        1.8882  -23.4441  -48.8844 H         1 UNK         0.0600 
    205 H205       -2.3960  -23.6818  -48.0603 H         1 UNK         0.3000 
    206 H206       -3.9863  -22.8358  -49.3551 H         1 UNK         0.0600 
    207 H207       -4.3832  -23.9278  -51.5448 H         1 UNK         0.0600 
    208 H208       -3.9478  -25.1021  -50.3189 H         1 UNK         0.0600 
    209 H209       -2.7611  -24.6081  -51.5189 H         1 UNK         0.0600 
    210 H210       -1.5868  -21.2832  -49.1194 H         1 UNK         0.3000 
    211 H211       -0.4842  -19.5003  -49.8200 H         1 UNK         0.0600 
    212 H212       -1.6339  -17.8007  -51.1684 H         1 UNK         0.0600 
    213 H213       -2.7541  -18.5068  -50.0131 H         1 UNK         0.0600 
    214 H214       -2.8298  -18.9709  -51.7115 H         1 UNK         0.0600 
    215 H215        0.4716  -21.7694  -50.7647 H         1 UNK         0.3000 
    216 H216        1.9746  -22.6775  -52.0876 H         1 UNK         0.0600 
    217 H217        3.2431  -21.4015  -53.7725 H         1 UNK         0.0600 
    218 H218        3.0986  -20.4591  -52.3037 H         1 UNK         0.0600 
    219 H219        2.0985  -20.0740  -53.7015 H         1 UNK         0.0600 
    220 H220       -0.4037  -23.5668  -52.3590 H         1 UNK         0.3000 
    221 H221       -1.8282  -24.7695  -53.5681 H         1 UNK         0.0600 
    222 H222        0.3344  -24.8313  -55.7281 H         1 UNK         0.0600 
    223 H223        0.2851  -25.8748  -54.3077 H         1 UNK         0.0600 
    224 H224       -0.9780  -25.9819  -55.5213 H         1 UNK         0.0600 
    225 H225       -2.2904  -21.9910  -53.6910 H         1 UNK         0.3000 
    226 H226       -3.3545  -21.4578  -56.4228 H         1 UNK         0.0600 
    227 H227       -1.8560  -19.7463  -55.3497 H         1 UNK         0.0600 
    228 H228       -3.4770  -19.1243  -55.6147 H         1 UNK         0.0600 
    229 H229       -2.9804  -19.6178  -54.0006 H         1 UNK         0.0600 
    230 H230       -4.4104  -23.1025  -53.8647 H         1 UNK         0.3000 
    231 H231       -6.3183  -23.6547  -52.8529 H         1 UNK         0.0600 
    232 H232       -7.1687  -23.9420  -55.1947 H         1 UNK         0.0600 
    233 H233       -7.7854  -22.2905  -55.1692 H         1 UNK         0.0600 
    234 H234       -8.4429  -23.4961  -54.0726 H         1 UNK         0.0600 
    235 H235       -4.9916  -21.2441  -52.0951 H         1 UNK         0.3000 
    236 H236       -5.0799  -19.4676  -50.8018 H         1 UNK         0.0600 
    237 H237       -6.7920  -19.2368  -49.0993 H         1 UNK         0.0600 
    238 H238       -7.9497  -20.1870  -50.0211 H         1 UNK         0.0600 
    239 H239       -6.5222  -20.9555  -49.3314 H         1 UNK         0.0600 
    240 H240       -6.2272  -19.4227  -53.6389 H         1 UNK         0.3000 
    241 H241       -7.2318  -18.2417  -55.1066 H         1 UNK         0.0600 
    242 H242      -10.4686  -17.8437  -53.2593 H         1 UNK         0.3800 
    243 H243       -9.1472  -18.9544  -52.9946 H         1 UNK         0.3800 
    244 H244       -5.3098  -16.8785  -54.9813 H         1 UNK         0.0800 
    245 H245       -6.6604  -15.8785  -55.3795 H         1 UNK         0.0800 
    246 H246       -4.1153  -16.9639  -52.7131 H         1 UNK         0.0800 
    247 H247       -3.4703  -15.6671  -53.6887 H         1 UNK         0.0800 
@<TRIPOS>BOND
     1    1    2 1    
     2    1  127 1    
     3    1  128 1    
     4    1  129 1    
     5    2    3 2    
     6    2    4 am   BACKBONE|DICT|INTERRES
     7    4    5 1    
     8    4  130 1    
     9    5    6 1    
    10    5   65 1    
    11    5  131 1    
    12    6    7 1    
    13    6  132 1    
    14    6  133 1    
    15    7    8 1    
    16    8    9 1    
    17    8  134 1    
    18    8  135 1    
    19    9   10 ar   
    20    9   14 ar   
    21   10   11 ar   
    22   10  136 1    
    23   11   12 ar   
    24   11  126 1    
    25   12   13 ar   
    26   12  137 1    
    27   13   14 ar   
    28   13   15 1    
    29   14  138 1    
    30   15   16 1    
    31   15  139 1    
    32   15  140 1    
    33   16   17 1    
    34   17   18 1    
    35   17  141 1    
    36   17  142 1    
    37   18   19 1    
    38   18   67 1    
    39   18  143 1    
    40   19   20 am   BACKBONE|DICT|INTERRES
    41   19  144 1    
    42   20   21 2    
    43   20   22 1    
    44   22   23 1    
    45   22   24 1    
    46   22  145 1    
    47   23  146 1    
    48   23  147 1    
    49   23  148 1    
    50   24   25 am   BACKBONE|DICT|INTERRES
    51   24  149 1    
    52   25   26 2    
    53   25   27 1    
    54   27   28 1    
    55   27   29 1    
    56   27  150 1    
    57   28  151 1    
    58   28  152 1    
    59   28  153 1    
    60   29   30 am   BACKBONE|DICT|INTERRES
    61   29  154 1    
    62   30   31 2    
    63   30   32 1    
    64   32   33 1    
    65   32   34 1    
    66   32  155 1    
    67   33  156 1    
    68   33  157 1    
    69   33  158 1    
    70   34   35 am   BACKBONE|DICT|INTERRES
    71   34  159 1    
    72   35   36 2    
    73   35   37 1    
    74   37   38 1    
    75   37   39 1    
    76   37  160 1    
    77   38  161 1    
    78   38  162 1    
    79   38  163 1    
    80   39   40 am   BACKBONE|DICT|INTERRES
    81   39  164 1    
    82   40   41 2    
    83   40   42 1    
    84   42   43 1    
    85   42   44 1    
    86   42  165 1    
    87   43  166 1    
    88   43  167 1    
    89   43  168 1    
    90   44   45 am   BACKBONE|DICT|INTERRES
    91   44  169 1    
    92   45   46 2    
    93   45   47 1    
    94   47   48 1    
    95   47   49 1    
    96   47  170 1    
    97   48  171 1    
    98   48  172 1    
    99   48  173 1    
   100   49   50 am   BACKBONE|DICT|INTERRES
   101   49  174 1    
   102   50   51 2    
   103   50   52 1    
   104   52   53 1    
   105   52   54 1    
   106   52  175 1    
   107   53  176 1    
   108   53  177 1    
   109   53  178 1    
   110   54   55 am   BACKBONE|DICT|INTERRES
   111   54  179 1    
   112   55   56 2    
   113   55   57 1    
   114   57   58 1    
   115   57   59 1    
   116   57  180 1    
   117   58  181 1    
   118   58  182 1    
   119   58  183 1    
   120   59   60 am   BACKBONE|DICT|INTERRES
   121   59  184 1    
   122   60   61 2    
   123   60   62 1    
   124   62   63 1    
   125   62   64 1    
   126   62  185 1    
   127   63  186 1    
   128   63  187 1    
   129   63  188 1    
   130   64   65 am   BACKBONE|DICT|INTERRES
   131   64  189 1    
   132   65   66 2    
   133   67   68 2    
   134   67   69 am   BACKBONE|DICT|INTERRES
   135   69   70 1    
   136   69  190 1    
   137   70   71 1    
   138   70   72 1    
   139   70  191 1    
   140   71  192 1    
   141   71  193 1    
   142   71  194 1    
   143   72   73 2    
   144   72   74 am   BACKBONE|DICT|INTERRES
   145   74   75 1    
   146   74  195 1    
   147   75   76 1    
   148   75   77 1    
   149   75  196 1    
   150   76  197 1    
   151   76  198 1    
   152   76  199 1    
   153   77   78 2    
   154   77   79 am   BACKBONE|DICT|INTERRES
   155   79   80 1    
   156   79  200 1    
   157   80   81 1    
   158   80   82 1    
   159   80  201 1    
   160   81  202 1    
   161   81  203 1    
   162   81  204 1    
   163   82   83 2    
   164   82   84 am   BACKBONE|DICT|INTERRES
   165   84   85 1    
   166   84  205 1    
   167   85   86 1    
   168   85   87 1    
   169   85  206 1    
   170   86  207 1    
   171   86  208 1    
   172   86  209 1    
   173   87   88 2    
   174   87   89 am   BACKBONE|DICT|INTERRES
   175   89   90 1    
   176   89  210 1    
   177   90   91 1    
   178   90   92 1    
   179   90  211 1    
   180   91  212 1    
   181   91  213 1    
   182   91  214 1    
   183   92   93 2    
   184   92   94 am   BACKBONE|DICT|INTERRES
   185   94   95 1    
   186   94  215 1    
   187   95   96 1    
   188   95   97 1    
   189   95  216 1    
   190   96  217 1    
   191   96  218 1    
   192   96  219 1    
   193   97   98 2    
   194   97   99 am   BACKBONE|DICT|INTERRES
   195   99  100 1    
   196   99  220 1    
   197  100  101 1    
   198  100  102 1    
   199  100  221 1    
   200  101  222 1    
   201  101  223 1    
   202  101  224 1    
   203  102  103 2    
   204  102  104 am   BACKBONE|DICT|INTERRES
   205  104  105 1    
   206  104  225 1    
   207  105  106 1    
   208  105  107 1    
   209  105  226 1    
   210  106  227 1    
   211  106  228 1    
   212  106  229 1    
   213  107  108 2    
   214  107  109 am   BACKBONE|DICT|INTERRES
   215  109  110 1    
   216  109  230 1    
   217  110  111 1    
   218  110  112 1    
   219  110  231 1    
   220  111  232 1    
   221  111  233 1    
   222  111  234 1    
   223  112  113 2    
   224  112  114 am   BACKBONE|DICT|INTERRES
   225  114  115 1    
   226  114  235 1    
   227  115  116 1    
   228  115  117 1    
   229  115  236 1    
   230  116  237 1    
   231  116  238 1    
   232  116  239 1    
   233  117  118 2    
   234  117  119 am   BACKBONE|DICT|INTERRES
   235  119  120 1    
   236  119  240 1    
   237  120  121 1    
   238  120  124 1    
   239  120  241 1    
   240  121  122 am   BACKBONE|DICT|INTERRES
   241  121  123 2    
   242  122  242 1    
   243  122  243 1    
   244  124  125 1    
   245  124  244 1    
   246  124  245 1    
   247  125  126 1    
   248  126  246 1    
   249  126  247 1    
@<TRIPOS>SUBSTRUCTURE
     1 UNK         1 GROUP             0       ****    0 ROOT    
