@<TRIPOS>MOLECULE
3R540
247   249    1
SMALL
USER_CHARGES


@<TRIPOS>ATOM
      1 CA          0.5821  -10.0528  -50.6287 C.3       0 UNK        -0.1800 
      2 C           1.1276  -11.4348  -50.2988 C.2       0 UNK         0.5000 
      3 O           1.8314  -11.5932  -49.3021 O.2       0 UNK        -0.5000 
      4 N           0.8018  -12.4342  -51.1287 N.am      1 UNK        -0.5000 
      5 CA          1.2343  -13.8302  -50.9710 C.3       1 UNK         0.1400 
      6 C6          1.1397  -14.6160  -52.3015 C.3       23 UNK        -0.0398 
      7 S7          2.2541  -13.9901  -53.6053 S.3       23 UNK        -0.2404 
      8 C8          3.9112  -14.4002  -52.9588 C.3       23 UNK        -0.0205 
      9 C9          4.0330  -15.8523  -52.5189 C.ar      23 UNK        -0.0193 
     10 C10         4.1314  -16.8718  -53.4678 C.ar      23 UNK        -0.1150 
     11 C11         4.2345  -18.2058  -53.0642 C.ar      23 UNK        -0.0193 
     12 C12         4.2462  -18.5159  -51.7007 C.ar      23 UNK        -0.1150 
     13 C13         4.1412  -17.5050  -50.7372 C.ar      23 UNK        -0.0193 
     14 C14         4.0459  -16.1763  -51.1592 C.ar      23 UNK        -0.1150 
     15 C15         4.1796  -17.7942  -49.2374 C.3       23 UNK        -0.0205 
     16 S16         3.5336  -19.4252  -48.7346 S.3       23 UNK        -0.2404 
     17 C17         1.7273  -19.1676  -48.8209 C.3       23 UNK        -0.0398 
     18 CA          0.9453  -20.4578  -48.4519 C.3       11 UNK         0.1400 
     19 N           1.2410  -20.9283  -47.0942 N.am      11 UNK        -0.5000 
     20 C           1.8533  -22.0844  -46.8119 C.2       10 UNK         0.5000 
     21 O           2.2102  -22.9011  -47.6620 O.2       10 UNK        -0.5000 
     22 CA          2.1057  -22.4018  -45.3264 C.3       10 UNK         0.1400 
     23 CB          3.4070  -21.7322  -44.8577 C.3       10 UNK        -0.1800 
     24 N           1.0357  -22.0417  -44.3933 N.am      10 UNK        -0.5000 
     25 C          -0.2784  -22.2613  -44.5159 C.2       9 UNK         0.5000 
     26 O          -0.8135  -22.6875  -45.5394 O.2       9 UNK        -0.5000 
     27 CA         -1.1676  -21.9637  -43.2954 C.3       9 UNK         0.1400 
     28 CB         -1.4890  -23.2605  -42.5275 C.3       9 UNK        -0.1800 
     29 N          -0.6723  -20.9108  -42.3974 N.am      9 UNK        -0.5000 
     30 C           0.3848  -20.9179  -41.5703 C.2       8 UNK         0.5000 
     31 O           1.1522  -21.8746  -41.4663 O.2       8 UNK        -0.5000 
     32 CA          0.6771  -19.6371  -40.7574 C.3       8 UNK         0.1400 
     33 CB          2.1189  -19.1610  -41.0033 C.3       8 UNK        -0.1800 
     34 N          -0.2343  -18.5316  -41.0587 N.am      8 UNK        -0.5000 
     35 C          -1.4788  -18.3926  -40.5828 C.2       7 UNK         0.5000 
     36 O          -1.9847  -19.1510  -39.7557 O.2       7 UNK        -0.5000 
     37 CA         -2.3173  -17.2482  -41.1865 C.3       7 UNK         0.1400 
     38 CB         -2.0560  -15.9299  -40.4437 C.3       7 UNK        -0.1800 
     39 N          -2.0696  -17.0594  -42.6199 N.am      7 UNK        -0.5000 
     40 C          -2.3224  -17.9762  -43.5663 C.2       6 UNK         0.5000 
     41 O          -2.8374  -19.0690  -43.3360 O.2       6 UNK        -0.5000 
     42 CA         -1.8796  -17.6461  -44.9986 C.3       6 UNK         0.1400 
     43 CB         -2.9351  -16.7952  -45.7180 C.3       6 UNK        -0.1800 
     44 N          -0.5801  -16.9791  -45.0070 N.am      6 UNK        -0.5000 
     45 C           0.5904  -17.6327  -44.9691 C.2       5 UNK         0.5000 
     46 O           0.6923  -18.8551  -45.0844 O.2       5 UNK        -0.5000 
     47 CA          1.8620  -16.7935  -44.7417 C.3       5 UNK         0.1400 
     48 CB          2.6351  -16.6040  -46.0511 C.3       5 UNK        -0.1800 
     49 N           1.5855  -15.4847  -44.1469 N.am      5 UNK        -0.5000 
     50 C           1.3079  -15.3012  -42.8486 C.2       4 UNK         0.5000 
     51 O           1.2492  -16.2197  -42.0333 O.2       4 UNK        -0.5000 
     52 CA          0.9952  -13.8649  -42.3871 C.3       4 UNK         0.1400 
     53 CB          2.2853  -13.1396  -41.9777 C.3       4 UNK        -0.1800 
     54 N           0.2886  -13.0646  -43.3886 N.am      4 UNK        -0.5000 
     55 C          -0.9065  -13.3669  -43.9124 C.2       3 UNK         0.5000 
     56 O          -1.5467  -14.3728  -43.5997 O.2       3 UNK        -0.5000 
     57 CA         -1.4716  -12.4243  -44.9968 C.3       3 UNK         0.1400 
     58 CB         -0.5908  -11.1873  -45.2860 C.3       3 UNK        -0.1800 
     59 N          -1.7562  -13.1403  -46.2452 N.am      3 UNK        -0.5000 
     60 C          -0.8995  -13.8831  -46.9631 C.2       2 UNK         0.5000 
     61 O           0.2698  -14.0810  -46.6289 O.2       2 UNK        -0.5000 
     62 CA         -1.4329  -14.5175  -48.2655 C.3       2 UNK         0.1400 
     63 CB         -2.9302  -14.2520  -48.5326 C.3       2 UNK        -0.1800 
     64 N          -0.6568  -14.0289  -49.4008 N.am      2 UNK        -0.5000 
     65 C           0.4791  -14.5798  -49.8505 C.2       1 UNK         0.5000 
     66 O           0.9365  -15.6426  -49.4293 O.2       1 UNK        -0.5000 
     67 C          -0.5755  -20.3229  -48.6714 C.2       11 UNK         0.5000 
     68 O          -0.9866  -19.5691  -49.5534 O.2       11 UNK        -0.5000 
     69 N          -1.3915  -21.0653  -47.9087 N.am      12 UNK        -0.5000 
     70 CA         -2.8406  -21.1341  -48.0798 C.3       12 UNK         0.1400 
     71 CB         -3.5330  -20.0020  -47.2960 C.3       12 UNK        -0.1800 
     72 C          -3.3440  -22.5349  -47.7012 C.2       12 UNK         0.5000 
     73 O          -3.3151  -23.4414  -48.5363 O.2       12 UNK        -0.5000 
     74 N          -3.7975  -22.6902  -46.4500 N.am      13 UNK        -0.5000 
     75 CA         -4.4595  -23.8797  -45.9124 C.3       13 UNK         0.1400 
     76 CB         -4.9396  -23.5835  -44.4842 C.3       13 UNK        -0.1800 
     77 C          -3.6268  -25.1755  -45.9553 C.2       13 UNK         0.5000 
     78 O          -4.2158  -26.2535  -46.0277 O.2       13 UNK        -0.5000 
     79 N          -2.2904  -25.0694  -45.9731 N.am      14 UNK        -0.5000 
     80 CA         -1.3717  -26.1986  -46.1587 C.3       14 UNK         0.1400 
     81 CB          0.0674  -25.7402  -45.8801 C.3       14 UNK        -0.1800 
     82 C          -1.4712  -26.8400  -47.5588 C.2       14 UNK         0.5000 
     83 O          -1.1780  -28.0273  -47.7017 O.2       14 UNK        -0.5000 
     84 N          -1.9116  -26.0564  -48.5522 N.am      15 UNK        -0.5000 
     85 CA         -2.2243  -26.4996  -49.9117 C.3       15 UNK         0.1400 
     86 CB         -1.6478  -25.4703  -50.8966 C.3       15 UNK        -0.1800 
     87 C          -3.7455  -26.6612  -50.1208 C.2       15 UNK         0.5000 
     88 O          -4.1757  -26.8949  -51.2507 O.2       15 UNK        -0.5000 
     89 N          -4.5306  -26.5106  -49.0416 N.am      16 UNK        -0.5000 
     90 CA         -5.9958  -26.5162  -48.9782 C.3       16 UNK         0.1400 
     91 CB         -6.5602  -27.8965  -49.3750 C.3       16 UNK        -0.1800 
     92 C          -6.6608  -25.3519  -49.7456 C.2       16 UNK         0.5000 
     93 O          -7.8321  -25.4591  -50.1144 O.2       16 UNK        -0.5000 
     94 N          -5.9223  -24.2554  -49.9656 N.am      17 UNK        -0.5000 
     95 CA         -6.4232  -23.0496  -50.6202 C.3       17 UNK         0.1400 
     96 CB         -5.2554  -22.3336  -51.3149 C.3       17 UNK        -0.1800 
     97 C          -7.1139  -22.1268  -49.6007 C.2       17 UNK         0.5000 
     98 O          -6.6713  -22.0343  -48.4536 O.2       17 UNK        -0.5000 
     99 N          -8.1790  -21.4481  -50.0458 N.am      18 UNK        -0.5000 
    100 CA        -8.9535  -20.4928  -49.2444 C.3       18 UNK         0.1400 
    101 CB       -10.3762  -20.4086  -49.8202 C.3       18 UNK        -0.1800 
    102 C         -8.3137  -19.0899  -49.1862 C.2       18 UNK         0.5000 
    103 O         -8.6958  -18.2819  -48.3387 O.2       18 UNK        -0.5000 
    104 N         -7.3636  -18.8276  -50.0876 N.am      19 UNK        -0.5000 
    105 CA        -6.5477  -17.6211  -50.1693 C.3       19 UNK         0.1400 
    106 CB        -7.1471  -16.6666  -51.2207 C.3       19 UNK        -0.1800 
    107 C         -5.1035  -18.0521  -50.4807 C.2       19 UNK         0.5000 
    108 O         -4.7364  -19.1845  -50.1627 O.2       19 UNK        -0.5000 
    109 N         -4.3079  -17.1647  -51.0940 N.am      20 UNK        -0.5000 
    110 CA        -2.9333  -17.4369  -51.5193 C.3       20 UNK         0.1400 
    111 CB        -2.3299  -16.1756  -52.1554 C.3       20 UNK        -0.1800 
    112 C         -2.8576  -18.6173  -52.5067 C.2       20 UNK         0.5000 
    113 O         -3.4034  -18.5238  -53.6087 O.2       20 UNK        -0.5000 
    114 N         -2.1756  -19.6940  -52.0998 N.am      21 UNK        -0.5000 
    115 CA        -2.0347  -20.9429  -52.8541 C.3       21 UNK         0.1400 
    116 CB        -1.3061  -21.9724  -51.9786 C.3       21 UNK        -0.1800 
    117 C         -1.3117  -20.7742  -54.2036 C.2       21 UNK         0.5000 
    118 O         -1.6077  -21.5042  -55.1503 O.2       21 UNK        -0.5000 
    119 N         -0.3998  -19.7985  -54.2649 N.am      22 UNK        -0.5000 
    120 CA         0.3219  -19.3839  -55.4765 C.3       22 UNK         0.1400 
    121 C         -0.4528  -18.3475  -56.3458 C.2       22 UNK         0.5000 
    122 N         -1.6586  -17.9224  -55.9831 N.am      22 UNK        -0.7600 
    123 O          0.0455  -17.9266  -57.3861 O.2       22 UNK        -0.5000 
    124 C124        1.7497  -18.8865  -55.1359 C.3       23 UNK        -0.0398 
    125 S125        2.7526  -20.1782  -54.3228 S.3       23 UNK        -0.2404 
    126 C126        4.3377  -19.3143  -54.0996 C.3       23 UNK        -0.0205 
    127 H127       -0.0352   -9.6876  -49.8079 H         1 UNK         0.0600 
    128 H128       -0.0256  -10.0615  -51.5338 H         1 UNK         0.0600 
    129 H129        1.4031   -9.3515  -50.7775 H         1 UNK         0.0600 
    130 H130        0.2413  -12.2378  -51.9460 H         1 UNK         0.3000 
    131 H131        2.2790  -13.8155  -50.6594 H         1 UNK         0.0600 
    132 H132        0.1231  -14.5620  -52.6916 H         1 UNK         0.0800 
    133 H133        1.3441  -15.6781  -52.1545 H         1 UNK         0.0800 
    134 H134        4.1525  -13.7267  -52.1353 H         1 UNK         0.0800 
    135 H135        4.6497  -14.1971  -53.7356 H         1 UNK         0.0800 
    136 H136        4.1188  -16.6250  -54.5203 H         1 UNK         0.1150 
    137 H137        4.3375  -19.5491  -51.3980 H         1 UNK         0.1150 
    138 H138        3.9817  -15.3901  -50.4206 H         1 UNK         0.1150 
    139 H139        5.2160  -17.7212  -48.9065 H         1 UNK         0.0800 
    140 H140        3.6293  -17.0212  -48.7000 H         1 UNK         0.0800 
    141 H141        1.4891  -18.8434  -49.8358 H         1 UNK         0.0800 
    142 H142        1.4444  -18.3460  -48.1619 H         1 UNK         0.0800 
    143 H143        1.2456  -21.2158  -49.1780 H         1 UNK         0.0600 
    144 H144        0.9824  -20.3074  -46.3308 H         1 UNK         0.3000 
    145 H145        2.2343  -23.4828  -45.2481 H         1 UNK         0.0600 
    146 H146        3.6745  -22.0492  -43.8495 H         1 UNK         0.0600 
    147 H147        4.2406  -21.9913  -45.5120 H         1 UNK         0.0600 
    148 H148        3.3167  -20.6449  -44.8550 H         1 UNK         0.0600 
    149 H149        1.3424  -21.7260  -43.4815 H         1 UNK         0.3000 
    150 H150       -2.1084  -21.5879  -43.6986 H         1 UNK         0.0600 
    151 H151       -1.9238  -24.0104  -43.1890 H         1 UNK         0.0600 
    152 H152       -2.2059  -23.0767  -41.7274 H         1 UNK         0.0600 
    153 H153       -0.5990  -23.7084  -42.0858 H         1 UNK         0.0600 
    154 H154       -1.2243  -20.0622  -42.4298 H         1 UNK         0.3000 
    155 H155        0.5793  -19.8949  -39.7010 H         1 UNK         0.0600 
    156 H156        2.2866  -18.9196  -42.0536 H         1 UNK         0.0600 
    157 H157        2.8430  -19.9266  -40.7220 H         1 UNK         0.0600 
    158 H158        2.3465  -18.2721  -40.4147 H         1 UNK         0.0600 
    159 H159        0.1315  -17.8074  -41.6696 H         1 UNK         0.3000 
    160 H160       -3.3712  -17.5062  -41.0638 H         1 UNK         0.0600 
    161 H161       -1.0082  -15.6365  -40.5024 H         1 UNK         0.0600 
    162 H162       -2.3109  -16.0217  -39.3873 H         1 UNK         0.0600 
    163 H163       -2.6559  -15.1177  -40.8550 H         1 UNK         0.0600 
    164 H164       -1.7074  -16.1536  -42.9036 H         1 UNK         0.3000 
    165 H165       -1.7876  -18.5888  -45.5382 H         1 UNK         0.0600 
    166 H166       -2.7163  -16.7270  -46.7813 H         1 UNK         0.0600 
    167 H167       -3.9251  -17.2446  -45.6287 H         1 UNK         0.0600 
    168 H168       -2.9975  -15.7858  -45.3126 H         1 UNK         0.0600 
    169 H169       -0.5775  -15.9761  -44.8761 H         1 UNK         0.3000 
    170 H170        2.5035  -17.3539  -44.0583 H         1 UNK         0.0600 
    171 H171        2.9749  -17.5678  -46.4288 H         1 UNK         0.0600 
    172 H172        2.0210  -16.1396  -46.8235 H         1 UNK         0.0600 
    173 H173        3.5204  -15.9851  -45.9057 H         1 UNK         0.0600 
    174 H174        1.5446  -14.6963  -44.7810 H         1 UNK         0.3000 
    175 H175        0.3519  -13.9338  -41.5082 H         1 UNK         0.0600 
    176 H176        2.9596  -13.0080  -42.8249 H         1 UNK         0.0600 
    177 H177        2.0702  -12.1548  -41.5625 H         1 UNK         0.0600 
    178 H178        2.8237  -13.7022  -41.2137 H         1 UNK         0.0600 
    179 H179        0.7604  -12.2353  -43.7186 H         1 UNK         0.3000 
    180 H180       -2.4295  -12.0677  -44.6159 H         1 UNK         0.0600 
    181 H181        0.3888  -11.4611  -45.6801 H         1 UNK         0.0600 
    182 H182       -0.4380  -10.5892  -44.3868 H         1 UNK         0.0600 
    183 H183       -1.0667  -10.5376  -46.0207 H         1 UNK         0.0600 
    184 H184       -2.7057  -13.0606  -46.5799 H         1 UNK         0.3000 
    185 H185       -1.2950  -15.5963  -48.1736 H         1 UNK         0.0600 
    186 H186       -3.5534  -14.5891  -47.7037 H         1 UNK         0.0600 
    187 H187       -3.1348  -13.1935  -48.6983 H         1 UNK         0.0600 
    188 H188       -3.2706  -14.7931  -49.4143 H         1 UNK         0.0600 
    189 H189       -0.9313  -13.1371  -49.7853 H         1 UNK         0.3000 
    190 H190       -0.9959  -21.6815  -47.2031 H         1 UNK         0.3000 
    191 H191       -3.0777  -21.0018  -49.1358 H         1 UNK         0.0600 
    192 H192       -4.6151  -20.0469  -47.4292 H         1 UNK         0.0600 
    193 H193       -3.2092  -19.0270  -47.6591 H         1 UNK         0.0600 
    194 H194       -3.3291  -20.0535  -46.2274 H         1 UNK         0.0600 
    195 H195       -3.7661  -21.8891  -45.8383 H         1 UNK         0.3000 
    196 H196       -5.3420  -24.0551  -46.5315 H         1 UNK         0.0600 
    197 H197       -5.4362  -24.4513  -44.0480 H         1 UNK         0.0600 
    198 H198       -5.6573  -22.7629  -44.4740 H         1 UNK         0.0600 
    199 H199       -4.1139  -23.3125  -43.8277 H         1 UNK         0.0600 
    200 H200       -1.8659  -24.1467  -45.9088 H         1 UNK         0.3000 
    201 H201       -1.6311  -26.9662  -45.4267 H         1 UNK         0.0600 
    202 H202        0.1680  -25.3468  -44.8685 H         1 UNK         0.0600 
    203 H203        0.3817  -24.9634  -46.5780 H         1 UNK         0.0600 
    204 H204        0.7684  -26.5702  -45.9762 H         1 UNK         0.0600 
    205 H205       -2.1589  -25.0939  -48.3439 H         1 UNK         0.3000 
    206 H206       -1.7600  -27.4665  -50.1144 H         1 UNK         0.0600 
    207 H207       -0.5807  -25.3179  -50.7338 H         1 UNK         0.0600 
    208 H208       -1.7761  -25.7966  -51.9292 H         1 UNK         0.0600 
    209 H209       -2.1457  -24.5067  -50.7926 H         1 UNK         0.0600 
    210 H210       -4.0728  -26.3549  -48.1523 H         1 UNK         0.3000 
    211 H211       -6.2475  -26.3550  -47.9294 H         1 UNK         0.0600 
    212 H212       -6.4242  -28.1012  -50.4371 H         1 UNK         0.0600 
    213 H213       -7.6289  -27.9575  -49.1663 H         1 UNK         0.0600 
    214 H214       -6.0768  -28.6960  -48.8136 H         1 UNK         0.0600 
    215 H215       -4.9894  -24.1988  -49.5729 H         1 UNK         0.3000 
    216 H216       -7.1461  -23.3317  -51.3889 H         1 UNK         0.0600 
    217 H217       -5.5976  -21.4453  -51.8470 H         1 UNK         0.0600 
    218 H218       -4.7719  -22.9846  -52.0434 H         1 UNK         0.0600 
    219 H219       -4.4977  -22.0128  -50.6025 H         1 UNK         0.0600 
    220 H220       -8.4878  -21.5852  -50.9978 H         1 UNK         0.3000 
    221 H221       -9.0238  -20.8632  -48.2194 H         1 UNK         0.0600 
    222 H222      -10.3743  -20.0401  -50.8468 H         1 UNK         0.0600 
    223 H223      -10.8630  -21.3841  -49.8134 H         1 UNK         0.0600 
    224 H224      -10.9978  -19.7334  -49.2306 H         1 UNK         0.0600 
    225 H225       -7.0550  -19.5856  -50.6793 H         1 UNK         0.3000 
    226 H226       -6.5278  -17.1194  -49.1998 H         1 UNK         0.0600 
    227 H227       -7.0911  -17.0887  -52.2250 H         1 UNK         0.0600 
    228 H228       -8.1957  -16.4586  -51.0068 H         1 UNK         0.0600 
    229 H229       -6.6300  -15.7068  -51.2306 H         1 UNK         0.0600 
    230 H230       -4.6910  -16.2698  -51.3585 H         1 UNK         0.3000 
    231 H231       -2.3523  -17.6737  -50.6270 H         1 UNK         0.0600 
    232 H232       -2.9165  -15.8320  -53.0084 H         1 UNK         0.0600 
    233 H233       -1.3206  -16.3777  -52.5138 H         1 UNK         0.0600 
    234 H234       -2.2644  -15.3567  -51.4413 H         1 UNK         0.0600 
    235 H235       -1.7651  -19.6785  -51.1667 H         1 UNK         0.3000 
    236 H236       -3.0382  -21.3170  -53.0644 H         1 UNK         0.0600 
    237 H237       -1.8512  -22.1564  -51.0529 H         1 UNK         0.0600 
    238 H238       -1.2087  -22.9264  -52.4980 H         1 UNK         0.0600 
    239 H239       -0.3020  -21.6374  -51.7153 H         1 UNK         0.0600 
    240 H240       -0.2242  -19.2569  -53.4323 H         1 UNK         0.3000 
    241 H241        0.4365  -20.2597  -56.1179 H         1 UNK         0.0600 
    242 H242       -2.1377  -17.2581  -56.5698 H         1 UNK         0.3800 
    243 H243       -2.1211  -18.2711  -55.1511 H         1 UNK         0.3800 
    244 H244        2.2768  -18.5744  -56.0392 H         1 UNK         0.0800 
    245 H245        1.6976  -18.0105  -54.4877 H         1 UNK         0.0800 
    246 H246        4.6785  -18.9207  -55.0586 H         1 UNK         0.0800 
    247 H247        5.0913  -20.0364  -53.7821 H         1 UNK         0.0800 
@<TRIPOS>BOND
     1    1    2 1    
     2    1  127 1    
     3    1  128 1    
     4    1  129 1    
     5    2    3 2    
     6    2    4 am   BACKBONE|DICT|INTERRES
     7    4    5 1    
     8    4  130 1    
     9    5    6 1    
    10    5   65 1    
    11    5  131 1    
    12    6    7 1    
    13    6  132 1    
    14    6  133 1    
    15    7    8 1    
    16    8    9 1    
    17    8  134 1    
    18    8  135 1    
    19    9   10 ar   
    20    9   14 ar   
    21   10   11 ar   
    22   10  136 1    
    23   11   12 ar   
    24   11  126 1    
    25   12   13 ar   
    26   12  137 1    
    27   13   14 ar   
    28   13   15 1    
    29   14  138 1    
    30   15   16 1    
    31   15  139 1    
    32   15  140 1    
    33   16   17 1    
    34   17   18 1    
    35   17  141 1    
    36   17  142 1    
    37   18   19 1    
    38   18   67 1    
    39   18  143 1    
    40   19   20 am   BACKBONE|DICT|INTERRES
    41   19  144 1    
    42   20   21 2    
    43   20   22 1    
    44   22   23 1    
    45   22   24 1    
    46   22  145 1    
    47   23  146 1    
    48   23  147 1    
    49   23  148 1    
    50   24   25 am   BACKBONE|DICT|INTERRES
    51   24  149 1    
    52   25   26 2    
    53   25   27 1    
    54   27   28 1    
    55   27   29 1    
    56   27  150 1    
    57   28  151 1    
    58   28  152 1    
    59   28  153 1    
    60   29   30 am   BACKBONE|DICT|INTERRES
    61   29  154 1    
    62   30   31 2    
    63   30   32 1    
    64   32   33 1    
    65   32   34 1    
    66   32  155 1    
    67   33  156 1    
    68   33  157 1    
    69   33  158 1    
    70   34   35 am   BACKBONE|DICT|INTERRES
    71   34  159 1    
    72   35   36 2    
    73   35   37 1    
    74   37   38 1    
    75   37   39 1    
    76   37  160 1    
    77   38  161 1    
    78   38  162 1    
    79   38  163 1    
    80   39   40 am   BACKBONE|DICT|INTERRES
    81   39  164 1    
    82   40   41 2    
    83   40   42 1    
    84   42   43 1    
    85   42   44 1    
    86   42  165 1    
    87   43  166 1    
    88   43  167 1    
    89   43  168 1    
    90   44   45 am   BACKBONE|DICT|INTERRES
    91   44  169 1    
    92   45   46 2    
    93   45   47 1    
    94   47   48 1    
    95   47   49 1    
    96   47  170 1    
    97   48  171 1    
    98   48  172 1    
    99   48  173 1    
   100   49   50 am   BACKBONE|DICT|INTERRES
   101   49  174 1    
   102   50   51 2    
   103   50   52 1    
   104   52   53 1    
   105   52   54 1    
   106   52  175 1    
   107   53  176 1    
   108   53  177 1    
   109   53  178 1    
   110   54   55 am   BACKBONE|DICT|INTERRES
   111   54  179 1    
   112   55   56 2    
   113   55   57 1    
   114   57   58 1    
   115   57   59 1    
   116   57  180 1    
   117   58  181 1    
   118   58  182 1    
   119   58  183 1    
   120   59   60 am   BACKBONE|DICT|INTERRES
   121   59  184 1    
   122   60   61 2    
   123   60   62 1    
   124   62   63 1    
   125   62   64 1    
   126   62  185 1    
   127   63  186 1    
   128   63  187 1    
   129   63  188 1    
   130   64   65 am   BACKBONE|DICT|INTERRES
   131   64  189 1    
   132   65   66 2    
   133   67   68 2    
   134   67   69 am   BACKBONE|DICT|INTERRES
   135   69   70 1    
   136   69  190 1    
   137   70   71 1    
   138   70   72 1    
   139   70  191 1    
   140   71  192 1    
   141   71  193 1    
   142   71  194 1    
   143   72   73 2    
   144   72   74 am   BACKBONE|DICT|INTERRES
   145   74   75 1    
   146   74  195 1    
   147   75   76 1    
   148   75   77 1    
   149   75  196 1    
   150   76  197 1    
   151   76  198 1    
   152   76  199 1    
   153   77   78 2    
   154   77   79 am   BACKBONE|DICT|INTERRES
   155   79   80 1    
   156   79  200 1    
   157   80   81 1    
   158   80   82 1    
   159   80  201 1    
   160   81  202 1    
   161   81  203 1    
   162   81  204 1    
   163   82   83 2    
   164   82   84 am   BACKBONE|DICT|INTERRES
   165   84   85 1    
   166   84  205 1    
   167   85   86 1    
   168   85   87 1    
   169   85  206 1    
   170   86  207 1    
   171   86  208 1    
   172   86  209 1    
   173   87   88 2    
   174   87   89 am   BACKBONE|DICT|INTERRES
   175   89   90 1    
   176   89  210 1    
   177   90   91 1    
   178   90   92 1    
   179   90  211 1    
   180   91  212 1    
   181   91  213 1    
   182   91  214 1    
   183   92   93 2    
   184   92   94 am   BACKBONE|DICT|INTERRES
   185   94   95 1    
   186   94  215 1    
   187   95   96 1    
   188   95   97 1    
   189   95  216 1    
   190   96  217 1    
   191   96  218 1    
   192   96  219 1    
   193   97   98 2    
   194   97   99 am   BACKBONE|DICT|INTERRES
   195   99  100 1    
   196   99  220 1    
   197  100  101 1    
   198  100  102 1    
   199  100  221 1    
   200  101  222 1    
   201  101  223 1    
   202  101  224 1    
   203  102  103 2    
   204  102  104 am   BACKBONE|DICT|INTERRES
   205  104  105 1    
   206  104  225 1    
   207  105  106 1    
   208  105  107 1    
   209  105  226 1    
   210  106  227 1    
   211  106  228 1    
   212  106  229 1    
   213  107  108 2    
   214  107  109 am   BACKBONE|DICT|INTERRES
   215  109  110 1    
   216  109  230 1    
   217  110  111 1    
   218  110  112 1    
   219  110  231 1    
   220  111  232 1    
   221  111  233 1    
   222  111  234 1    
   223  112  113 2    
   224  112  114 am   BACKBONE|DICT|INTERRES
   225  114  115 1    
   226  114  235 1    
   227  115  116 1    
   228  115  117 1    
   229  115  236 1    
   230  116  237 1    
   231  116  238 1    
   232  116  239 1    
   233  117  118 2    
   234  117  119 am   BACKBONE|DICT|INTERRES
   235  119  120 1    
   236  119  240 1    
   237  120  121 1    
   238  120  124 1    
   239  120  241 1    
   240  121  122 am   BACKBONE|DICT|INTERRES
   241  121  123 2    
   242  122  242 1    
   243  122  243 1    
   244  124  125 1    
   245  124  244 1    
   246  124  245 1    
   247  125  126 1    
   248  126  246 1    
   249  126  247 1    
@<TRIPOS>SUBSTRUCTURE
     1 UNK         1 GROUP             0       ****    0 ROOT    
