@<TRIPOS>MOLECULE
3R540
247   249    1
SMALL
USER_CHARGES


@<TRIPOS>ATOM
      1 CA          3.1939  -14.7759  -47.8500 C.3       0 UNK        -0.1800 
      2 C           1.7344  -14.3539  -47.7814 C.2       0 UNK         0.5000 
      3 O           1.2148  -14.1189  -46.6904 O.2       0 UNK        -0.5000 
      4 N           1.0766  -14.2322  -48.9427 N.am      1 UNK        -0.5000 
      5 CA         -0.3566  -13.9368  -49.1195 C.3       1 UNK         0.1400 
      6 C6         -0.7990  -14.1189  -50.5935 C.3       23 UNK        -0.0398 
      7 S7         -0.7957  -15.8757  -51.0701 S.3       23 UNK        -0.2404 
      8 C8          0.7600  -16.0402  -51.9968 C.3       23 UNK        -0.0205 
      9 C9          1.2964  -17.4503  -51.8310 C.ar      23 UNK        -0.0193 
     10 C10         1.1651  -18.3969  -52.8501 C.ar      23 UNK        -0.1150 
     11 C11         1.5972  -19.7155  -52.6546 C.ar      23 UNK        -0.0193 
     12 C12         2.1580  -20.0703  -51.4230 C.ar      23 UNK        -0.1150 
     13 C13         2.3011  -19.1327  -50.3967 C.ar      23 UNK        -0.0193 
     14 C14         1.8908  -17.8157  -50.6226 C.ar      23 UNK        -0.1150 
     15 C15         2.9109  -19.5711  -49.0665 C.3       23 UNK        -0.0205 
     16 S16         2.3330  -18.6429  -47.6019 S.3       23 UNK        -0.2404 
     17 C17         0.5220  -18.8882  -47.6517 C.3       23 UNK        -0.0398 
     18 CA          0.0587  -20.3503  -47.4663 C.3       11 UNK         0.1400 
     19 N           0.7273  -21.0155  -46.3477 N.am      11 UNK        -0.5000 
     20 C           0.7148  -22.3362  -46.1355 C.2       10 UNK         0.5000 
     21 O           0.1145  -23.1382  -46.8500 O.2       10 UNK        -0.5000 
     22 CA          1.4707  -22.8413  -44.8955 C.3       10 UNK         0.1400 
     23 CB          2.9484  -23.0895  -45.2311 C.3       10 UNK        -0.1800 
     24 N           1.3838  -21.9415  -43.7439 N.am      10 UNK        -0.5000 
     25 C           0.2511  -21.5715  -43.1282 C.2       9 UNK         0.5000 
     26 O          -0.8704  -21.8693  -43.5407 O.2       9 UNK        -0.5000 
     27 CA          0.3985  -20.7244  -41.8469 C.3       9 UNK         0.1400 
     28 CB         -0.7474  -20.9791  -40.8443 C.3       9 UNK        -0.1800 
     29 N           1.7104  -20.8600  -41.1987 N.am      9 UNK        -0.5000 
     30 C           2.2323  -21.9631  -40.6354 C.2       8 UNK         0.5000 
     31 O           1.6422  -23.0416  -40.5673 O.2       8 UNK        -0.5000 
     32 CA          3.6706  -21.8717  -40.0840 C.3       8 UNK         0.1400 
     33 CB          4.6367  -22.6590  -40.9846 C.3       8 UNK        -0.1800 
     34 N           4.1693  -20.5018  -39.9562 N.am      8 UNK        -0.5000 
     35 C           3.8024  -19.6331  -39.0057 C.2       7 UNK         0.5000 
     36 O           3.0161  -19.9060  -38.0975 O.2       7 UNK        -0.5000 
     37 CA          4.3970  -18.2110  -39.0848 C.3       7 UNK         0.1400 
     38 CB          5.5831  -18.0721  -40.0669 C.3       7 UNK        -0.1800 
     39 N           3.3696  -17.2092  -39.3854 N.am      7 UNK        -0.5000 
     40 C           2.5472  -17.1866  -40.4440 C.2       6 UNK         0.5000 
     41 O           2.5516  -18.0309  -41.3449 O.2       6 UNK        -0.5000 
     42 CA          1.5887  -15.9832  -40.5195 C.3       6 UNK         0.1400 
     43 CB          2.2761  -14.7947  -41.2087 C.3       6 UNK        -0.1800 
     44 N           0.3557  -16.2954  -41.2401 N.am      6 UNK        -0.5000 
     45 C          -0.6031  -17.1217  -40.8020 C.2       5 UNK         0.5000 
     46 O          -0.5739  -17.6625  -39.6963 O.2       5 UNK        -0.5000 
     47 CA         -1.8060  -17.3748  -41.7352 C.3       5 UNK         0.1400 
     48 CB         -3.1292  -17.0167  -41.0400 C.3       5 UNK        -0.1800 
     49 N          -1.7268  -16.6226  -42.9867 N.am      5 UNK        -0.5000 
     50 C          -1.1444  -17.0315  -44.1168 C.2       4 UNK         0.5000 
     51 O          -0.5879  -18.1232  -44.2433 O.2       4 UNK        -0.5000 
     52 CA         -1.1949  -16.0605  -45.3131 C.3       4 UNK         0.1400 
     53 CB         -2.5164  -16.2080  -46.0865 C.3       4 UNK        -0.1800 
     54 N          -0.9047  -14.6541  -45.0060 N.am      4 UNK        -0.5000 
     55 C          -1.5762  -13.7742  -44.2484 C.2       3 UNK         0.5000 
     56 O          -2.6029  -14.0477  -43.6266 O.2       3 UNK        -0.5000 
     57 CA         -1.0001  -12.3515  -44.1597 C.3       3 UNK         0.1400 
     58 CB          0.0954  -12.2761  -43.0856 C.3       3 UNK        -0.1800 
     59 N          -0.4550  -11.9067  -45.4435 N.am      3 UNK        -0.5000 
     60 C          -0.7045  -10.7180  -46.0118 C.2       2 UNK         0.5000 
     61 O          -1.3730   -9.8310  -45.4791 O.2       2 UNK        -0.5000 
     62 CA         -0.1206  -10.4710  -47.4210 C.3       2 UNK         0.1400 
     63 CB          1.1885   -9.6726  -47.3270 C.3       2 UNK        -0.1800 
     64 N           0.1306  -11.7043  -48.1691 N.am      2 UNK        -0.5000 
     65 C          -0.8147  -12.5656  -48.5702 C.2       1 UNK         0.5000 
     66 O          -2.0200  -12.3291  -48.4827 O.2       1 UNK        -0.5000 
     67 C          -1.4755  -20.4145  -47.3267 C.2       11 UNK         0.5000 
     68 O          -2.1681  -20.6305  -48.3207 O.2       11 UNK        -0.5000 
     69 N          -1.9823  -20.2523  -46.0967 N.am      12 UNK        -0.5000 
     70 CA         -3.3982  -20.4159  -45.7679 C.3       12 UNK         0.1400 
     71 CB         -3.6912  -19.7768  -44.4015 C.3       12 UNK        -0.1800 
     72 C          -3.8340  -21.8923  -45.7829 C.2       12 UNK         0.5000 
     73 O          -4.9595  -22.1840  -46.1839 O.2       12 UNK        -0.5000 
     74 N          -2.9448  -22.7929  -45.3471 N.am      13 UNK        -0.5000 
     75 CA         -3.1968  -24.2292  -45.2720 C.3       13 UNK         0.1400 
     76 CB         -2.1551  -24.8854  -44.3520 C.3       13 UNK        -0.1800 
     77 C          -3.2207  -24.9127  -46.6512 C.2       13 UNK         0.5000 
     78 O          -4.1931  -25.5998  -46.9661 O.2       13 UNK        -0.5000 
     79 N          -2.1442  -24.7457  -47.4314 N.am      14 UNK        -0.5000 
     80 CA         -1.9225  -25.4843  -48.6746 C.3       14 UNK         0.1400 
     81 CB         -0.4178  -25.7451  -48.8553 C.3       14 UNK        -0.1800 
     82 C          -2.4978  -24.7593  -49.8991 C.2       14 UNK         0.5000 
     83 O          -3.2353  -25.3694  -50.6736 O.2       14 UNK        -0.5000 
     84 N          -2.1373  -23.4800  -50.0665 N.am      15 UNK        -0.5000 
     85 CA         -2.4956  -22.6825  -51.2433 C.3       15 UNK         0.1400 
     86 CB         -1.3780  -21.6634  -51.5187 C.3       15 UNK        -0.1800 
     87 C          -3.8551  -21.9754  -51.1099 C.2       15 UNK         0.5000 
     88 O          -4.3446  -21.4348  -52.1036 O.2       15 UNK        -0.5000 
     89 N          -4.4193  -21.9579  -49.8932 N.am      16 UNK        -0.5000 
     90 CA         -5.6460  -21.2584  -49.4968 C.3       16 UNK         0.1400 
     91 CB         -6.8776  -21.8838  -50.1843 C.3       16 UNK        -0.1800 
     92 C          -5.5402  -19.7341  -49.7073 C.2       16 UNK         0.5000 
     93 O          -6.4905  -19.1109  -50.1769 O.2       16 UNK        -0.5000 
     94 N          -4.3580  -19.1693  -49.4123 N.am      17 UNK        -0.5000 
     95 CA         -3.9570  -17.7853  -49.7026 C.3       17 UNK         0.1400 
     96 CB         -4.7664  -16.7840  -48.8531 C.3       17 UNK        -0.1800 
     97 C          -4.0091  -17.4827  -51.2176 C.2       17 UNK         0.5000 
     98 O          -4.4809  -16.4233  -51.6323 O.2       17 UNK        -0.5000 
     99 N          -3.5503  -18.4669  -52.0040 N.am      18 UNK        -0.5000 
    100 CA        -3.5340  -18.5463  -53.4668 C.3       18 UNK         0.1400 
    101 CB        -2.7357  -17.3855  -54.0930 C.3       18 UNK        -0.1800 
    102 C         -4.9215  -18.7324  -54.1180 C.2       18 UNK         0.5000 
    103 O         -4.9968  -18.7661  -55.3470 O.2       18 UNK        -0.5000 
    104 N         -5.9911  -18.9143  -53.3258 N.am      19 UNK        -0.5000 
    105 CA        -7.3447  -19.1821  -53.8268 C.3       19 UNK         0.1400 
    106 CB        -8.3733  -18.9929  -52.7033 C.3       19 UNK        -0.1800 
    107 C         -7.4920  -20.5782  -54.4633 C.2       19 UNK         0.5000 
    108 O         -8.3622  -20.7598  -55.3152 O.2       19 UNK        -0.5000 
    109 N         -6.6211  -21.5243  -54.0805 N.am      20 UNK        -0.5000 
    110 CA        -6.5046  -22.8484  -54.6987 C.3       20 UNK         0.1400 
    111 CB        -6.0669  -23.8650  -53.6300 C.3       20 UNK        -0.1800 
    112 C         -5.5303  -22.8473  -55.8974 C.2       20 UNK         0.5000 
    113 O         -5.1596  -23.9215  -56.3750 O.2       20 UNK        -0.5000 
    114 N         -5.0865  -21.6551  -56.3321 N.am      21 UNK        -0.5000 
    115 CA        -4.1301  -21.3899  -57.4146 C.3       21 UNK         0.1400 
    116 CB        -4.7317  -21.7890  -58.7780 C.3       21 UNK        -0.1800 
    117 C         -2.7399  -22.0150  -57.1715 C.2       21 UNK         0.5000 
    118 O         -2.0066  -22.2693  -58.1285 O.2       21 UNK        -0.5000 
    119 N         -2.4171  -22.2657  -55.8940 N.am      22 UNK        -0.5000 
    120 CA        -1.2174  -22.9756  -55.4201 C.3       22 UNK         0.1400 
    121 C         -1.1621  -24.4807  -55.8316 C.2       22 UNK         0.5000 
    122 N         -2.2707  -25.1038  -56.2189 N.am      22 UNK        -0.7600 
    123 O         -0.1088  -25.1086  -55.7673 O.2       22 UNK        -0.5000 
    124 C124        0.0976  -22.2029  -55.7222 C.3       23 UNK        -0.0398 
    125 S125        0.1138  -20.5655  -54.9115 S.3       23 UNK        -0.2404 
    126 C126        1.5020  -20.7794  -53.7469 C.3       23 UNK        -0.0205 
    127 H127        3.3555  -15.6597  -47.2329 H         1 UNK         0.0600 
    128 H128        3.5008  -15.0133  -48.8688 H         1 UNK         0.0600 
    129 H129        3.8331  -13.9764  -47.4760 H         1 UNK         0.0600 
    130 H130        1.5816  -14.4064  -49.7983 H         1 UNK         0.3000 
    131 H131       -0.8959  -14.6715  -48.5183 H         1 UNK         0.0600 
    132 H132       -1.8208  -13.7646  -50.7438 H         1 UNK         0.0800 
    133 H133       -0.1743  -13.5351  -51.2715 H         1 UNK         0.0800 
    134 H134        1.5023  -15.3271  -51.6377 H         1 UNK         0.0800 
    135 H135        0.5833  -15.8066  -53.0478 H         1 UNK         0.0800 
    136 H136        0.7186  -18.1034  -53.7890 H         1 UNK         0.1150 
    137 H137        2.4908  -21.0865  -51.2627 H         1 UNK         0.1150 
    138 H138        1.9946  -17.0733  -49.8450 H         1 UNK         0.1150 
    139 H139        2.7193  -20.6317  -48.8969 H         1 UNK         0.0800 
    140 H140        3.9939  -19.4637  -49.1354 H         1 UNK         0.0800 
    141 H141        0.1108  -18.2741  -46.8552 H         1 UNK         0.0800 
    142 H142        0.1255  -18.4769  -48.5812 H         1 UNK         0.0800 
    143 H143        0.3174  -20.8974  -48.3755 H         1 UNK         0.0600 
    144 H144        1.2382  -20.4229  -45.7094 H         1 UNK         0.3000 
    145 H145        1.0250  -23.7931  -44.6023 H         1 UNK         0.0600 
    146 H146        3.4761  -23.5328  -44.3863 H         1 UNK         0.0600 
    147 H147        3.0475  -23.7777  -46.0718 H         1 UNK         0.0600 
    148 H148        3.4613  -22.1654  -45.5011 H         1 UNK         0.0600 
    149 H149        2.2571  -21.6383  -43.3403 H         1 UNK         0.3000 
    150 H150        0.3345  -19.6855  -42.1697 H         1 UNK         0.0600 
    151 H151       -1.7142  -20.7203  -41.2766 H         1 UNK         0.0600 
    152 H152       -0.6236  -20.3812  -39.9418 H         1 UNK         0.0600 
    153 H153       -0.8014  -22.0262  -40.5463 H         1 UNK         0.0600 
    154 H154        2.2675  -20.0101  -41.1962 H         1 UNK         0.3000 
    155 H155        3.6707  -22.3348  -39.0950 H         1 UNK         0.0600 
    156 H156        4.3245  -23.6999  -41.0800 H         1 UNK         0.0600 
    157 H157        5.6460  -22.6623  -40.5727 H         1 UNK         0.0600 
    158 H158        4.6848  -22.2382  -41.9898 H         1 UNK         0.0600 
    159 H159        4.8067  -20.1847  -40.6722 H         1 UNK         0.3000 
    160 H160        4.7715  -17.9837  -38.0856 H         1 UNK         0.0600 
    161 H161        5.2881  -18.2406  -41.1032 H         1 UNK         0.0600 
    162 H162        6.0160  -17.0733  -40.0103 H         1 UNK         0.0600 
    163 H163        6.3796  -18.7774  -39.8258 H         1 UNK         0.0600 
    164 H164        3.2701  -16.4812  -38.6918 H         1 UNK         0.3000 
    165 H165        1.3222  -15.6888  -39.5022 H         1 UNK         0.0600 
    166 H166        1.6520  -13.9030  -41.1648 H         1 UNK         0.0600 
    167 H167        3.2202  -14.5481  -40.7210 H         1 UNK         0.0600 
    168 H168        2.4938  -15.0062  -42.2564 H         1 UNK         0.0600 
    169 H169        0.2682  -15.9241  -42.1731 H         1 UNK         0.3000 
    170 H170       -1.8248  -18.4410  -41.9630 H         1 UNK         0.0600 
    171 H171       -3.2616  -17.5922  -40.1230 H         1 UNK         0.0600 
    172 H172       -3.1699  -15.9593  -40.7756 H         1 UNK         0.0600 
    173 H173       -3.9820  -17.2347  -41.6833 H         1 UNK         0.0600 
    174 H174       -2.1673  -15.7048  -42.9995 H         1 UNK         0.3000 
    175 H175       -0.3892  -16.3514  -45.9843 H         1 UNK         0.0600 
    176 H176       -3.3786  -15.9494  -45.4712 H         1 UNK         0.0600 
    177 H177       -2.5325  -15.5685  -46.9684 H         1 UNK         0.0600 
    178 H178       -2.6533  -17.2353  -46.4264 H         1 UNK         0.0600 
    179 H179       -0.0501  -14.3321  -45.4557 H         1 UNK         0.3000 
    180 H180       -1.8230  -11.7017  -43.8546 H         1 UNK         0.0600 
    181 H181       -0.2774  -12.6234  -42.1212 H         1 UNK         0.0600 
    182 H182        0.9585  -12.8881  -43.3500 H         1 UNK         0.0600 
    183 H183        0.4418  -11.2515  -42.9504 H         1 UNK         0.0600 
    184 H184        0.1063  -12.5756  -45.9587 H         1 UNK         0.3000 
    185 H185       -0.8470   -9.8773  -47.9798 H         1 UNK         0.0600 
    186 H186        1.0346   -8.7306  -46.7989 H         1 UNK         0.0600 
    187 H187        1.9600  -10.2272  -46.7910 H         1 UNK         0.0600 
    188 H188        1.5748   -9.4292  -48.3169 H         1 UNK         0.0600 
    189 H189        1.0957  -11.9817  -48.2729 H         1 UNK         0.3000 
    190 H190       -1.3534  -20.0773  -45.3229 H         1 UNK         0.3000 
    191 H191       -3.9925  -19.8887  -46.5172 H         1 UNK         0.0600 
    192 H192       -3.0537  -20.1864  -43.6174 H         1 UNK         0.0600 
    193 H193       -4.7270  -19.9449  -44.1041 H         1 UNK         0.0600 
    194 H194       -3.5392  -18.6990  -44.4305 H         1 UNK         0.0600 
    195 H195       -2.0693  -22.4601  -44.9540 H         1 UNK         0.3000 
    196 H196       -4.1774  -24.3753  -44.8137 H         1 UNK         0.0600 
    197 H197       -2.3422  -25.9550  -44.2505 H         1 UNK         0.0600 
    198 H198       -2.1850  -24.4530  -43.3516 H         1 UNK         0.0600 
    199 H199       -1.1429  -24.7646  -44.7369 H         1 UNK         0.0600 
    200 H200       -1.3826  -24.1473  -47.1166 H         1 UNK         0.3000 
    201 H201       -2.4111  -26.4590  -48.6068 H         1 UNK         0.0600 
    202 H202       -0.0103  -26.2974  -48.0085 H         1 UNK         0.0600 
    203 H203        0.1496  -24.8191  -48.9528 H         1 UNK         0.0600 
    204 H204       -0.2306  -26.3385  -49.7511 H         1 UNK         0.0600 
    205 H205       -1.5532  -23.0362  -49.3718 H         1 UNK         0.3000 
    206 H206       -2.5640  -23.3376  -52.1143 H         1 UNK         0.0600 
    207 H207       -0.4201  -22.1629  -51.6608 H         1 UNK         0.0600 
    208 H208       -1.5813  -21.0944  -52.4260 H         1 UNK         0.0600 
    209 H209       -1.2604  -20.9465  -50.7073 H         1 UNK         0.0600 
    210 H210       -3.9048  -22.3982  -49.1437 H         1 UNK         0.3000 
    211 H211       -5.7652  -21.4053  -48.4259 H         1 UNK         0.0600 
    212 H212       -6.8701  -21.7201  -51.2609 H         1 UNK         0.0600 
    213 H213       -7.8016  -21.4538  -49.7962 H         1 UNK         0.0600 
    214 H214       -6.9218  -22.9587  -50.0098 H         1 UNK         0.0600 
    215 H215       -3.6217  -19.7706  -49.0464 H         1 UNK         0.3000 
    216 H216       -2.9105  -17.7004  -49.4054 H         1 UNK         0.0600 
    217 H217       -4.7533  -17.0578  -47.7987 H         1 UNK         0.0600 
    218 H218       -5.8085  -16.7313  -49.1694 H         1 UNK         0.0600 
    219 H219       -4.3495  -15.7797  -48.9365 H         1 UNK         0.0600 
    220 H220       -3.2520  -19.3134  -51.5421 H         1 UNK         0.3000 
    221 H221       -2.9881  -19.4621  -53.6968 H         1 UNK         0.0600 
    222 H222       -3.2364  -16.4264  -53.9613 H         1 UNK         0.0600 
    223 H223       -1.7422  -17.3108  -53.6519 H         1 UNK         0.0600 
    224 H224       -2.5999  -17.5373  -55.1643 H         1 UNK         0.0600 
    225 H225       -5.8733  -18.8968  -52.3203 H         1 UNK         0.3000 
    226 H226       -7.5620  -18.4444  -54.6022 H         1 UNK         0.0600 
    227 H227       -8.2544  -18.0267  -52.2126 H         1 UNK         0.0600 
    228 H228       -9.3891  -19.0352  -53.0979 H         1 UNK         0.0600 
    229 H229       -8.2901  -19.7708  -51.9447 H         1 UNK         0.0600 
    230 H230       -5.9248  -21.2984  -53.3760 H         1 UNK         0.3000 
    231 H231       -7.4805  -23.1611  -55.0750 H         1 UNK         0.0600 
    232 H232       -5.0378  -23.7009  -53.3116 H         1 UNK         0.0600 
    233 H233       -6.7052  -23.8162  -52.7478 H         1 UNK         0.0600 
    234 H234       -6.1263  -24.8838  -54.0146 H         1 UNK         0.0600 
    235 H235       -5.4233  -20.8247  -55.8600 H         1 UNK         0.3000 
    236 H236       -3.9748  -20.3104  -57.4266 H         1 UNK         0.0600 
    237 H237       -5.7103  -21.3321  -58.9255 H         1 UNK         0.0600 
    238 H238       -4.0950  -21.4590  -59.5996 H         1 UNK         0.0600 
    239 H239       -4.8482  -22.8693  -58.8690 H         1 UNK         0.0600 
    240 H240       -3.0919  -22.0223  -55.1852 H         1 UNK         0.3000 
    241 H241       -1.3171  -23.0119  -54.3351 H         1 UNK         0.0600 
    242 H242       -2.2245  -26.0782  -56.4713 H         1 UNK         0.3800 
    243 H243       -3.1569  -24.6158  -56.2769 H         1 UNK         0.3800 
    244 H244        0.2338  -22.0652  -56.7950 H         1 UNK         0.0800 
    245 H245        0.9657  -22.7726  -55.3879 H         1 UNK         0.0800 
    246 H246        2.4363  -20.7863  -54.3096 H         1 UNK         0.0800 
    247 H247        1.4106  -21.7621  -53.2820 H         1 UNK         0.0800 
@<TRIPOS>BOND
     1    1    2 1    
     2    1  127 1    
     3    1  128 1    
     4    1  129 1    
     5    2    3 2    
     6    2    4 am   BACKBONE|DICT|INTERRES
     7    4    5 1    
     8    4  130 1    
     9    5    6 1    
    10    5   65 1    
    11    5  131 1    
    12    6    7 1    
    13    6  132 1    
    14    6  133 1    
    15    7    8 1    
    16    8    9 1    
    17    8  134 1    
    18    8  135 1    
    19    9   10 ar   
    20    9   14 ar   
    21   10   11 ar   
    22   10  136 1    
    23   11   12 ar   
    24   11  126 1    
    25   12   13 ar   
    26   12  137 1    
    27   13   14 ar   
    28   13   15 1    
    29   14  138 1    
    30   15   16 1    
    31   15  139 1    
    32   15  140 1    
    33   16   17 1    
    34   17   18 1    
    35   17  141 1    
    36   17  142 1    
    37   18   19 1    
    38   18   67 1    
    39   18  143 1    
    40   19   20 am   BACKBONE|DICT|INTERRES
    41   19  144 1    
    42   20   21 2    
    43   20   22 1    
    44   22   23 1    
    45   22   24 1    
    46   22  145 1    
    47   23  146 1    
    48   23  147 1    
    49   23  148 1    
    50   24   25 am   BACKBONE|DICT|INTERRES
    51   24  149 1    
    52   25   26 2    
    53   25   27 1    
    54   27   28 1    
    55   27   29 1    
    56   27  150 1    
    57   28  151 1    
    58   28  152 1    
    59   28  153 1    
    60   29   30 am   BACKBONE|DICT|INTERRES
    61   29  154 1    
    62   30   31 2    
    63   30   32 1    
    64   32   33 1    
    65   32   34 1    
    66   32  155 1    
    67   33  156 1    
    68   33  157 1    
    69   33  158 1    
    70   34   35 am   BACKBONE|DICT|INTERRES
    71   34  159 1    
    72   35   36 2    
    73   35   37 1    
    74   37   38 1    
    75   37   39 1    
    76   37  160 1    
    77   38  161 1    
    78   38  162 1    
    79   38  163 1    
    80   39   40 am   BACKBONE|DICT|INTERRES
    81   39  164 1    
    82   40   41 2    
    83   40   42 1    
    84   42   43 1    
    85   42   44 1    
    86   42  165 1    
    87   43  166 1    
    88   43  167 1    
    89   43  168 1    
    90   44   45 am   BACKBONE|DICT|INTERRES
    91   44  169 1    
    92   45   46 2    
    93   45   47 1    
    94   47   48 1    
    95   47   49 1    
    96   47  170 1    
    97   48  171 1    
    98   48  172 1    
    99   48  173 1    
   100   49   50 am   BACKBONE|DICT|INTERRES
   101   49  174 1    
   102   50   51 2    
   103   50   52 1    
   104   52   53 1    
   105   52   54 1    
   106   52  175 1    
   107   53  176 1    
   108   53  177 1    
   109   53  178 1    
   110   54   55 am   BACKBONE|DICT|INTERRES
   111   54  179 1    
   112   55   56 2    
   113   55   57 1    
   114   57   58 1    
   115   57   59 1    
   116   57  180 1    
   117   58  181 1    
   118   58  182 1    
   119   58  183 1    
   120   59   60 am   BACKBONE|DICT|INTERRES
   121   59  184 1    
   122   60   61 2    
   123   60   62 1    
   124   62   63 1    
   125   62   64 1    
   126   62  185 1    
   127   63  186 1    
   128   63  187 1    
   129   63  188 1    
   130   64   65 am   BACKBONE|DICT|INTERRES
   131   64  189 1    
   132   65   66 2    
   133   67   68 2    
   134   67   69 am   BACKBONE|DICT|INTERRES
   135   69   70 1    
   136   69  190 1    
   137   70   71 1    
   138   70   72 1    
   139   70  191 1    
   140   71  192 1    
   141   71  193 1    
   142   71  194 1    
   143   72   73 2    
   144   72   74 am   BACKBONE|DICT|INTERRES
   145   74   75 1    
   146   74  195 1    
   147   75   76 1    
   148   75   77 1    
   149   75  196 1    
   150   76  197 1    
   151   76  198 1    
   152   76  199 1    
   153   77   78 2    
   154   77   79 am   BACKBONE|DICT|INTERRES
   155   79   80 1    
   156   79  200 1    
   157   80   81 1    
   158   80   82 1    
   159   80  201 1    
   160   81  202 1    
   161   81  203 1    
   162   81  204 1    
   163   82   83 2    
   164   82   84 am   BACKBONE|DICT|INTERRES
   165   84   85 1    
   166   84  205 1    
   167   85   86 1    
   168   85   87 1    
   169   85  206 1    
   170   86  207 1    
   171   86  208 1    
   172   86  209 1    
   173   87   88 2    
   174   87   89 am   BACKBONE|DICT|INTERRES
   175   89   90 1    
   176   89  210 1    
   177   90   91 1    
   178   90   92 1    
   179   90  211 1    
   180   91  212 1    
   181   91  213 1    
   182   91  214 1    
   183   92   93 2    
   184   92   94 am   BACKBONE|DICT|INTERRES
   185   94   95 1    
   186   94  215 1    
   187   95   96 1    
   188   95   97 1    
   189   95  216 1    
   190   96  217 1    
   191   96  218 1    
   192   96  219 1    
   193   97   98 2    
   194   97   99 am   BACKBONE|DICT|INTERRES
   195   99  100 1    
   196   99  220 1    
   197  100  101 1    
   198  100  102 1    
   199  100  221 1    
   200  101  222 1    
   201  101  223 1    
   202  101  224 1    
   203  102  103 2    
   204  102  104 am   BACKBONE|DICT|INTERRES
   205  104  105 1    
   206  104  225 1    
   207  105  106 1    
   208  105  107 1    
   209  105  226 1    
   210  106  227 1    
   211  106  228 1    
   212  106  229 1    
   213  107  108 2    
   214  107  109 am   BACKBONE|DICT|INTERRES
   215  109  110 1    
   216  109  230 1    
   217  110  111 1    
   218  110  112 1    
   219  110  231 1    
   220  111  232 1    
   221  111  233 1    
   222  111  234 1    
   223  112  113 2    
   224  112  114 am   BACKBONE|DICT|INTERRES
   225  114  115 1    
   226  114  235 1    
   227  115  116 1    
   228  115  117 1    
   229  115  236 1    
   230  116  237 1    
   231  116  238 1    
   232  116  239 1    
   233  117  118 2    
   234  117  119 am   BACKBONE|DICT|INTERRES
   235  119  120 1    
   236  119  240 1    
   237  120  121 1    
   238  120  124 1    
   239  120  241 1    
   240  121  122 am   BACKBONE|DICT|INTERRES
   241  121  123 2    
   242  122  242 1    
   243  122  243 1    
   244  124  125 1    
   245  124  244 1    
   246  124  245 1    
   247  125  126 1    
   248  126  246 1    
   249  126  247 1    
@<TRIPOS>SUBSTRUCTURE
     1 UNK         1 GROUP             0       ****    0 ROOT    
