@<TRIPOS>MOLECULE
3R540
247   249    1
SMALL
USER_CHARGES


@<TRIPOS>ATOM
      1 CA         -0.4824  -12.4985  -47.8631 C.3       0 UNK        -0.1800 
      2 C          -1.7504  -12.5845  -47.0291 C.2       0 UNK         0.5000 
      3 O          -2.6594  -11.7784  -47.2212 O.2       0 UNK        -0.5000 
      4 N          -1.8109  -13.5716  -46.1253 N.am      1 UNK        -0.5000 
      5 CA         -2.9566  -13.9529  -45.2851 C.3       1 UNK         0.1400 
      6 C6         -4.0812  -14.6468  -46.1039 C.3       23 UNK        -0.0398 
      7 S7         -3.5324  -16.2392  -46.8098 S.3       23 UNK        -0.2404 
      8 C8         -3.0682  -15.7457  -48.5063 C.3       23 UNK        -0.0205 
      9 C9         -1.8864  -16.5227  -49.0830 C.ar      23 UNK        -0.0193 
     10 C10        -1.8365  -16.7644  -50.4593 C.ar      23 UNK        -0.1150 
     11 C11        -0.7533  -17.4398  -51.0276 C.ar      23 UNK        -0.0193 
     12 C12         0.2948  -17.8696  -50.2101 C.ar      23 UNK        -0.1150 
     13 C13         0.2563  -17.6482  -48.8317 C.ar      23 UNK        -0.0193 
     14 C14        -0.8285  -16.9634  -48.2774 C.ar      23 UNK        -0.1150 
     15 C15         1.3873  -18.1465  -47.9428 C.3       23 UNK        -0.0205 
     16 S16         1.5202  -19.9652  -47.9382 S.3       23 UNK        -0.2404 
     17 C17        -0.0437  -20.4498  -47.1347 C.3       23 UNK        -0.0398 
     18 CA         -0.3600  -21.9585  -47.2930 C.3       11 UNK         0.1400 
     19 N           0.7023  -22.8289  -46.7784 N.am      11 UNK        -0.5000 
     20 C           0.7546  -24.1587  -46.9449 C.2       10 UNK         0.5000 
     21 O          -0.0874  -24.8092  -47.5625 O.2       10 UNK        -0.5000 
     22 CA          1.9162  -24.8925  -46.2507 C.3       10 UNK         0.1400 
     23 CB          3.2159  -24.7393  -47.0551 C.3       10 UNK        -0.1800 
     24 N           2.1318  -24.4227  -44.8817 N.am      10 UNK        -0.5000 
     25 C           1.2483  -24.5614  -43.8824 C.2       9 UNK         0.5000 
     26 O           0.1789  -25.1589  -43.9922 O.2       9 UNK        -0.5000 
     27 CA          1.5916  -23.8655  -42.5516 C.3       9 UNK         0.1400 
     28 CB          2.4289  -24.7924  -41.6581 C.3       9 UNK        -0.1800 
     29 N           2.2942  -22.5902  -42.7249 N.am      9 UNK        -0.5000 
     30 C           1.8081  -21.5357  -43.3930 C.2       8 UNK         0.5000 
     31 O           0.7107  -21.5307  -43.9569 O.2       8 UNK        -0.5000 
     32 CA          2.7391  -20.3137  -43.4986 C.3       8 UNK         0.1400 
     33 CB          3.8087  -20.5542  -44.5764 C.3       8 UNK        -0.1800 
     34 N           2.0196  -19.0843  -43.8291 N.am      8 UNK        -0.5000 
     35 C           1.1280  -18.4738  -43.0373 C.2       7 UNK         0.5000 
     36 O           0.8536  -18.8480  -41.8957 O.2       7 UNK        -0.5000 
     37 CA          0.4949  -17.1998  -43.6169 C.3       7 UNK         0.1400 
     38 CB         -0.4597  -16.4886  -42.6404 C.3       7 UNK        -0.1800 
     39 N           1.5675  -16.2986  -44.0268 N.am      7 UNK        -0.5000 
     40 C           1.4993  -15.3866  -44.9984 C.2       6 UNK         0.5000 
     41 O           0.4734  -15.1375  -45.6320 O.2       6 UNK        -0.5000 
     42 CA          2.7999  -14.6117  -45.2768 C.3       6 UNK         0.1400 
     43 CB          2.8186  -13.9648  -46.6704 C.3       6 UNK        -0.1800 
     44 N           3.0139  -13.5824  -44.2616 N.am      6 UNK        -0.5000 
     45 C           3.5071  -13.8112  -43.0350 C.2       5 UNK         0.5000 
     46 O           3.8469  -14.9325  -42.6507 O.2       5 UNK        -0.5000 
     47 CA          3.6203  -12.6109  -42.0686 C.3       5 UNK         0.1400 
     48 CB          4.8335  -12.7206  -41.1213 C.3       5 UNK        -0.1800 
     49 N           3.5808  -11.3040  -42.7338 N.am      5 UNK        -0.5000 
     50 C           4.4770  -10.7833  -43.5882 C.2       4 UNK         0.5000 
     51 O           5.5395  -11.3329  -43.8825 O.2       4 UNK        -0.5000 
     52 CA          4.1126   -9.4225  -44.2314 C.3       4 UNK         0.1400 
     53 CB          4.7228   -9.2535  -45.6389 C.3       4 UNK        -0.1800 
     54 N           2.6679   -9.1450  -44.2594 N.am      4 UNK        -0.5000 
     55 C           1.7239   -9.8850  -44.8577 C.2       3 UNK         0.5000 
     56 O           1.9575  -10.9011  -45.5143 O.2       3 UNK        -0.5000 
     57 CA          0.2641   -9.4509  -44.6279 C.3       3 UNK         0.1400 
     58 CB         -0.3084   -8.7794  -45.8849 C.3       3 UNK        -0.1800 
     59 N          -0.5870  -10.5839  -44.2581 N.am      3 UNK        -0.5000 
     60 C          -0.3804  -11.4036  -43.2166 C.2       2 UNK         0.5000 
     61 O           0.5244  -11.2443  -42.3948 O.2       2 UNK        -0.5000 
     62 CA         -1.3504  -12.5899  -43.0744 C.3       2 UNK         0.1400 
     63 CB         -1.4185  -13.1252  -41.6330 C.3       2 UNK        -0.1800 
     64 N          -2.6988  -12.2045  -43.5026 N.am      2 UNK        -0.5000 
     65 C          -3.4839  -12.7685  -44.4331 C.2       1 UNK         0.5000 
     66 O          -4.6190  -12.3367  -44.6345 O.2       1 UNK        -0.5000 
     67 C          -1.7103  -22.2902  -46.6321 C.2       11 UNK         0.5000 
     68 O          -2.7204  -22.3842  -47.3286 O.2       11 UNK        -0.5000 
     69 N          -1.6921  -22.4965  -45.3073 N.am      12 UNK        -0.5000 
     70 CA         -2.8496  -22.8922  -44.5072 C.3       12 UNK         0.1400 
     71 CB         -2.4847  -22.8430  -43.0162 C.3       12 UNK        -0.1800 
     72 C          -3.3982  -24.2764  -44.8994 C.2       12 UNK         0.5000 
     73 O          -4.6091  -24.4162  -45.0701 O.2       12 UNK        -0.5000 
     74 N          -2.5028  -25.2592  -45.0777 N.am      13 UNK        -0.5000 
     75 CA         -2.8311  -26.6193  -45.5147 C.3       13 UNK         0.1400 
     76 CB         -1.5874  -27.5127  -45.3941 C.3       13 UNK        -0.1800 
     77 C          -3.3993  -26.6736  -46.9451 C.2       13 UNK         0.5000 
     78 O          -4.3231  -27.4456  -47.2040 O.2       13 UNK        -0.5000 
     79 N          -2.8588  -25.8335  -47.8373 N.am      14 UNK        -0.5000 
     80 CA         -3.3297  -25.6547  -49.2118 C.3       14 UNK         0.1400 
     81 CB         -2.2308  -24.9374  -50.0102 C.3       14 UNK        -0.1800 
     82 C          -4.6551  -24.8716  -49.3136 C.2       14 UNK         0.5000 
     83 O          -5.2868  -24.8994  -50.3693 O.2       14 UNK        -0.5000 
     84 N          -5.0341  -24.1714  -48.2335 N.am      15 UNK        -0.5000 
     85 CA         -6.1370  -23.2104  -48.1374 C.3       15 UNK         0.1400 
     86 CB         -7.5052  -23.9074  -48.2855 C.3       15 UNK        -0.1800 
     87 C          -5.9404  -22.0063  -49.0840 C.2       15 UNK         0.5000 
     88 O          -6.9006  -21.5127  -49.6798 O.2       15 UNK        -0.5000 
     89 N          -4.6793  -21.5602  -49.1884 N.am      16 UNK        -0.5000 
     90 CA         -4.1816  -20.4397  -49.9834 C.3       16 UNK         0.1400 
     91 CB         -4.5513  -19.1117  -49.2883 C.3       16 UNK        -0.1800 
     92 C          -4.6162  -20.5274  -51.4617 C.2       16 UNK         0.5000 
     93 O          -4.2937  -21.5097  -52.1342 O.2       16 UNK        -0.5000 
     94 N          -5.3489  -19.5104  -51.9349 N.am      17 UNK        -0.5000 
     95 CA         -5.8008  -19.3313  -53.3149 C.3       17 UNK         0.1400 
     96 CB         -6.5155  -17.9764  -53.4268 C.3       17 UNK        -0.1800 
     97 C          -6.6924  -20.4615  -53.8658 C.2       17 UNK         0.5000 
     98 O          -6.8153  -20.5743  -55.0852 O.2       17 UNK        -0.5000 
     99 N          -7.2598  -21.3039  -52.9891 N.am      18 UNK        -0.5000 
    100 CA        -8.0113  -22.5075  -53.3558 C.3       18 UNK         0.1400 
    101 CB        -8.6039  -23.1374  -52.0882 C.3       18 UNK        -0.1800 
    102 C         -7.1676  -23.5475  -54.1229 C.2       18 UNK         0.5000 
    103 O         -7.7152  -24.2707  -54.9558 O.2       18 UNK        -0.5000 
    104 N         -5.8543  -23.5840  -53.8556 N.am      19 UNK        -0.5000 
    105 CA        -4.8871  -24.4269  -54.5613 C.3       19 UNK         0.1400 
    106 CB        -3.7774  -24.8281  -53.5786 C.3       19 UNK        -0.1800 
    107 C         -4.2773  -23.7344  -55.7958 C.2       19 UNK         0.5000 
    108 O         -3.5007  -24.3697  -56.5104 O.2       19 UNK        -0.5000 
    109 N         -4.5903  -22.4458  -56.0039 N.am      20 UNK        -0.5000 
    110 CA        -4.0911  -21.5152  -57.0270 C.3       20 UNK         0.1400 
    111 CB        -4.4260  -22.0014  -58.4498 C.3       20 UNK        -0.1800 
    112 C         -2.5951  -21.1690  -56.8858 C.2       20 UNK         0.5000 
    113 O         -2.2445  -19.9894  -56.8636 O.2       20 UNK        -0.5000 
    114 N         -1.7466  -22.1965  -56.7727 N.am      21 UNK        -0.5000 
    115 CA        -0.3049  -22.0933  -56.5439 C.3       21 UNK         0.1400 
    116 CB         0.3638  -23.3718  -57.0730 C.3       21 UNK        -0.1800 
    117 C          0.0550  -21.8719  -55.0605 C.2       21 UNK         0.5000 
    118 O          1.1973  -21.5162  -54.7689 O.2       21 UNK        -0.5000 
    119 N         -0.9121  -22.0956  -54.1590 N.am      22 UNK        -0.5000 
    120 CA        -0.8010  -21.9447  -52.6955 C.3       22 UNK         0.1400 
    121 C          0.1124  -23.0005  -52.0005 C.2       22 UNK         0.5000 
    122 N          0.4149  -24.1286  -52.6320 N.am      22 UNK        -0.7600 
    123 O          0.5326  -22.8131  -50.8631 O.2       22 UNK        -0.5000 
    124 C124       -0.4753  -20.4932  -52.2433 C.3       23 UNK        -0.0398 
    125 S125       -1.5984  -19.2390  -52.9515 S.3       23 UNK        -0.2404 
    126 C126       -0.7182  -17.7061  -52.5243 C.3       23 UNK        -0.0205 
    127 H127        0.2076  -11.7761  -47.4294 H         1 UNK         0.0600 
    128 H128       -0.7169  -12.1814  -48.8792 H         1 UNK         0.0600 
    129 H129        0.0148  -13.4670  -47.9237 H         1 UNK         0.0600 
    130 H130       -0.9976  -14.1790  -46.0243 H         1 UNK         0.3000 
    131 H131       -2.5891  -14.6937  -44.5749 H         1 UNK         0.0600 
    132 H132       -4.4565  -13.9936  -46.8934 H         1 UNK         0.0800 
    133 H133       -4.9366  -14.8666  -45.4628 H         1 UNK         0.0800 
    134 H134       -2.8142  -14.6883  -48.5387 H         1 UNK         0.0800 
    135 H135       -3.9467  -15.8640  -49.1419 H         1 UNK         0.0800 
    136 H136       -2.6434  -16.4262  -51.0943 H         1 UNK         0.1150 
    137 H137        1.1347  -18.3953  -50.6422 H         1 UNK         0.1150 
    138 H138       -0.8453  -16.7736  -47.2142 H         1 UNK         0.1150 
    139 H139        2.3281  -17.7239  -48.2976 H         1 UNK         0.0800 
    140 H140        1.2596  -17.7955  -46.9184 H         1 UNK         0.0800 
    141 H141       -0.8525  -19.8600  -47.5698 H         1 UNK         0.0800 
    142 H142        0.0098  -20.1652  -46.0832 H         1 UNK         0.0800 
    143 H143       -0.4624  -22.1685  -48.3599 H         1 UNK         0.0600 
    144 H144        1.4092  -22.3794  -46.2171 H         1 UNK         0.3000 
    145 H145        1.6630  -25.9540  -46.2083 H         1 UNK         0.0600 
    146 H146        3.0835  -25.0919  -48.0789 H         1 UNK         0.0600 
    147 H147        4.0241  -25.3223  -46.6133 H         1 UNK         0.0600 
    148 H148        3.5403  -23.6991  -47.1061 H         1 UNK         0.0600 
    149 H149        2.9864  -23.9182  -44.7001 H         1 UNK         0.3000 
    150 H150        0.6512  -23.6561  -42.0382 H         1 UNK         0.0600 
    151 H151        1.9189  -25.7431  -41.4962 H         1 UNK         0.0600 
    152 H152        2.6004  -24.3469  -40.6781 H         1 UNK         0.0600 
    153 H153        3.4002  -25.0124  -42.1028 H         1 UNK         0.0600 
    154 H154        3.2076  -22.5215  -42.2994 H         1 UNK         0.3000 
    155 H155        3.2322  -20.1706  -42.5349 H         1 UNK         0.0600 
    156 H156        3.3631  -20.7108  -45.5593 H         1 UNK         0.0600 
    157 H157        4.4119  -21.4333  -44.3466 H         1 UNK         0.0600 
    158 H158        4.4917  -19.7077  -44.6501 H         1 UNK         0.0600 
    159 H159        2.1836  -18.7071  -44.7497 H         1 UNK         0.3000 
    160 H160       -0.0770  -17.5050  -44.4961 H         1 UNK         0.0600 
    161 H161        0.0690  -16.1096  -41.7652 H         1 UNK         0.0600 
    162 H162       -1.2409  -17.1647  -42.2909 H         1 UNK         0.0600 
    163 H163       -0.9563  -15.6509  -43.1240 H         1 UNK         0.0600 
    164 H164        2.4375  -16.3843  -43.5121 H         1 UNK         0.3000 
    165 H165        3.6258  -15.3256  -45.2437 H         1 UNK         0.0600 
    166 H166        2.6331  -14.7049  -47.4499 H         1 UNK         0.0600 
    167 H167        3.7853  -13.5055  -46.8772 H         1 UNK         0.0600 
    168 H168        2.0593  -13.1914  -46.7634 H         1 UNK         0.0600 
    169 H169        2.7327  -12.6411  -44.5129 H         1 UNK         0.3000 
    170 H170        2.7239  -12.6519  -41.4484 H         1 UNK         0.0600 
    171 H171        4.7633  -13.6129  -40.4982 H         1 UNK         0.0600 
    172 H172        5.7740  -12.7817  -41.6693 H         1 UNK         0.0600 
    173 H173        4.8895  -11.8633  -40.4506 H         1 UNK         0.0600 
    174 H174        2.7174  -10.7933  -42.5919 H         1 UNK         0.3000 
    175 H175        4.5556   -8.6612  -43.5880 H         1 UNK         0.0600 
    176 H176        4.3851  -10.0325  -46.3233 H         1 UNK         0.0600 
    177 H177        4.4567   -8.2889  -46.0711 H         1 UNK         0.0600 
    178 H178        5.8117   -9.3009  -45.6031 H         1 UNK         0.0600 
    179 H179        2.3757   -8.3392  -43.7234 H         1 UNK         0.3000 
    180 H180        0.2316   -8.7328  -43.8061 H         1 UNK         0.0600 
    181 H181       -1.3252   -8.4249  -45.7153 H         1 UNK         0.0600 
    182 H182       -0.3298   -9.4636  -46.7338 H         1 UNK         0.0600 
    183 H183        0.2924   -7.9163  -46.1745 H         1 UNK         0.0600 
    184 H184       -1.3557  -10.7890  -44.8796 H         1 UNK         0.3000 
    185 H185       -0.9334  -13.3787  -43.6965 H         1 UNK         0.0600 
    186 H186       -2.1100  -13.9643  -41.5557 H         1 UNK         0.0600 
    187 H187       -0.4428  -13.4800  -41.2981 H         1 UNK         0.0600 
    188 H188       -1.7478  -12.3557  -40.9338 H         1 UNK         0.0600 
    189 H189       -3.0732  -11.4064  -43.0093 H         1 UNK         0.3000 
    190 H190       -0.8171  -22.3570  -44.8089 H         1 UNK         0.3000 
    191 H191       -3.6390  -22.1591  -44.6862 H         1 UNK         0.0600 
    192 H192       -3.3510  -23.0746  -42.3955 H         1 UNK         0.0600 
    193 H193       -2.1319  -21.8523  -42.7285 H         1 UNK         0.0600 
    194 H194       -1.7030  -23.5606  -42.7680 H         1 UNK         0.0600 
    195 H195       -1.5243  -25.0772  -44.8703 H         1 UNK         0.3000 
    196 H196       -3.5961  -27.0101  -44.8407 H         1 UNK         0.0600 
    197 H197       -0.7667  -27.1441  -46.0107 H         1 UNK         0.0600 
    198 H198       -1.2358  -27.5606  -44.3634 H         1 UNK         0.0600 
    199 H199       -1.8054  -28.5334  -45.7108 H         1 UNK         0.0600 
    200 H200       -2.0516  -25.2814  -47.5632 H         1 UNK         0.3000 
    201 H201       -3.4919  -26.6387  -49.6561 H         1 UNK         0.0600 
    202 H202       -2.0180  -23.9484  -49.6026 H         1 UNK         0.0600 
    203 H203       -2.5200  -24.8046  -51.0510 H         1 UNK         0.0600 
    204 H204       -1.3011  -25.5067  -50.0054 H         1 UNK         0.0600 
    205 H205       -4.4336  -24.2159  -47.4205 H         1 UNK         0.3000 
    206 H206       -6.0903  -22.8019  -47.1270 H         1 UNK         0.0600 
    207 H207       -7.6213  -24.6984  -47.5448 H         1 UNK         0.0600 
    208 H208       -8.3229  -23.2015  -48.1361 H         1 UNK         0.0600 
    209 H209       -7.6348  -24.3538  -49.2703 H         1 UNK         0.0600 
    210 H210       -3.9741  -22.0294  -48.6236 H         1 UNK         0.3000 
    211 H211       -3.0934  -20.5192  -49.9861 H         1 UNK         0.0600 
    212 H212       -4.1727  -18.2553  -49.8445 H         1 UNK         0.0600 
    213 H213       -4.1105  -19.0616  -48.2924 H         1 UNK         0.0600 
    214 H214       -5.6293  -18.9899  -49.1774 H         1 UNK         0.0600 
    215 H215       -5.5928  -18.7717  -51.2921 H         1 UNK         0.3000 
    216 H216       -4.9080  -19.2987  -53.9429 H         1 UNK         0.0600 
    217 H217       -7.4006  -17.9362  -52.7907 H         1 UNK         0.0600 
    218 H218       -6.8385  -17.7865  -54.4514 H         1 UNK         0.0600 
    219 H219       -5.8562  -17.1569  -53.1399 H         1 UNK         0.0600 
    220 H220       -7.0925  -21.1595  -52.0007 H         1 UNK         0.3000 
    221 H221       -8.8338  -22.2012  -54.0052 H         1 UNK         0.0600 
    222 H222       -9.2191  -22.4251  -51.5381 H         1 UNK         0.0600 
    223 H223       -7.8173  -23.4892  -51.4208 H         1 UNK         0.0600 
    224 H224       -9.2333  -23.9937  -52.3335 H         1 UNK         0.0600 
    225 H225       -5.4771  -22.9557  -53.1528 H         1 UNK         0.3000 
    226 H226       -5.3747  -25.3396  -54.9094 H         1 UNK         0.0600 
    227 H227       -3.2807  -23.9538  -53.1585 H         1 UNK         0.0600 
    228 H228       -4.1832  -25.4144  -52.7550 H         1 UNK         0.0600 
    229 H229       -3.0161  -25.4412  -54.0625 H         1 UNK         0.0600 
    230 H230       -5.2656  -22.0345  -55.3715 H         1 UNK         0.3000 
    231 H231       -4.6404  -20.5861  -56.8672 H         1 UNK         0.0600 
    232 H232       -3.9021  -22.9227  -58.7049 H         1 UNK         0.0600 
    233 H233       -4.1438  -21.2527  -59.1909 H         1 UNK         0.0600 
    234 H234       -5.4952  -22.1819  -58.5612 H         1 UNK         0.0600 
    235 H235       -2.1463  -23.1320  -56.7962 H         1 UNK         0.3000 
    236 H236        0.0849  -21.2434  -57.1078 H         1 UNK         0.0600 
    237 H237        0.1693  -23.5060  -58.1373 H         1 UNK         0.0600 
    238 H238        1.4463  -23.3311  -56.9444 H         1 UNK         0.0600 
    239 H239        0.0032  -24.2596  -56.5520 H         1 UNK         0.0600 
    240 H240       -1.8193  -22.3679  -54.5037 H         1 UNK         0.3000 
    241 H241       -1.7940  -22.1727  -52.3117 H         1 UNK         0.0600 
    242 H242        0.0819  -24.3032  -53.5656 H         1 UNK         0.3800 
    243 H243        0.9993  -24.8075  -52.1713 H         1 UNK         0.3800 
    244 H244        0.5525  -20.2362  -52.5029 H         1 UNK         0.0800 
    245 H245       -0.5440  -20.4194  -51.1568 H         1 UNK         0.0800 
    246 H246        0.3112  -17.7603  -52.8818 H         1 UNK         0.0800 
    247 H247       -1.1813  -16.8743  -53.0569 H         1 UNK         0.0800 
@<TRIPOS>BOND
     1    1    2 1    
     2    1  127 1    
     3    1  128 1    
     4    1  129 1    
     5    2    3 2    
     6    2    4 am   BACKBONE|DICT|INTERRES
     7    4    5 1    
     8    4  130 1    
     9    5    6 1    
    10    5   65 1    
    11    5  131 1    
    12    6    7 1    
    13    6  132 1    
    14    6  133 1    
    15    7    8 1    
    16    8    9 1    
    17    8  134 1    
    18    8  135 1    
    19    9   10 ar   
    20    9   14 ar   
    21   10   11 ar   
    22   10  136 1    
    23   11   12 ar   
    24   11  126 1    
    25   12   13 ar   
    26   12  137 1    
    27   13   14 ar   
    28   13   15 1    
    29   14  138 1    
    30   15   16 1    
    31   15  139 1    
    32   15  140 1    
    33   16   17 1    
    34   17   18 1    
    35   17  141 1    
    36   17  142 1    
    37   18   19 1    
    38   18   67 1    
    39   18  143 1    
    40   19   20 am   BACKBONE|DICT|INTERRES
    41   19  144 1    
    42   20   21 2    
    43   20   22 1    
    44   22   23 1    
    45   22   24 1    
    46   22  145 1    
    47   23  146 1    
    48   23  147 1    
    49   23  148 1    
    50   24   25 am   BACKBONE|DICT|INTERRES
    51   24  149 1    
    52   25   26 2    
    53   25   27 1    
    54   27   28 1    
    55   27   29 1    
    56   27  150 1    
    57   28  151 1    
    58   28  152 1    
    59   28  153 1    
    60   29   30 am   BACKBONE|DICT|INTERRES
    61   29  154 1    
    62   30   31 2    
    63   30   32 1    
    64   32   33 1    
    65   32   34 1    
    66   32  155 1    
    67   33  156 1    
    68   33  157 1    
    69   33  158 1    
    70   34   35 am   BACKBONE|DICT|INTERRES
    71   34  159 1    
    72   35   36 2    
    73   35   37 1    
    74   37   38 1    
    75   37   39 1    
    76   37  160 1    
    77   38  161 1    
    78   38  162 1    
    79   38  163 1    
    80   39   40 am   BACKBONE|DICT|INTERRES
    81   39  164 1    
    82   40   41 2    
    83   40   42 1    
    84   42   43 1    
    85   42   44 1    
    86   42  165 1    
    87   43  166 1    
    88   43  167 1    
    89   43  168 1    
    90   44   45 am   BACKBONE|DICT|INTERRES
    91   44  169 1    
    92   45   46 2    
    93   45   47 1    
    94   47   48 1    
    95   47   49 1    
    96   47  170 1    
    97   48  171 1    
    98   48  172 1    
    99   48  173 1    
   100   49   50 am   BACKBONE|DICT|INTERRES
   101   49  174 1    
   102   50   51 2    
   103   50   52 1    
   104   52   53 1    
   105   52   54 1    
   106   52  175 1    
   107   53  176 1    
   108   53  177 1    
   109   53  178 1    
   110   54   55 am   BACKBONE|DICT|INTERRES
   111   54  179 1    
   112   55   56 2    
   113   55   57 1    
   114   57   58 1    
   115   57   59 1    
   116   57  180 1    
   117   58  181 1    
   118   58  182 1    
   119   58  183 1    
   120   59   60 am   BACKBONE|DICT|INTERRES
   121   59  184 1    
   122   60   61 2    
   123   60   62 1    
   124   62   63 1    
   125   62   64 1    
   126   62  185 1    
   127   63  186 1    
   128   63  187 1    
   129   63  188 1    
   130   64   65 am   BACKBONE|DICT|INTERRES
   131   64  189 1    
   132   65   66 2    
   133   67   68 2    
   134   67   69 am   BACKBONE|DICT|INTERRES
   135   69   70 1    
   136   69  190 1    
   137   70   71 1    
   138   70   72 1    
   139   70  191 1    
   140   71  192 1    
   141   71  193 1    
   142   71  194 1    
   143   72   73 2    
   144   72   74 am   BACKBONE|DICT|INTERRES
   145   74   75 1    
   146   74  195 1    
   147   75   76 1    
   148   75   77 1    
   149   75  196 1    
   150   76  197 1    
   151   76  198 1    
   152   76  199 1    
   153   77   78 2    
   154   77   79 am   BACKBONE|DICT|INTERRES
   155   79   80 1    
   156   79  200 1    
   157   80   81 1    
   158   80   82 1    
   159   80  201 1    
   160   81  202 1    
   161   81  203 1    
   162   81  204 1    
   163   82   83 2    
   164   82   84 am   BACKBONE|DICT|INTERRES
   165   84   85 1    
   166   84  205 1    
   167   85   86 1    
   168   85   87 1    
   169   85  206 1    
   170   86  207 1    
   171   86  208 1    
   172   86  209 1    
   173   87   88 2    
   174   87   89 am   BACKBONE|DICT|INTERRES
   175   89   90 1    
   176   89  210 1    
   177   90   91 1    
   178   90   92 1    
   179   90  211 1    
   180   91  212 1    
   181   91  213 1    
   182   91  214 1    
   183   92   93 2    
   184   92   94 am   BACKBONE|DICT|INTERRES
   185   94   95 1    
   186   94  215 1    
   187   95   96 1    
   188   95   97 1    
   189   95  216 1    
   190   96  217 1    
   191   96  218 1    
   192   96  219 1    
   193   97   98 2    
   194   97   99 am   BACKBONE|DICT|INTERRES
   195   99  100 1    
   196   99  220 1    
   197  100  101 1    
   198  100  102 1    
   199  100  221 1    
   200  101  222 1    
   201  101  223 1    
   202  101  224 1    
   203  102  103 2    
   204  102  104 am   BACKBONE|DICT|INTERRES
   205  104  105 1    
   206  104  225 1    
   207  105  106 1    
   208  105  107 1    
   209  105  226 1    
   210  106  227 1    
   211  106  228 1    
   212  106  229 1    
   213  107  108 2    
   214  107  109 am   BACKBONE|DICT|INTERRES
   215  109  110 1    
   216  109  230 1    
   217  110  111 1    
   218  110  112 1    
   219  110  231 1    
   220  111  232 1    
   221  111  233 1    
   222  111  234 1    
   223  112  113 2    
   224  112  114 am   BACKBONE|DICT|INTERRES
   225  114  115 1    
   226  114  235 1    
   227  115  116 1    
   228  115  117 1    
   229  115  236 1    
   230  116  237 1    
   231  116  238 1    
   232  116  239 1    
   233  117  118 2    
   234  117  119 am   BACKBONE|DICT|INTERRES
   235  119  120 1    
   236  119  240 1    
   237  120  121 1    
   238  120  124 1    
   239  120  241 1    
   240  121  122 am   BACKBONE|DICT|INTERRES
   241  121  123 2    
   242  122  242 1    
   243  122  243 1    
   244  124  125 1    
   245  124  244 1    
   246  124  245 1    
   247  125  126 1    
   248  126  246 1    
   249  126  247 1    
@<TRIPOS>SUBSTRUCTURE
     1 UNK         1 GROUP             0       ****    0 ROOT    
