@<TRIPOS>MOLECULE
3R540
247   249    1
SMALL
USER_CHARGES


@<TRIPOS>ATOM
      1 CA          4.9921  -16.3745  -48.7001 C.3       0 UNK        -0.1800 
      2 C           3.7125  -16.9177  -48.0691 C.2       0 UNK         0.5000 
      3 O           3.8125  -17.7414  -47.1651 O.2       0 UNK        -0.5000 
      4 N           2.4969  -16.5143  -48.4688 N.am      1 UNK        -0.5000 
      5 CA          2.0621  -15.4391  -49.3705 C.3       1 UNK         0.1400 
      6 C6          2.4954  -15.5822  -50.8560 C.3       23 UNK        -0.0398 
      7 S7          1.1962  -14.9713  -51.9835 S.3       23 UNK        -0.2404 
      8 C8          0.4809  -16.5198  -52.6261 C.3       23 UNK        -0.0205 
      9 C9          0.0146  -17.4598  -51.5226 C.ar      23 UNK        -0.0193 
     10 C10        -1.0628  -17.1100  -50.7009 C.ar      23 UNK        -0.1150 
     11 C11        -1.4977  -17.9799  -49.6972 C.ar      23 UNK        -0.0193 
     12 C12        -0.8548  -19.2073  -49.5311 C.ar      23 UNK        -0.1150 
     13 C13         0.2151  -19.5753  -50.3480 C.ar      23 UNK        -0.0193 
     14 C14         0.6531  -18.6910  -51.3367 C.ar      23 UNK        -0.1150 
     15 C15         0.8516  -20.9508  -50.2010 C.3       23 UNK        -0.0205 
     16 S16         2.3568  -20.9344  -49.1801 S.3       23 UNK        -0.2404 
     17 C17         1.6809  -20.6329  -47.5144 C.3       23 UNK        -0.0398 
     18 CA          1.8941  -21.8051  -46.5191 C.3       11 UNK         0.1400 
     19 N           2.1436  -21.2828  -45.1748 N.am      11 UNK        -0.5000 
     20 C           3.3198  -21.2659  -44.5401 C.2       10 UNK         0.5000 
     21 O           4.3489  -21.7709  -44.9894 O.2       10 UNK        -0.5000 
     22 CA          3.3597  -20.5665  -43.1672 C.3       10 UNK         0.1400 
     23 CB          3.8909  -19.1314  -43.3126 C.3       10 UNK        -0.1800 
     24 N           2.0671  -20.5272  -42.4768 N.am      10 UNK        -0.5000 
     25 C           1.4558  -21.5934  -41.9410 C.2       9 UNK         0.5000 
     26 O           1.8803  -22.7438  -42.0476 O.2       9 UNK        -0.5000 
     27 CA          0.1517  -21.3351  -41.1684 C.3       9 UNK         0.1400 
     28 CB          0.4489  -20.6971  -39.8018 C.3       9 UNK        -0.1800 
     29 N          -0.7358  -20.4563  -41.9265 N.am      9 UNK        -0.5000 
     30 C          -1.8313  -20.8539  -42.5898 C.2       8 UNK         0.5000 
     31 O          -2.2601  -22.0072  -42.5761 O.2       8 UNK        -0.5000 
     32 CA         -2.5833  -19.7898  -43.4181 C.3       8 UNK         0.1400 
     33 CB         -3.7957  -19.2590  -42.6389 C.3       8 UNK        -0.1800 
     34 N          -1.7505  -18.6560  -43.8213 N.am      8 UNK        -0.5000 
     35 C          -0.6780  -18.7381  -44.6201 C.2       7 UNK         0.5000 
     36 O          -0.3204  -19.7761  -45.1706 O.2       7 UNK        -0.5000 
     37 CA          0.1855  -17.4720  -44.7670 C.3       7 UNK         0.1400 
     38 CB         -0.1538  -16.7414  -46.0743 C.3       7 UNK        -0.1800 
     39 N           0.0766  -16.5587  -43.6193 N.am      7 UNK        -0.5000 
     40 C           0.4562  -16.8762  -42.3679 C.2       6 UNK         0.5000 
     41 O           0.9430  -17.9702  -42.0799 O.2       6 UNK        -0.5000 
     42 CA          0.2302  -15.8550  -41.2363 C.3       6 UNK         0.1400 
     43 CB          1.5594  -15.4065  -40.6090 C.3       6 UNK        -0.1800 
     44 N          -0.5295  -14.6806  -41.6607 N.am      6 UNK        -0.5000 
     45 C          -1.8684  -14.6243  -41.7048 C.2       5 UNK         0.5000 
     46 O          -2.5998  -15.5550  -41.3652 O.2       5 UNK        -0.5000 
     47 CA         -2.5000  -13.3262  -42.2491 C.3       5 UNK         0.1400 
     48 CB         -2.8493  -12.3737  -41.0958 C.3       5 UNK        -0.1800 
     49 N          -1.6544  -12.6186  -43.2142 N.am      5 UNK        -0.5000 
     50 C          -1.2487  -13.1226  -44.3871 C.2       4 UNK         0.5000 
     51 O          -1.5702  -14.2407  -44.7866 O.2       4 UNK        -0.5000 
     52 CA         -0.2893  -12.2731  -45.2412 C.3       4 UNK         0.1400 
     53 CB         -0.1895  -10.7949  -44.8027 C.3       4 UNK        -0.1800 
     54 N           1.0443  -12.8762  -45.3099 N.am      4 UNK        -0.5000 
     55 C           1.8655  -13.1613  -44.2846 C.2       3 UNK         0.5000 
     56 O           1.5573  -13.0014  -43.1029 O.2       3 UNK        -0.5000 
     57 CA          3.2711  -13.7110  -44.6214 C.3       3 UNK         0.1400 
     58 CB          3.3562  -15.2169  -44.3249 C.3       3 UNK        -0.1800 
     59 N           3.6652  -13.5052  -46.0141 N.am      3 UNK        -0.5000 
     60 C           3.8944  -12.3270  -46.6108 C.2       2 UNK         0.5000 
     61 O           3.9447  -11.2542  -46.0091 O.2       2 UNK        -0.5000 
     62 CA          4.0555  -12.3509  -48.1476 C.3       2 UNK         0.1400 
     63 CB          5.5252  -12.1306  -48.5375 C.3       2 UNK        -0.1800 
     64 N           3.5804  -13.5879  -48.7839 N.am      2 UNK        -0.5000 
     65 C           2.3197  -14.0470  -48.7613 C.2       1 UNK         0.5000 
     66 O           1.3956  -13.4509  -48.2068 O.2       1 UNK        -0.5000 
     67 C           0.7105  -22.8001  -46.4820 C.2       11 UNK         0.5000 
     68 O           0.0373  -23.0008  -47.4948 O.2       11 UNK        -0.5000 
     69 N           0.4698  -23.4104  -45.3087 N.am      12 UNK        -0.5000 
     70 CA         -0.6865  -24.2489  -44.9608 C.3       12 UNK         0.1400 
     71 CB         -0.4967  -24.7819  -43.5326 C.3       12 UNK        -0.1800 
     72 C          -0.9841  -25.4254  -45.9111 C.2       12 UNK         0.5000 
     73 O          -2.1273  -25.8781  -45.9708 O.2       12 UNK        -0.5000 
     74 N           0.0383  -25.8958  -46.6363 N.am      13 UNK        -0.5000 
     75 CA         -0.0614  -26.9527  -47.6414 C.3       13 UNK         0.1400 
     76 CB          1.3570  -27.3795  -48.0499 C.3       13 UNK        -0.1800 
     77 C          -0.8816  -26.5585  -48.8873 C.2       13 UNK         0.5000 
     78 O          -1.3967  -27.4523  -49.5608 O.2       13 UNK        -0.5000 
     79 N          -0.9794  -25.2539  -49.1838 N.am      14 UNK        -0.5000 
     80 CA         -1.6599  -24.7328  -50.3722 C.3       14 UNK         0.1400 
     81 CB         -0.6039  -24.3941  -51.4365 C.3       14 UNK        -0.1800 
     82 C          -2.5832  -23.5346  -50.0845 C.2       14 UNK         0.5000 
     83 O          -3.3822  -23.1852  -50.9574 O.2       14 UNK        -0.5000 
     84 N          -2.4790  -22.9254  -48.8935 N.am      15 UNK        -0.5000 
     85 CA         -3.3103  -21.8076  -48.4428 C.3       15 UNK         0.1400 
     86 CB         -2.8831  -21.3791  -47.0304 C.3       15 UNK        -0.1800 
     87 C          -4.8126  -22.1349  -48.4612 C.2       15 UNK         0.5000 
     88 O          -5.2147  -23.1937  -47.9746 O.2       15 UNK        -0.5000 
     89 N          -5.5984  -21.2132  -49.0357 N.am      16 UNK        -0.5000 
     90 CA         -7.0487  -21.2892  -49.2497 C.3       16 UNK         0.1400 
     91 CB         -7.7999  -21.2704  -47.9025 C.3       16 UNK        -0.1800 
     92 C          -7.4901  -22.4597  -50.1596 C.2       16 UNK         0.5000 
     93 O          -8.6622  -22.8387  -50.1363 O.2       16 UNK        -0.5000 
     94 N          -6.5585  -22.9999  -50.9557 N.am      17 UNK        -0.5000 
     95 CA         -6.7641  -24.1437  -51.8329 C.3       17 UNK         0.1400 
     96 CB         -6.5166  -25.4471  -51.0423 C.3       17 UNK        -0.1800 
     97 C          -5.8820  -23.9746  -53.0799 C.2       17 UNK         0.5000 
     98 O          -6.1369  -23.0673  -53.8751 O.2       17 UNK        -0.5000 
     99 N          -4.8689  -24.8404  -53.2268 N.am      18 UNK        -0.5000 
    100 CA        -3.9802  -24.9719  -54.3849 C.3       18 UNK         0.1400 
    101 CB        -2.9964  -26.1236  -54.1280 C.3       18 UNK        -0.1800 
    102 C         -3.2211  -23.6957  -54.7967 C.2       18 UNK         0.5000 
    103 O         -2.8840  -23.5586  -55.9729 O.2       18 UNK        -0.5000 
    104 N         -3.0071  -22.7604  -53.8615 N.am      19 UNK        -0.5000 
    105 CA        -2.4042  -21.4442  -54.0985 C.3       19 UNK         0.1400 
    106 CB        -1.8378  -20.9140  -52.7704 C.3       19 UNK        -0.1800 
    107 C         -3.3819  -20.4346  -54.7440 C.2       19 UNK         0.5000 
    108 O         -3.3554  -19.2548  -54.3928 O.2       19 UNK        -0.5000 
    109 N         -4.2606  -20.9123  -55.6388 N.am      20 UNK        -0.5000 
    110 CA        -5.3466  -20.1840  -56.3076 C.3       20 UNK         0.1400 
    111 CB        -4.7709  -19.2119  -57.3576 C.3       20 UNK        -0.1800 
    112 C         -6.2953  -19.4917  -55.3051 C.2       20 UNK         0.5000 
    113 O         -6.6721  -18.3344  -55.5009 O.2       20 UNK        -0.5000 
    114 N         -6.6001  -20.1976  -54.2050 N.am      21 UNK        -0.5000 
    115 CA        -7.3473  -19.7296  -53.0322 C.3       21 UNK         0.1400 
    116 CB        -8.8386  -19.5489  -53.3798 C.3       21 UNK        -0.1800 
    117 C         -6.7317  -18.4826  -52.3520 C.2       21 UNK         0.5000 
    118 O         -7.4620  -17.6924  -51.7531 O.2       21 UNK        -0.5000 
    119 N         -5.4047  -18.3293  -52.4701 N.am      22 UNK        -0.5000 
    120 CA        -4.6053  -17.1558  -52.0745 C.3       22 UNK         0.1400 
    121 C         -4.8031  -15.9095  -52.9931 C.2       22 UNK         0.5000 
    122 N         -5.4543  -16.0148  -54.1462 N.am      22 UNK        -0.7600 
    123 O         -4.3321  -14.8218  -52.6719 O.2       22 UNK        -0.5000 
    124 C124       -4.7010  -16.7938  -50.5642 C.3       23 UNK        -0.0398 
    125 S125       -4.2528  -18.1690  -49.4495 S.3       23 UNK        -0.2404 
    126 C126       -2.6537  -17.6084  -48.7819 C.3       23 UNK        -0.0205 
    127 H127        5.3956  -15.5586  -48.1012 H         1 UNK         0.0600 
    128 H128        4.8608  -16.0395  -49.7241 H         1 UNK         0.0600 
    129 H129        5.7456  -17.1620  -48.7238 H         1 UNK         0.0600 
    130 H130        1.7198  -16.9737  -48.0189 H         1 UNK         0.3000 
    131 H131        0.9773  -15.5558  -49.3478 H         1 UNK         0.0600 
    132 H132        3.4113  -15.0363  -51.0815 H         1 UNK         0.0800 
    133 H133        2.7072  -16.6255  -51.0921 H         1 UNK         0.0800 
    134 H134       -0.3677  -16.2777  -53.2675 H         1 UNK         0.0800 
    135 H135        1.2165  -17.0091  -53.2664 H         1 UNK         0.0800 
    136 H136       -1.5569  -16.1591  -50.8423 H         1 UNK         0.1150 
    137 H137       -1.1956  -19.8846  -48.7666 H         1 UNK         0.1150 
    138 H138        1.4781  -18.9742  -51.9749 H         1 UNK         0.1150 
    139 H139        0.1336  -21.6539  -49.7784 H         1 UNK         0.0800 
    140 H140        1.1082  -21.3363  -51.1885 H         1 UNK         0.0800 
    141 H141        0.6326  -20.3473  -47.5626 H         1 UNK         0.0800 
    142 H142        2.1904  -19.7413  -47.1509 H         1 UNK         0.0800 
    143 H143        2.7584  -22.3882  -46.8424 H         1 UNK         0.0600 
    144 H144        1.3439  -20.8259  -44.7482 H         1 UNK         0.3000 
    145 H145        4.0580  -21.1228  -42.5384 H         1 UNK         0.0600 
    146 H146        3.9691  -18.6374  -42.3439 H         1 UNK         0.0600 
    147 H147        3.2452  -18.5237  -43.9460 H         1 UNK         0.0600 
    148 H148        4.8846  -19.1260  -43.7621 H         1 UNK         0.0600 
    149 H149        1.6665  -19.6032  -42.3284 H         1 UNK         0.3000 
    150 H150       -0.3275  -22.2993  -40.9874 H         1 UNK         0.0600 
    151 H151        1.1134  -21.3299  -39.2122 H         1 UNK         0.0600 
    152 H152       -0.4666  -20.5618  -39.2258 H         1 UNK         0.0600 
    153 H153        0.9267  -19.7218  -39.9018 H         1 UNK         0.0600 
    154 H154       -0.4373  -19.4927  -42.0143 H         1 UNK         0.3000 
    155 H155       -2.9450  -20.2798  -44.3231 H         1 UNK         0.0600 
    156 H156       -4.4547  -20.0740  -42.3367 H         1 UNK         0.0600 
    157 H157       -4.3863  -18.5738  -43.2472 H         1 UNK         0.0600 
    158 H158       -3.4916  -18.7288  -41.7352 H         1 UNK         0.0600 
    159 H159       -1.9699  -17.7624  -43.4051 H         1 UNK         0.3000 
    160 H160        1.2242  -17.7986  -44.8317 H         1 UNK         0.0600 
    161 H161       -1.2039  -16.4513  -46.1108 H         1 UNK         0.0600 
    162 H162        0.0314  -17.3844  -46.9355 H         1 UNK         0.0600 
    163 H163        0.4488  -15.8416  -46.1991 H         1 UNK         0.0600 
    164 H164       -0.3679  -15.6646  -43.7947 H         1 UNK         0.3000 
    165 H165       -0.3303  -16.3780  -40.4586 H         1 UNK         0.0600 
    166 H166        1.3848  -14.7951  -39.7237 H         1 UNK         0.0600 
    167 H167        2.1573  -16.2635  -40.2959 H         1 UNK         0.0600 
    168 H168        2.1625  -14.8203  -41.2996 H         1 UNK         0.0600 
    169 H169        0.0119  -13.8925  -42.0013 H         1 UNK         0.3000 
    170 H170       -3.4258  -13.6022  -42.7580 H         1 UNK         0.0600 
    171 H171       -1.9565  -12.0412  -40.5646 H         1 UNK         0.0600 
    172 H172       -3.3742  -11.4897  -41.4586 H         1 UNK         0.0600 
    173 H173       -3.5010  -12.8616  -40.3697 H         1 UNK         0.0600 
    174 H174       -1.3201  -11.7058  -42.9417 H         1 UNK         0.3000 
    175 H175       -0.6884  -12.2906  -46.2565 H         1 UNK         0.0600 
    176 H176        0.2441  -10.6835  -43.8084 H         1 UNK         0.0600 
    177 H177        0.4345  -10.2295  -45.4950 H         1 UNK         0.0600 
    178 H178       -1.1709  -10.3190  -44.7957 H         1 UNK         0.0600 
    179 H179        1.3597  -13.0870  -46.2513 H         1 UNK         0.3000 
    180 H180        3.9873  -13.1896  -43.9834 H         1 UNK         0.0600 
    181 H181        4.3646  -15.5960  -44.4923 H         1 UNK         0.0600 
    182 H182        2.6785  -15.7894  -44.9578 H         1 UNK         0.0600 
    183 H183        3.1020  -15.4351  -43.2890 H         1 UNK         0.0600 
    184 H184        3.6575  -14.3255  -46.5990 H         1 UNK         0.3000 
    185 H185        3.4652  -11.5235  -48.5465 H         1 UNK         0.0600 
    186 H186        5.6417  -12.0638  -49.6194 H         1 UNK         0.0600 
    187 H187        5.9074  -11.2006  -48.1144 H         1 UNK         0.0600 
    188 H188        6.1626  -12.9399  -48.1790 H         1 UNK         0.0600 
    189 H189        4.2887  -14.1338  -49.2508 H         1 UNK         0.3000 
    190 H190        1.0980  -23.1992  -44.5456 H         1 UNK         0.3000 
    191 H191       -1.5645  -23.6007  -44.9690 H         1 UNK         0.0600 
    192 H192       -0.4247  -23.9685  -42.8132 H         1 UNK         0.0600 
    193 H193        0.4065  -25.3870  -43.4457 H         1 UNK         0.0600 
    194 H194       -1.3407  -25.4020  -43.2273 H         1 UNK         0.0600 
    195 H195        0.9412  -25.4600  -46.5224 H         1 UNK         0.3000 
    196 H196       -0.5572  -27.8098  -47.1809 H         1 UNK         0.0600 
    197 H197        1.9251  -27.7373  -47.1909 H         1 UNK         0.0600 
    198 H198        1.9106  -26.5547  -48.5006 H         1 UNK         0.0600 
    199 H199        1.3268  -28.1910  -48.7782 H         1 UNK         0.0600 
    200 H200       -0.5198  -24.5778  -48.5821 H         1 UNK         0.3000 
    201 H201       -2.3182  -25.4978  -50.7880 H         1 UNK         0.0600 
    202 H202       -0.0460  -25.2838  -51.7286 H         1 UNK         0.0600 
    203 H203        0.1132  -23.6596  -51.0729 H         1 UNK         0.0600 
    204 H204       -1.0611  -23.9947  -52.3405 H         1 UNK         0.0600 
    205 H205       -1.7559  -23.2223  -48.2499 H         1 UNK         0.3000 
    206 H206       -3.1298  -20.9820  -49.1319 H         1 UNK         0.0600 
    207 H207       -3.0641  -22.1685  -46.3003 H         1 UNK         0.0600 
    208 H208       -1.8261  -21.1239  -46.9856 H         1 UNK         0.0600 
    209 H209       -3.4405  -20.4983  -46.7095 H         1 UNK         0.0600 
    210 H210       -5.1612  -20.3662  -49.3780 H         1 UNK         0.3000 
    211 H211       -7.3195  -20.3770  -49.7826 H         1 UNK         0.0600 
    212 H212       -7.6410  -22.1887  -47.3366 H         1 UNK         0.0600 
    213 H213       -8.8746  -21.1629  -48.0538 H         1 UNK         0.0600 
    214 H214       -7.4768  -20.4339  -47.2828 H         1 UNK         0.0600 
    215 H215       -5.6097  -22.6473  -50.9176 H         1 UNK         0.3000 
    216 H216       -7.7952  -24.1506  -52.1924 H         1 UNK         0.0600 
    217 H217       -6.6333  -26.3266  -51.6769 H         1 UNK         0.0600 
    218 H218       -7.2334  -25.5471  -50.2271 H         1 UNK         0.0600 
    219 H219       -5.5188  -25.4729  -50.6018 H         1 UNK         0.0600 
    220 H220       -4.7344  -25.5213  -52.4945 H         1 UNK         0.3000 
    221 H221       -4.6081  -25.2494  -55.2338 H         1 UNK         0.0600 
    222 H222       -3.5228  -27.0646  -53.9676 H         1 UNK         0.0600 
    223 H223       -2.3303  -26.2684  -54.9797 H         1 UNK         0.0600 
    224 H224       -2.3737  -25.9347  -53.2540 H         1 UNK         0.0600 
    225 H225       -3.3233  -22.9429  -52.9136 H         1 UNK         0.3000 
    226 H226       -1.5687  -21.5629  -54.7911 H         1 UNK         0.0600 
    227 H227       -1.1205  -21.6093  -52.3389 H         1 UNK         0.0600 
    228 H228       -1.3163  -19.9685  -52.9193 H         1 UNK         0.0600 
    229 H229       -2.6236  -20.7405  -52.0340 H         1 UNK         0.0600 
    230 H230       -4.1874  -21.8969  -55.8639 H         1 UNK         0.3000 
    231 H231       -5.9452  -20.9292  -56.8331 H         1 UNK         0.0600 
    232 H232       -5.5678  -18.7448  -57.9374 H         1 UNK         0.0600 
    233 H233       -4.1210  -19.7320  -58.0612 H         1 UNK         0.0600 
    234 H234       -4.1915  -18.4128  -56.8938 H         1 UNK         0.0600 
    235 H235       -6.2620  -21.1558  -54.1484 H         1 UNK         0.3000 
    236 H236       -7.2781  -20.5330  -52.3017 H         1 UNK         0.0600 
    237 H237       -8.9945  -18.7209  -54.0720 H         1 UNK         0.0600 
    238 H238       -9.2479  -20.4501  -53.8362 H         1 UNK         0.0600 
    239 H239       -9.4286  -19.3445  -52.4856 H         1 UNK         0.0600 
    240 H240       -4.8943  -18.9924  -53.0413 H         1 UNK         0.3000 
    241 H241       -3.5729  -17.4550  -52.2574 H         1 UNK         0.0600 
    242 H242       -5.8423  -16.8986  -54.4609 H         1 UNK         0.3800 
    243 H243       -5.5585  -15.1974  -54.7254 H         1 UNK         0.3800 
    244 H244       -5.7092  -16.4655  -50.3111 H         1 UNK         0.0800 
    245 H245       -4.0583  -15.9421  -50.3395 H         1 UNK         0.0800 
    246 H246       -2.6675  -16.5335  -48.5959 H         1 UNK         0.0800 
    247 H247       -2.5084  -18.0747  -47.8061 H         1 UNK         0.0800 
@<TRIPOS>BOND
     1    1    2 1    
     2    1  127 1    
     3    1  128 1    
     4    1  129 1    
     5    2    3 2    
     6    2    4 am   BACKBONE|DICT|INTERRES
     7    4    5 1    
     8    4  130 1    
     9    5    6 1    
    10    5   65 1    
    11    5  131 1    
    12    6    7 1    
    13    6  132 1    
    14    6  133 1    
    15    7    8 1    
    16    8    9 1    
    17    8  134 1    
    18    8  135 1    
    19    9   10 ar   
    20    9   14 ar   
    21   10   11 ar   
    22   10  136 1    
    23   11   12 ar   
    24   11  126 1    
    25   12   13 ar   
    26   12  137 1    
    27   13   14 ar   
    28   13   15 1    
    29   14  138 1    
    30   15   16 1    
    31   15  139 1    
    32   15  140 1    
    33   16   17 1    
    34   17   18 1    
    35   17  141 1    
    36   17  142 1    
    37   18   19 1    
    38   18   67 1    
    39   18  143 1    
    40   19   20 am   BACKBONE|DICT|INTERRES
    41   19  144 1    
    42   20   21 2    
    43   20   22 1    
    44   22   23 1    
    45   22   24 1    
    46   22  145 1    
    47   23  146 1    
    48   23  147 1    
    49   23  148 1    
    50   24   25 am   BACKBONE|DICT|INTERRES
    51   24  149 1    
    52   25   26 2    
    53   25   27 1    
    54   27   28 1    
    55   27   29 1    
    56   27  150 1    
    57   28  151 1    
    58   28  152 1    
    59   28  153 1    
    60   29   30 am   BACKBONE|DICT|INTERRES
    61   29  154 1    
    62   30   31 2    
    63   30   32 1    
    64   32   33 1    
    65   32   34 1    
    66   32  155 1    
    67   33  156 1    
    68   33  157 1    
    69   33  158 1    
    70   34   35 am   BACKBONE|DICT|INTERRES
    71   34  159 1    
    72   35   36 2    
    73   35   37 1    
    74   37   38 1    
    75   37   39 1    
    76   37  160 1    
    77   38  161 1    
    78   38  162 1    
    79   38  163 1    
    80   39   40 am   BACKBONE|DICT|INTERRES
    81   39  164 1    
    82   40   41 2    
    83   40   42 1    
    84   42   43 1    
    85   42   44 1    
    86   42  165 1    
    87   43  166 1    
    88   43  167 1    
    89   43  168 1    
    90   44   45 am   BACKBONE|DICT|INTERRES
    91   44  169 1    
    92   45   46 2    
    93   45   47 1    
    94   47   48 1    
    95   47   49 1    
    96   47  170 1    
    97   48  171 1    
    98   48  172 1    
    99   48  173 1    
   100   49   50 am   BACKBONE|DICT|INTERRES
   101   49  174 1    
   102   50   51 2    
   103   50   52 1    
   104   52   53 1    
   105   52   54 1    
   106   52  175 1    
   107   53  176 1    
   108   53  177 1    
   109   53  178 1    
   110   54   55 am   BACKBONE|DICT|INTERRES
   111   54  179 1    
   112   55   56 2    
   113   55   57 1    
   114   57   58 1    
   115   57   59 1    
   116   57  180 1    
   117   58  181 1    
   118   58  182 1    
   119   58  183 1    
   120   59   60 am   BACKBONE|DICT|INTERRES
   121   59  184 1    
   122   60   61 2    
   123   60   62 1    
   124   62   63 1    
   125   62   64 1    
   126   62  185 1    
   127   63  186 1    
   128   63  187 1    
   129   63  188 1    
   130   64   65 am   BACKBONE|DICT|INTERRES
   131   64  189 1    
   132   65   66 2    
   133   67   68 2    
   134   67   69 am   BACKBONE|DICT|INTERRES
   135   69   70 1    
   136   69  190 1    
   137   70   71 1    
   138   70   72 1    
   139   70  191 1    
   140   71  192 1    
   141   71  193 1    
   142   71  194 1    
   143   72   73 2    
   144   72   74 am   BACKBONE|DICT|INTERRES
   145   74   75 1    
   146   74  195 1    
   147   75   76 1    
   148   75   77 1    
   149   75  196 1    
   150   76  197 1    
   151   76  198 1    
   152   76  199 1    
   153   77   78 2    
   154   77   79 am   BACKBONE|DICT|INTERRES
   155   79   80 1    
   156   79  200 1    
   157   80   81 1    
   158   80   82 1    
   159   80  201 1    
   160   81  202 1    
   161   81  203 1    
   162   81  204 1    
   163   82   83 2    
   164   82   84 am   BACKBONE|DICT|INTERRES
   165   84   85 1    
   166   84  205 1    
   167   85   86 1    
   168   85   87 1    
   169   85  206 1    
   170   86  207 1    
   171   86  208 1    
   172   86  209 1    
   173   87   88 2    
   174   87   89 am   BACKBONE|DICT|INTERRES
   175   89   90 1    
   176   89  210 1    
   177   90   91 1    
   178   90   92 1    
   179   90  211 1    
   180   91  212 1    
   181   91  213 1    
   182   91  214 1    
   183   92   93 2    
   184   92   94 am   BACKBONE|DICT|INTERRES
   185   94   95 1    
   186   94  215 1    
   187   95   96 1    
   188   95   97 1    
   189   95  216 1    
   190   96  217 1    
   191   96  218 1    
   192   96  219 1    
   193   97   98 2    
   194   97   99 am   BACKBONE|DICT|INTERRES
   195   99  100 1    
   196   99  220 1    
   197  100  101 1    
   198  100  102 1    
   199  100  221 1    
   200  101  222 1    
   201  101  223 1    
   202  101  224 1    
   203  102  103 2    
   204  102  104 am   BACKBONE|DICT|INTERRES
   205  104  105 1    
   206  104  225 1    
   207  105  106 1    
   208  105  107 1    
   209  105  226 1    
   210  106  227 1    
   211  106  228 1    
   212  106  229 1    
   213  107  108 2    
   214  107  109 am   BACKBONE|DICT|INTERRES
   215  109  110 1    
   216  109  230 1    
   217  110  111 1    
   218  110  112 1    
   219  110  231 1    
   220  111  232 1    
   221  111  233 1    
   222  111  234 1    
   223  112  113 2    
   224  112  114 am   BACKBONE|DICT|INTERRES
   225  114  115 1    
   226  114  235 1    
   227  115  116 1    
   228  115  117 1    
   229  115  236 1    
   230  116  237 1    
   231  116  238 1    
   232  116  239 1    
   233  117  118 2    
   234  117  119 am   BACKBONE|DICT|INTERRES
   235  119  120 1    
   236  119  240 1    
   237  120  121 1    
   238  120  124 1    
   239  120  241 1    
   240  121  122 am   BACKBONE|DICT|INTERRES
   241  121  123 2    
   242  122  242 1    
   243  122  243 1    
   244  124  125 1    
   245  124  244 1    
   246  124  245 1    
   247  125  126 1    
   248  126  246 1    
   249  126  247 1    
@<TRIPOS>SUBSTRUCTURE
     1 UNK         1 GROUP             0       ****    0 ROOT    
