@<TRIPOS>MOLECULE
3R540
247   249    1
SMALL
USER_CHARGES


@<TRIPOS>ATOM
      1 CA         -1.6423  -11.4583  -47.9351 C.3       0 UNK        -0.1800 
      2 C          -0.1430  -11.5119  -48.1918 C.2       0 UNK         0.5000 
      3 O           0.4262  -10.5502  -48.7083 O.2       0 UNK        -0.5000 
      4 N           0.4953  -12.6328  -47.8328 N.am      1 UNK        -0.5000 
      5 CA          1.9352  -12.8814  -47.9977 C.3       1 UNK         0.1400 
      6 C6          2.2919  -14.3745  -47.7897 C.3       23 UNK        -0.0398 
      7 S7          1.3633  -15.4877  -48.9002 S.3       23 UNK        -0.2404 
      8 C8          2.7100  -16.2201  -49.8765 C.3       23 UNK        -0.0205 
      9 C9          2.1793  -17.2142  -50.8963 C.ar      23 UNK        -0.0193 
     10 C10         2.1580  -16.8859  -52.2548 C.ar      23 UNK        -0.1150 
     11 C11         1.6964  -17.8053  -53.2005 C.ar      23 UNK        -0.0193 
     12 C12         1.2405  -19.0571  -52.7740 C.ar      23 UNK        -0.1150 
     13 C13         1.2486  -19.3958  -51.4171 C.ar      23 UNK        -0.0193 
     14 C14         1.7305  -18.4728  -50.4836 C.ar      23 UNK        -0.1150 
     15 C15         0.7667  -20.7712  -50.9754 C.3       23 UNK        -0.0205 
     16 S16        -0.9990  -20.7749  -50.5190 S.3       23 UNK        -0.2404 
     17 C17        -0.9109  -20.4228  -48.7343 C.3       23 UNK        -0.0398 
     18 CA         -0.9749  -21.7136  -47.8768 C.3       11 UNK         0.1400 
     19 N          -0.2120  -21.5857  -46.6334 N.am      11 UNK        -0.5000 
     20 C           0.0408  -22.5840  -45.7746 C.2       10 UNK         0.5000 
     21 O          -0.2827  -23.7548  -45.9715 O.2       10 UNK        -0.5000 
     22 CA          0.7224  -22.1982  -44.4475 C.3       10 UNK         0.1400 
     23 CB          2.2451  -22.0953  -44.6178 C.3       10 UNK        -0.1800 
     24 N           0.1950  -20.9466  -43.8977 N.am      10 UNK        -0.5000 
     25 C          -1.0644  -20.7937  -43.4619 C.2       9 UNK         0.5000 
     26 O          -1.8854  -21.7084  -43.4178 O.2       9 UNK        -0.5000 
     27 CA         -1.5016  -19.3752  -43.0592 C.3       9 UNK         0.1400 
     28 CB         -1.1519  -19.0866  -41.5951 C.3       9 UNK        -0.1800 
     29 N          -0.9215  -18.3425  -43.9154 N.am      9 UNK        -0.5000 
     30 C          -1.1950  -18.1998  -45.2191 C.2       8 UNK         0.5000 
     31 O          -2.0072  -18.8945  -45.8307 O.2       8 UNK        -0.5000 
     32 CA         -0.3654  -17.1507  -45.9763 C.3       8 UNK         0.1400 
     33 CB         -0.9047  -15.7336  -45.7272 C.3       8 UNK        -0.1800 
     34 N           1.0531  -17.2225  -45.6165 N.am      8 UNK        -0.5000 
     35 C           1.8501  -18.2544  -45.9326 C.2       7 UNK         0.5000 
     36 O           1.4664  -19.2312  -46.5730 O.2       7 UNK        -0.5000 
     37 CA          3.3102  -18.2178  -45.4467 C.3       7 UNK         0.1400 
     38 CB          4.2454  -17.7917  -46.5870 C.3       7 UNK        -0.1800 
     39 N           3.5234  -17.3331  -44.3046 N.am      7 UNK        -0.5000 
     40 C           3.1158  -17.5744  -43.0520 C.2       6 UNK         0.5000 
     41 O           2.5283  -18.6053  -42.7150 O.2       6 UNK        -0.5000 
     42 CA          3.4196  -16.4756  -42.0048 C.3       6 UNK         0.1400 
     43 CB          3.9673  -15.1681  -42.6215 C.3       6 UNK        -0.1800 
     44 N           2.2973  -16.1333  -41.1245 N.am      6 UNK        -0.5000 
     45 C           1.0112  -15.9391  -41.4556 C.2       5 UNK         0.5000 
     46 O           0.5169  -16.2014  -42.5529 O.2       5 UNK        -0.5000 
     47 CA          0.1482  -15.2517  -40.3785 C.3       5 UNK         0.1400 
     48 CB         -0.1162  -16.1884  -39.1879 C.3       5 UNK        -0.1800 
     49 N           0.7523  -14.0096  -39.8815 N.am      5 UNK        -0.5000 
     50 C           1.0912  -12.9549  -40.6374 C.2       4 UNK         0.5000 
     51 O           0.8989  -12.8939  -41.8537 O.2       4 UNK        -0.5000 
     52 CA          1.7931  -11.7925  -39.9071 C.3       4 UNK         0.1400 
     53 CB          3.2142  -12.1996  -39.4817 C.3       4 UNK        -0.1800 
     54 N           1.8947  -10.6139  -40.7656 N.am      4 UNK        -0.5000 
     55 C           0.9118   -9.7343  -41.0001 C.2       3 UNK         0.5000 
     56 O          -0.1620   -9.7266  -40.3965 O.2       3 UNK        -0.5000 
     57 CA          1.1753   -8.6950  -42.1105 C.3       3 UNK         0.1400 
     58 CB          1.7772   -7.4114  -41.5182 C.3       3 UNK        -0.1800 
     59 N           2.0704   -9.2124  -43.1513 N.am      3 UNK        -0.5000 
     60 C           1.7050  -10.1190  -44.0674 C.2       2 UNK         0.5000 
     61 O           0.5408  -10.4969  -44.2315 O.2       2 UNK        -0.5000 
     62 CA          2.8335  -10.7196  -44.9212 C.3       2 UNK         0.1400 
     63 CB          3.8094  -11.5387  -44.0521 C.3       2 UNK        -0.1800 
     64 N           2.2315  -11.5773  -45.9346 N.am      2 UNK        -0.5000 
     65 C           2.8009  -12.0001  -47.0685 C.2       1 UNK         0.5000 
     66 O           3.9569  -11.7274  -47.3948 O.2       1 UNK        -0.5000 
     67 C          -2.4293  -22.1462  -47.6022 C.2       11 UNK         0.5000 
     68 O          -2.9108  -23.0963  -48.2210 O.2       11 UNK        -0.5000 
     69 N          -3.0839  -21.4752  -46.6425 N.am      12 UNK        -0.5000 
     70 CA         -4.4410  -21.7753  -46.1831 C.3       12 UNK         0.1400 
     71 CB         -4.8981  -20.7034  -45.1836 C.3       12 UNK        -0.1800 
     72 C          -4.5740  -23.1850  -45.5777 C.2       12 UNK         0.5000 
     73 O          -5.5298  -23.8905  -45.9006 O.2       12 UNK        -0.5000 
     74 N          -3.5892  -23.5948  -44.7644 N.am      13 UNK        -0.5000 
     75 CA         -3.4827  -24.9362  -44.1803 C.3       13 UNK         0.1400 
     76 CB         -2.3319  -24.9626  -43.1637 C.3       13 UNK        -0.1800 
     77 C          -3.3039  -26.0517  -45.2299 C.2       13 UNK         0.5000 
     78 O          -3.7414  -27.1785  -44.9970 O.2       13 UNK        -0.5000 
     79 N          -2.7166  -25.7082  -46.3835 N.am      14 UNK        -0.5000 
     80 CA         -2.5933  -26.5592  -47.5677 C.3       14 UNK         0.1400 
     81 CB         -1.3060  -26.1766  -48.3202 C.3       14 UNK        -0.1800 
     82 C          -3.8361  -26.4899  -48.4848 C.2       14 UNK         0.5000 
     83 O          -3.7382  -26.8520  -49.6577 O.2       14 UNK        -0.5000 
     84 N          -4.9750  -26.0135  -47.9572 N.am      15 UNK        -0.5000 
     85 CA         -6.2665  -25.8344  -48.6290 C.3       15 UNK         0.1400 
     86 CB         -6.8595  -27.1922  -49.0614 C.3       15 UNK        -0.1800 
     87 C          -6.1813  -24.8149  -49.7800 C.2       15 UNK         0.5000 
     88 O          -6.6644  -25.0799  -50.8819 O.2       15 UNK        -0.5000 
     89 N          -5.5198  -23.6809  -49.5042 N.am      16 UNK        -0.5000 
     90 CA         -5.1752  -22.6105  -50.4470 C.3       16 UNK         0.1400 
     91 CB         -6.4465  -21.9013  -50.9567 C.3       16 UNK        -0.1800 
     92 C          -4.2662  -23.1378  -51.5755 C.2       16 UNK         0.5000 
     93 O          -4.5307  -22.8850  -52.7518 O.2       16 UNK        -0.5000 
     94 N          -3.2531  -23.9226  -51.1744 N.am      17 UNK        -0.5000 
     95 CA         -2.3345  -24.6986  -52.0152 C.3       17 UNK         0.1400 
     96 CB         -1.3077  -23.7714  -52.6938 C.3       17 UNK        -0.1800 
     97 C          -3.0768  -25.6212  -53.0053 C.2       17 UNK         0.5000 
     98 O          -2.8330  -25.5649  -54.2105 O.2       17 UNK        -0.5000 
     99 N          -4.0014  -26.4287  -52.4664 N.am      18 UNK        -0.5000 
    100 CA        -4.9284  -27.3147  -53.1786 C.3       18 UNK         0.1400 
    101 CB        -4.1698  -28.4991  -53.8125 C.3       18 UNK        -0.1800 
    102 C         -5.8179  -26.5503  -54.1841 C.2       18 UNK         0.5000 
    103 O         -5.9254  -26.9414  -55.3481 O.2       18 UNK        -0.5000 
    104 N         -6.4266  -25.4586  -53.6998 N.am      19 UNK        -0.5000 
    105 CA        -7.3115  -24.5311  -54.4117 C.3       19 UNK         0.1400 
    106 CB        -8.6161  -25.2374  -54.8362 C.3       19 UNK        -0.1800 
    107 C         -6.6394  -23.7628  -55.5725 C.2       19 UNK         0.5000 
    108 O         -7.3324  -23.3146  -56.4881 O.2       19 UNK        -0.5000 
    109 N         -5.3125  -23.5888  -55.5092 N.am      20 UNK        -0.5000 
    110 CA        -4.5407  -22.7585  -56.4373 C.3       20 UNK         0.1400 
    111 CB        -3.0800  -23.2300  -56.4473 C.3       20 UNK        -0.1800 
    112 C         -4.6156  -21.2576  -56.0926 C.2       20 UNK         0.5000 
    113 O         -4.3400  -20.4309  -56.9634 O.2       20 UNK        -0.5000 
    114 N         -4.9849  -20.9388  -54.8429 N.am      21 UNK        -0.5000 
    115 CA        -5.0502  -19.6043  -54.2453 C.3       21 UNK         0.1400 
    116 CB        -6.0546  -18.6924  -54.9871 C.3       21 UNK        -0.1800 
    117 C         -3.6404  -19.0088  -54.0613 C.2       21 UNK         0.5000 
    118 O         -2.7394  -19.7333  -53.6340 O.2       21 UNK        -0.5000 
    119 N         -3.4759  -17.7082  -54.3382 N.am      22 UNK        -0.5000 
    120 CA        -2.2425  -16.9142  -54.1837 C.3       22 UNK         0.1400 
    121 C         -1.8449  -16.6405  -52.7019 C.2       22 UNK         0.5000 
    122 N         -1.8507  -17.6364  -51.8286 N.am      22 UNK        -0.7600 
    123 O         -1.5689  -15.5015  -52.3357 O.2       22 UNK        -0.5000 
    124 C124       -1.0730  -17.4801  -55.0364 C.3       23 UNK        -0.0398 
    125 S125        0.3621  -16.3613  -55.1853 S.3       23 UNK        -0.2404 
    126 C126        1.7297  -17.4566  -54.6831 C.3       23 UNK        -0.0205 
    127 H127       -1.8764  -10.6399  -47.2542 H         1 UNK         0.0600 
    128 H128       -2.0117  -12.3842  -47.4932 H         1 UNK         0.0600 
    129 H129       -2.1777  -11.2906  -48.8696 H         1 UNK         0.0600 
    130 H130       -0.0359  -13.3995  -47.4481 H         1 UNK         0.3000 
    131 H131        2.1985  -12.6148  -49.0237 H         1 UNK         0.0600 
    132 H132        3.3617  -14.5301  -47.9411 H         1 UNK         0.0800 
    133 H133        2.0885  -14.6774  -46.7615 H         1 UNK         0.0800 
    134 H134        3.2693  -15.4244  -50.3711 H         1 UNK         0.0800 
    135 H135        3.4114  -16.7275  -49.2147 H         1 UNK         0.0800 
    136 H136        2.5091  -15.9170  -52.5810 H         1 UNK         0.1150 
    137 H137        0.8824  -19.7745  -53.4989 H         1 UNK         0.1150 
    138 H138        1.7584  -18.7273  -49.4337 H         1 UNK         0.1150 
    139 H139        0.9151  -21.4841  -51.7873 H         1 UNK         0.0800 
    140 H140        1.3719  -21.1373  -50.1446 H         1 UNK         0.0800 
    141 H141       -1.7013  -19.7176  -48.4710 H         1 UNK         0.0800 
    142 H142        0.0174  -19.8882  -48.5481 H         1 UNK         0.0800 
    143 H143       -0.4984  -22.5226  -48.4352 H         1 UNK         0.0600 
    144 H144        0.1541  -20.6623  -46.4229 H         1 UNK         0.3000 
    145 H145        0.5180  -22.9905  -43.7244 H         1 UNK         0.0600 
    146 H146        2.7299  -21.7980  -43.6876 H         1 UNK         0.0600 
    147 H147        2.6656  -23.0576  -44.9119 H         1 UNK         0.0600 
    148 H148        2.5199  -21.3745  -45.3867 H         1 UNK         0.0600 
    149 H149        0.8124  -20.1466  -43.8879 H         1 UNK         0.3000 
    150 H150       -2.5873  -19.3238  -43.1616 H         1 UNK         0.0600 
    151 H151       -1.5483  -19.8596  -40.9354 H         1 UNK         0.0600 
    152 H152       -1.5862  -18.1381  -41.2818 H         1 UNK         0.0600 
    153 H153       -0.0734  -19.0371  -41.4388 H         1 UNK         0.0600 
    154 H154       -0.2586  -17.7033  -43.4837 H         1 UNK         0.3000 
    155 H155       -0.4553  -17.3628  -47.0440 H         1 UNK         0.0600 
    156 H156       -1.9520  -15.6603  -46.0226 H         1 UNK         0.0600 
    157 H157       -0.3535  -14.9949  -46.3056 H         1 UNK         0.0600 
    158 H158       -0.8412  -15.4497  -44.6769 H         1 UNK         0.0600 
    159 H159        1.4124  -16.4906  -45.0215 H         1 UNK         0.3000 
    160 H160        3.5817  -19.2317  -45.1475 H         1 UNK         0.0600 
    161 H161        4.0626  -16.7613  -46.8913 H         1 UNK         0.0600 
    162 H162        4.1089  -18.4263  -47.4639 H         1 UNK         0.0600 
    163 H163        5.2911  -17.8726  -46.2896 H         1 UNK         0.0600 
    164 H164        4.0080  -16.4673  -44.4906 H         1 UNK         0.3000 
    165 H165        4.1968  -16.8883  -41.3604 H         1 UNK         0.0600 
    166 H166        4.1892  -14.4348  -41.8464 H         1 UNK         0.0600 
    167 H167        4.8967  -15.3345  -43.1675 H         1 UNK         0.0600 
    168 H168        3.2466  -14.7141  -43.3030 H         1 UNK         0.0600 
    169 H169        2.5594  -15.9097  -40.1758 H         1 UNK         0.3000 
    170 H170       -0.8104  -14.9982  -40.8357 H         1 UNK         0.0600 
    171 H171       -0.8245  -15.7431  -38.4890 H         1 UNK         0.0600 
    172 H172       -0.5400  -17.1372  -39.5126 H         1 UNK         0.0600 
    173 H173        0.7977  -16.4139  -38.6374 H         1 UNK         0.0600 
    174 H174        0.9452  -13.9753  -38.8910 H         1 UNK         0.3000 
    175 H175        1.2136  -11.5413  -39.0163 H         1 UNK         0.0600 
    176 H176        3.8291  -12.4711  -40.3406 H         1 UNK         0.0600 
    177 H177        3.7152  -11.3860  -38.9567 H         1 UNK         0.0600 
    178 H178        3.1981  -13.0553  -38.8059 H         1 UNK         0.0600 
    179 H179        2.7193  -10.5584  -41.3424 H         1 UNK         0.3000 
    180 H180        0.2153   -8.4425  -42.5662 H         1 UNK         0.0600 
    181 H181        2.7458   -7.5968  -41.0523 H         1 UNK         0.0600 
    182 H182        1.1215   -6.9897  -40.7553 H         1 UNK         0.0600 
    183 H183        1.9132   -6.6491  -42.2856 H         1 UNK         0.0600 
    184 H184        3.0370   -8.9240  -43.1001 H         1 UNK         0.3000 
    185 H185        3.3661   -9.9034  -45.4133 H         1 UNK         0.0600 
    186 H186        4.3291  -10.9044  -43.3337 H         1 UNK         0.0600 
    187 H187        3.2849  -12.3108  -43.4885 H         1 UNK         0.0600 
    188 H188        4.5740  -12.0271  -44.6560 H         1 UNK         0.0600 
    189 H189        1.2560  -11.7866  -45.7583 H         1 UNK         0.3000 
    190 H190       -2.6246  -20.6792  -46.2074 H         1 UNK         0.3000 
    191 H191       -5.0988  -21.7254  -47.0531 H         1 UNK         0.0600 
    192 H192       -4.8513  -19.7072  -45.6240 H         1 UNK         0.0600 
    193 H193       -5.9295  -20.8746  -44.8731 H         1 UNK         0.0600 
    194 H194       -4.2819  -20.7008  -44.2848 H         1 UNK         0.0600 
    195 H195       -2.8664  -22.9303  -44.4994 H         1 UNK         0.3000 
    196 H196       -4.4129  -25.1380  -43.6453 H         1 UNK         0.0600 
    197 H197       -2.2447  -25.9440  -42.6958 H         1 UNK         0.0600 
    198 H198       -2.4928  -24.2365  -42.3668 H         1 UNK         0.0600 
    199 H199       -1.3750  -24.7369  -43.6346 H         1 UNK         0.0600 
    200 H200       -2.3705  -24.7616  -46.4813 H         1 UNK         0.3000 
    201 H201       -2.4938  -27.5988  -47.2499 H         1 UNK         0.0600 
    202 H202       -0.4364  -26.2358  -47.6654 H         1 UNK         0.0600 
    203 H203       -1.3532  -25.1627  -48.7166 H         1 UNK         0.0600 
    204 H204       -1.1237  -26.8495  -49.1588 H         1 UNK         0.0600 
    205 H205       -4.9458  -25.6788  -47.0021 H         1 UNK         0.3000 
    206 H206       -6.9412  -25.4026  -47.8886 H         1 UNK         0.0600 
    207 H207       -6.9172  -27.8823  -48.2198 H         1 UNK         0.0600 
    208 H208       -7.8713  -27.0685  -49.4492 H         1 UNK         0.0600 
    209 H209       -6.2678  -27.6669  -49.8444 H         1 UNK         0.0600 
    210 H210       -5.0821  -23.6066  -48.5950 H         1 UNK         0.3000 
    211 H211       -4.5904  -21.8740  -49.8950 H         1 UNK         0.0600 
    212 H212       -7.0439  -22.5432  -51.6040 H         1 UNK         0.0600 
    213 H213       -6.1906  -21.0100  -51.5260 H         1 UNK         0.0600 
    214 H214       -7.0778  -21.5824  -50.1275 H         1 UNK         0.0600 
    215 H215       -3.1366  -24.0371  -50.1747 H         1 UNK         0.3000 
    216 H216       -1.7832  -25.3614  -51.3470 H         1 UNK         0.0600 
    217 H217       -0.6616  -24.3221  -53.3782 H         1 UNK         0.0600 
    218 H218       -0.6603  -23.3121  -51.9496 H         1 UNK         0.0600 
    219 H219       -1.7882  -22.9725  -53.2586 H         1 UNK         0.0600 
    220 H220       -4.0865  -26.4341  -51.4521 H         1 UNK         0.3000 
    221 H221       -5.6016  -27.7217  -52.4228 H         1 UNK         0.0600 
    222 H222       -3.4961  -28.1730  -54.6053 H         1 UNK         0.0600 
    223 H223       -3.5783  -29.0308  -53.0672 H         1 UNK         0.0600 
    224 H224       -4.8643  -29.2180  -54.2486 H         1 UNK         0.0600 
    225 H225       -6.2989  -25.2482  -52.7117 H         1 UNK         0.3000 
    226 H226       -7.5816  -23.7701  -53.6789 H         1 UNK         0.0600 
    227 H227       -9.0779  -25.7513  -53.9931 H         1 UNK         0.0600 
    228 H228       -9.3456  -24.5205  -55.2145 H         1 UNK         0.0600 
    229 H229       -8.4418  -25.9714  -55.6233 H         1 UNK         0.0600 
    230 H230       -4.8161  -23.9477  -54.7020 H         1 UNK         0.3000 
    231 H231       -4.9415  -22.8873  -57.4449 H         1 UNK         0.0600 
    232 H232       -2.6132  -23.1018  -55.4710 H         1 UNK         0.0600 
    233 H233       -2.4904  -22.6639  -57.1693 H         1 UNK         0.0600 
    234 H234       -3.0065  -24.2829  -56.7202 H         1 UNK         0.0600 
    235 H235       -5.0540  -21.7059  -54.1791 H         1 UNK         0.3000 
    236 H236       -5.4365  -19.7487  -53.2379 H         1 UNK         0.0600 
    237 H237       -7.0146  -19.1935  -55.1130 H         1 UNK         0.0600 
    238 H238       -6.2465  -17.7781  -54.4246 H         1 UNK         0.0600 
    239 H239       -5.7004  -18.4045  -55.9773 H         1 UNK         0.0600 
    240 H240       -4.2821  -17.1897  -54.6554 H         1 UNK         0.3000 
    241 H241       -2.4935  -15.9406  -54.6076 H         1 UNK         0.0600 
    242 H242       -1.5766  -17.4673  -50.8757 H         1 UNK         0.3800 
    243 H243       -2.0413  -18.5792  -52.1504 H         1 UNK         0.3800 
    244 H244       -1.4274  -17.6803  -56.0482 H         1 UNK         0.0800 
    245 H245       -0.7492  -18.4438  -54.6468 H         1 UNK         0.0800 
    246 H246        1.7107  -18.3620  -55.2920 H         1 UNK         0.0800 
    247 H247        2.6743  -16.9613  -54.9121 H         1 UNK         0.0800 
@<TRIPOS>BOND
     1    1    2 1    
     2    1  127 1    
     3    1  128 1    
     4    1  129 1    
     5    2    3 2    
     6    2    4 am   BACKBONE|DICT|INTERRES
     7    4    5 1    
     8    4  130 1    
     9    5    6 1    
    10    5   65 1    
    11    5  131 1    
    12    6    7 1    
    13    6  132 1    
    14    6  133 1    
    15    7    8 1    
    16    8    9 1    
    17    8  134 1    
    18    8  135 1    
    19    9   10 ar   
    20    9   14 ar   
    21   10   11 ar   
    22   10  136 1    
    23   11   12 ar   
    24   11  126 1    
    25   12   13 ar   
    26   12  137 1    
    27   13   14 ar   
    28   13   15 1    
    29   14  138 1    
    30   15   16 1    
    31   15  139 1    
    32   15  140 1    
    33   16   17 1    
    34   17   18 1    
    35   17  141 1    
    36   17  142 1    
    37   18   19 1    
    38   18   67 1    
    39   18  143 1    
    40   19   20 am   BACKBONE|DICT|INTERRES
    41   19  144 1    
    42   20   21 2    
    43   20   22 1    
    44   22   23 1    
    45   22   24 1    
    46   22  145 1    
    47   23  146 1    
    48   23  147 1    
    49   23  148 1    
    50   24   25 am   BACKBONE|DICT|INTERRES
    51   24  149 1    
    52   25   26 2    
    53   25   27 1    
    54   27   28 1    
    55   27   29 1    
    56   27  150 1    
    57   28  151 1    
    58   28  152 1    
    59   28  153 1    
    60   29   30 am   BACKBONE|DICT|INTERRES
    61   29  154 1    
    62   30   31 2    
    63   30   32 1    
    64   32   33 1    
    65   32   34 1    
    66   32  155 1    
    67   33  156 1    
    68   33  157 1    
    69   33  158 1    
    70   34   35 am   BACKBONE|DICT|INTERRES
    71   34  159 1    
    72   35   36 2    
    73   35   37 1    
    74   37   38 1    
    75   37   39 1    
    76   37  160 1    
    77   38  161 1    
    78   38  162 1    
    79   38  163 1    
    80   39   40 am   BACKBONE|DICT|INTERRES
    81   39  164 1    
    82   40   41 2    
    83   40   42 1    
    84   42   43 1    
    85   42   44 1    
    86   42  165 1    
    87   43  166 1    
    88   43  167 1    
    89   43  168 1    
    90   44   45 am   BACKBONE|DICT|INTERRES
    91   44  169 1    
    92   45   46 2    
    93   45   47 1    
    94   47   48 1    
    95   47   49 1    
    96   47  170 1    
    97   48  171 1    
    98   48  172 1    
    99   48  173 1    
   100   49   50 am   BACKBONE|DICT|INTERRES
   101   49  174 1    
   102   50   51 2    
   103   50   52 1    
   104   52   53 1    
   105   52   54 1    
   106   52  175 1    
   107   53  176 1    
   108   53  177 1    
   109   53  178 1    
   110   54   55 am   BACKBONE|DICT|INTERRES
   111   54  179 1    
   112   55   56 2    
   113   55   57 1    
   114   57   58 1    
   115   57   59 1    
   116   57  180 1    
   117   58  181 1    
   118   58  182 1    
   119   58  183 1    
   120   59   60 am   BACKBONE|DICT|INTERRES
   121   59  184 1    
   122   60   61 2    
   123   60   62 1    
   124   62   63 1    
   125   62   64 1    
   126   62  185 1    
   127   63  186 1    
   128   63  187 1    
   129   63  188 1    
   130   64   65 am   BACKBONE|DICT|INTERRES
   131   64  189 1    
   132   65   66 2    
   133   67   68 2    
   134   67   69 am   BACKBONE|DICT|INTERRES
   135   69   70 1    
   136   69  190 1    
   137   70   71 1    
   138   70   72 1    
   139   70  191 1    
   140   71  192 1    
   141   71  193 1    
   142   71  194 1    
   143   72   73 2    
   144   72   74 am   BACKBONE|DICT|INTERRES
   145   74   75 1    
   146   74  195 1    
   147   75   76 1    
   148   75   77 1    
   149   75  196 1    
   150   76  197 1    
   151   76  198 1    
   152   76  199 1    
   153   77   78 2    
   154   77   79 am   BACKBONE|DICT|INTERRES
   155   79   80 1    
   156   79  200 1    
   157   80   81 1    
   158   80   82 1    
   159   80  201 1    
   160   81  202 1    
   161   81  203 1    
   162   81  204 1    
   163   82   83 2    
   164   82   84 am   BACKBONE|DICT|INTERRES
   165   84   85 1    
   166   84  205 1    
   167   85   86 1    
   168   85   87 1    
   169   85  206 1    
   170   86  207 1    
   171   86  208 1    
   172   86  209 1    
   173   87   88 2    
   174   87   89 am   BACKBONE|DICT|INTERRES
   175   89   90 1    
   176   89  210 1    
   177   90   91 1    
   178   90   92 1    
   179   90  211 1    
   180   91  212 1    
   181   91  213 1    
   182   91  214 1    
   183   92   93 2    
   184   92   94 am   BACKBONE|DICT|INTERRES
   185   94   95 1    
   186   94  215 1    
   187   95   96 1    
   188   95   97 1    
   189   95  216 1    
   190   96  217 1    
   191   96  218 1    
   192   96  219 1    
   193   97   98 2    
   194   97   99 am   BACKBONE|DICT|INTERRES
   195   99  100 1    
   196   99  220 1    
   197  100  101 1    
   198  100  102 1    
   199  100  221 1    
   200  101  222 1    
   201  101  223 1    
   202  101  224 1    
   203  102  103 2    
   204  102  104 am   BACKBONE|DICT|INTERRES
   205  104  105 1    
   206  104  225 1    
   207  105  106 1    
   208  105  107 1    
   209  105  226 1    
   210  106  227 1    
   211  106  228 1    
   212  106  229 1    
   213  107  108 2    
   214  107  109 am   BACKBONE|DICT|INTERRES
   215  109  110 1    
   216  109  230 1    
   217  110  111 1    
   218  110  112 1    
   219  110  231 1    
   220  111  232 1    
   221  111  233 1    
   222  111  234 1    
   223  112  113 2    
   224  112  114 am   BACKBONE|DICT|INTERRES
   225  114  115 1    
   226  114  235 1    
   227  115  116 1    
   228  115  117 1    
   229  115  236 1    
   230  116  237 1    
   231  116  238 1    
   232  116  239 1    
   233  117  118 2    
   234  117  119 am   BACKBONE|DICT|INTERRES
   235  119  120 1    
   236  119  240 1    
   237  120  121 1    
   238  120  124 1    
   239  120  241 1    
   240  121  122 am   BACKBONE|DICT|INTERRES
   241  121  123 2    
   242  122  242 1    
   243  122  243 1    
   244  124  125 1    
   245  124  244 1    
   246  124  245 1    
   247  125  126 1    
   248  126  246 1    
   249  126  247 1    
@<TRIPOS>SUBSTRUCTURE
     1 UNK         1 GROUP             0       ****    0 ROOT    
