@<TRIPOS>MOLECULE
3R540
247   249    1
SMALL
USER_CHARGES


@<TRIPOS>ATOM
      1 CA         -3.1923  -15.8518  -46.6221 C.3       0 UNK        -0.1800 
      2 C          -2.6422  -14.4498  -46.8481 C.2       0 UNK         0.5000 
      3 O          -2.8267  -13.5735  -46.0051 O.2       0 UNK        -0.5000 
      4 N          -1.9754  -14.2374  -47.9900 N.am      1 UNK        -0.5000 
      5 CA         -1.4137  -12.9491  -48.4232 C.3       1 UNK         0.1400 
      6 C6         -1.0121  -12.9630  -49.9207 C.3       23 UNK        -0.0398 
      7 S7         -2.3929  -13.3497  -51.0533 S.3       23 UNK        -0.2404 
      8 C8         -1.6613  -14.6357  -52.1209 C.3       23 UNK        -0.0205 
      9 C9         -2.0230  -16.0403  -51.6591 C.ar      23 UNK        -0.0193 
     10 C10        -2.8696  -16.8371  -52.4367 C.ar      23 UNK        -0.1150 
     11 C11        -3.1933  -18.1345  -52.0311 C.ar      23 UNK        -0.0193 
     12 C12        -2.6936  -18.6238  -50.8209 C.ar      23 UNK        -0.1150 
     13 C13        -1.8568  -17.8328  -50.0298 C.ar      23 UNK        -0.0193 
     14 C14        -1.5030  -16.5535  -50.4670 C.ar      23 UNK        -0.1150 
     15 C15        -1.3571  -18.3472  -48.6915 C.3       23 UNK        -0.0205 
     16 S16         0.1815  -19.2965  -48.8589 S.3       23 UNK        -0.2404 
     17 C17         0.5362  -19.6202  -47.0985 C.3       23 UNK        -0.0398 
     18 CA          0.2705  -21.0721  -46.6298 C.3       11 UNK         0.1400 
     19 N           0.6572  -21.2357  -45.2302 N.am      11 UNK        -0.5000 
     20 C           0.7704  -22.4036  -44.5860 C.2       10 UNK         0.5000 
     21 O           0.6585  -23.5025  -45.1288 O.2       10 UNK        -0.5000 
     22 CA          1.0168  -22.3249  -43.0679 C.3       10 UNK         0.1400 
     23 CB          2.5136  -22.1539  -42.7698 C.3       10 UNK        -0.1800 
     24 N           0.2600  -21.2484  -42.4217 N.am      10 UNK        -0.5000 
     25 C          -1.0795  -21.1862  -42.3776 C.2       9 UNK         0.5000 
     26 O          -1.8191  -22.0429  -42.8610 O.2       9 UNK        -0.5000 
     27 CA         -1.7017  -19.9438  -41.7165 C.3       9 UNK         0.1400 
     28 CB         -1.6379  -20.0515  -40.1857 C.3       9 UNK        -0.1800 
     29 N          -1.0776  -18.6940  -42.1506 N.am      9 UNK        -0.5000 
     30 C          -1.0938  -18.2290  -43.4080 C.2       8 UNK         0.5000 
     31 O          -1.6570  -18.7939  -44.3430 O.2       8 UNK        -0.5000 
     32 CA         -0.2911  -16.9487  -43.6880 C.3       8 UNK         0.1400 
     33 CB         -1.0461  -15.7035  -43.2014 C.3       8 UNK        -0.1800 
     34 N           1.0420  -16.9915  -43.0903 N.am      8 UNK        -0.5000 
     35 C           1.9833  -17.8974  -43.3934 C.2       7 UNK         0.5000 
     36 O           1.8453  -18.7740  -44.2460 O.2       7 UNK        -0.5000 
     37 CA          3.2776  -17.8448  -42.5680 C.3       7 UNK         0.1400 
     38 CB          4.2221  -16.7595  -43.1042 C.3       7 UNK        -0.1800 
     39 N           3.0051  -17.6133  -41.1495 N.am      7 UNK        -0.5000 
     40 C           2.4073  -18.5019  -40.3424 C.2       6 UNK         0.5000 
     41 O           2.0530  -19.6248  -40.7011 O.2       6 UNK        -0.5000 
     42 CA          2.1173  -18.0373  -38.9043 C.3       6 UNK         0.1400 
     43 CB          3.3737  -18.1580  -38.0290 C.3       6 UNK        -0.1800 
     44 N           1.6166  -16.6631  -38.8527 N.am      6 UNK        -0.5000 
     45 C           0.4353  -16.2713  -39.3504 C.2       5 UNK         0.5000 
     46 O          -0.3704  -17.0348  -39.8806 O.2       5 UNK        -0.5000 
     47 CA          0.1193  -14.7666  -39.2820 C.3       5 UNK         0.1400 
     48 CB         -0.5275  -14.4121  -37.9348 C.3       5 UNK        -0.1800 
     49 N           1.2895  -13.9117  -39.5001 N.am      5 UNK        -0.5000 
     50 C           2.0085  -13.8793  -40.6293 C.2       4 UNK         0.5000 
     51 O           1.8068  -14.6184  -41.5957 O.2       4 UNK        -0.5000 
     52 CA          3.1673  -12.8736  -40.6789 C.3       4 UNK         0.1400 
     53 CB          4.5226  -13.5963  -40.6394 C.3       4 UNK        -0.1800 
     54 N           3.0752  -12.0804  -41.9009 N.am      4 UNK        -0.5000 
     55 C           2.3037  -10.9941  -42.0373 C.2       3 UNK         0.5000 
     56 O           1.6560  -10.4943  -41.1162 O.2       3 UNK        -0.5000 
     57 CA          2.2443  -10.3566  -43.4378 C.3       3 UNK         0.1400 
     58 CB          3.3634   -9.3168  -43.6037 C.3       3 UNK        -0.1800 
     59 N           2.3348  -11.3381  -44.5217 N.am      3 UNK        -0.5000 
     60 C           1.3507  -12.1821  -44.8579 C.2       2 UNK         0.5000 
     61 O           0.2684  -12.2429  -44.2711 O.2       2 UNK        -0.5000 
     62 CA          1.6411  -13.1241  -46.0433 C.3       2 UNK         0.1400 
     63 CB          2.2196  -14.4555  -45.5424 C.3       2 UNK        -0.1800 
     64 N           0.4553  -13.3935  -46.8604 N.am      2 UNK        -0.5000 
     65 C          -0.2070  -12.4741  -47.5787 C.2       1 UNK         0.5000 
     66 O           0.1242  -11.2881  -47.6301 O.2       1 UNK        -0.5000 
     67 C          -1.1891  -21.5271  -46.8493 C.2       11 UNK         0.5000 
     68 O          -1.4345  -22.3827  -47.6987 O.2       11 UNK        -0.5000 
     69 N          -2.1247  -20.9786  -46.0584 N.am      12 UNK        -0.5000 
     70 CA         -3.5645  -21.2386  -46.1467 C.3       12 UNK         0.1400 
     71 CB         -4.3160  -20.3138  -45.1787 C.3       12 UNK        -0.1800 
     72 C          -3.9639  -22.7069  -45.9073 C.2       12 UNK         0.5000 
     73 O          -4.9521  -23.1631  -46.4829 O.2       12 UNK        -0.5000 
     74 N          -3.1759  -23.4326  -45.1023 N.am      13 UNK        -0.5000 
     75 CA         -3.3329  -24.8636  -44.8273 C.3       13 UNK         0.1400 
     76 CB         -2.3243  -25.2792  -43.7452 C.3       13 UNK        -0.1800 
     77 C          -3.1966  -25.7728  -46.0683 C.2       13 UNK         0.5000 
     78 O          -3.6823  -26.9044  -46.0354 O.2       13 UNK        -0.5000 
     79 N          -2.5623  -25.2730  -47.1362 N.am      14 UNK        -0.5000 
     80 CA         -2.4135  -25.9502  -48.4213 C.3       14 UNK         0.1400 
     81 CB         -1.0823  -26.7248  -48.4438 C.3       14 UNK        -0.1800 
     82 C          -2.5352  -24.9199  -49.5562 C.2       14 UNK         0.5000 
     83 O          -1.7283  -24.9352  -50.4861 O.2       14 UNK        -0.5000 
     84 N          -3.5292  -24.0238  -49.4427 N.am      15 UNK        -0.5000 
     85 CA         -3.6969  -22.8132  -50.2544 C.3       15 UNK         0.1400 
     86 CB         -5.0320  -22.1378  -49.9046 C.3       15 UNK        -0.1800 
     87 C          -3.5963  -23.0340  -51.7721 C.2       15 UNK         0.5000 
     88 O          -2.8051  -22.3610  -52.4271 O.2       15 UNK        -0.5000 
     89 N          -4.3671  -23.9973  -52.2940 N.am      16 UNK        -0.5000 
     90 CA         -4.4238  -24.3258  -53.7216 C.3       16 UNK         0.1400 
     91 CB         -5.6091  -25.2699  -53.9703 C.3       16 UNK        -0.1800 
     92 C          -3.1191  -24.9275  -54.2826 C.2       16 UNK         0.5000 
     93 O          -2.8812  -24.8271  -55.4867 O.2       16 UNK        -0.5000 
     94 N          -2.2994  -25.5363  -53.4139 N.am      17 UNK        -0.5000 
     95 CA         -0.9667  -26.0313  -53.7566 C.3       17 UNK         0.1400 
     96 CB         -0.5979  -27.2042  -52.8350 C.3       17 UNK        -0.1800 
     97 C           0.0837  -24.9104  -53.6672 C.2       17 UNK         0.5000 
     98 O           1.0105  -24.8867  -54.4779 O.2       17 UNK        -0.5000 
     99 N          -0.0834  -23.9998  -52.6966 N.am      18 UNK        -0.5000 
    100 CA         0.7610  -22.8234  -52.4922 C.3       18 UNK         0.1400 
    101 CB         0.4273  -22.1724  -51.1409 C.3       18 UNK        -0.1800 
    102 C          0.6496  -21.8080  -53.6450 C.2       18 UNK         0.5000 
    103 O          1.6757  -21.2936  -54.0932 O.2       18 UNK        -0.5000 
    104 N         -0.5741  -21.5727  -54.1345 N.am      19 UNK        -0.5000 
    105 CA        -0.8517  -20.7765  -55.3238 C.3       19 UNK         0.1400 
    106 CB        -0.8637  -19.2766  -54.9829 C.3       19 UNK        -0.1800 
    107 C         -2.1815  -21.2284  -55.9398 C.2       19 UNK         0.5000 
    108 O         -3.1880  -21.3225  -55.2352 O.2       19 UNK        -0.5000 
    109 N         -2.1741  -21.4618  -57.2589 N.am      20 UNK        -0.5000 
    110 CA        -3.3075  -21.9767  -58.0365 C.3       20 UNK         0.1400 
    111 CB        -2.8405  -22.2499  -59.4744 C.3       20 UNK        -0.1800 
    112 C         -4.5550  -21.0702  -58.0396 C.2       20 UNK         0.5000 
    113 O         -5.6550  -21.5604  -58.2979 O.2       20 UNK        -0.5000 
    114 N         -4.3754  -19.7811  -57.7165 N.am      21 UNK        -0.5000 
    115 CA        -5.4298  -18.7749  -57.5636 C.3       21 UNK         0.1400 
    116 CB        -4.7774  -17.4250  -57.2266 C.3       21 UNK        -0.1800 
    117 C         -6.4972  -19.1311  -56.5072 C.2       21 UNK         0.5000 
    118 O         -7.6388  -18.6862  -56.6344 O.2       21 UNK        -0.5000 
    119 N         -6.1181  -19.9364  -55.5065 N.am      22 UNK        -0.5000 
    120 CA        -7.0268  -20.4921  -54.4917 C.3       22 UNK         0.1400 
    121 C         -7.7092  -21.8253  -54.9251 C.2       22 UNK         0.5000 
    122 N         -7.4456  -22.3738  -56.1058 N.am      22 UNK        -0.7600 
    123 O         -8.5120  -22.3733  -54.1751 O.2       22 UNK        -0.5000 
    124 C124       -6.3210  -20.6487  -53.1228 C.3       23 UNK        -0.0398 
    125 S125       -5.7819  -19.0603  -52.3988 S.3       23 UNK        -0.2404 
    126 C126       -4.0421  -19.0282  -52.9182 C.3       23 UNK        -0.0205 
    127 H127       -4.1298  -15.8070  -46.0677 H         1 UNK         0.0600 
    128 H128       -2.4858  -16.4502  -46.0473 H         1 UNK         0.0600 
    129 H129       -3.3885  -16.3592  -47.5668 H         1 UNK         0.0600 
    130 H130       -1.9156  -14.9829  -48.6675 H         1 UNK         0.3000 
    131 H131       -2.1955  -12.1972  -48.2962 H         1 UNK         0.0600 
    132 H132       -0.6291  -11.9848  -50.2182 H         1 UNK         0.0800 
    133 H133       -0.1907  -13.6626  -50.0812 H         1 UNK         0.0800 
    134 H134       -0.5771  -14.5294  -52.1729 H         1 UNK         0.0800 
    135 H135       -2.0217  -14.4720  -53.1377 H         1 UNK         0.0800 
    136 H136       -3.2626  -16.4563  -53.3689 H         1 UNK         0.1150 
    137 H137       -2.9505  -19.6233  -50.4999 H         1 UNK         0.1150 
    138 H138       -0.8263  -15.9562  -49.8751 H         1 UNK         0.1150 
    139 H139       -1.1844  -17.5091  -48.0158 H         1 UNK         0.0800 
    140 H140       -2.1238  -18.9672  -48.2246 H         1 UNK         0.0800 
    141 H141       -0.0127  -18.9124  -46.4765 H         1 UNK         0.0800 
    142 H142        1.5894  -19.3833  -46.9413 H         1 UNK         0.0800 
    143 H143        0.9071  -21.7318  -47.2235 H         1 UNK         0.0600 
    144 H144        0.8324  -20.3799  -44.7115 H         1 UNK         0.3000 
    145 H145        0.6882  -23.2704  -42.6313 H         1 UNK         0.0600 
    146 H146        2.8926  -21.2036  -43.1472 H         1 UNK         0.0600 
    147 H147        2.7080  -22.1893  -41.6977 H         1 UNK         0.0600 
    148 H148        3.0986  -22.9496  -43.2327 H         1 UNK         0.0600 
    149 H149        0.8034  -20.5217  -41.9656 H         1 UNK         0.3000 
    150 H150       -2.7531  -19.9065  -42.0080 H         1 UNK         0.0600 
    151 H151       -2.1005  -20.9763  -39.8385 H         1 UNK         0.0600 
    152 H152       -2.1676  -19.2252  -39.7113 H         1 UNK         0.0600 
    153 H153       -0.6096  -20.0405  -39.8230 H         1 UNK         0.0600 
    154 H154       -0.6216  -18.1424  -41.4289 H         1 UNK         0.3000 
    155 H155       -0.1650  -16.8662  -44.7694 H         1 UNK         0.0600 
    156 H156       -0.5014  -14.7905  -43.4411 H         1 UNK         0.0600 
    157 H157       -2.0259  -15.6298  -43.6743 H         1 UNK         0.0600 
    158 H158       -1.2046  -15.7227  -42.1239 H         1 UNK         0.0600 
    159 H159        1.2599  -16.2705  -42.4077 H         1 UNK         0.3000 
    160 H160        3.7788  -18.8101  -42.6652 H         1 UNK         0.0600 
    161 H161        4.4854  -16.9544  -44.1446 H         1 UNK         0.0600 
    162 H162        5.1506  -16.7247  -42.5342 H         1 UNK         0.0600 
    163 H163        3.7642  -15.7716  -43.0654 H         1 UNK         0.0600 
    164 H164        3.2122  -16.6937  -40.7904 H         1 UNK         0.3000 
    165 H165        1.3490  -18.6944  -38.4911 H         1 UNK         0.0600 
    166 H166        3.1562  -17.9057  -36.9910 H         1 UNK         0.0600 
    167 H167        3.7597  -19.1782  -38.0402 H         1 UNK         0.0600 
    168 H168        4.1727  -17.5006  -38.3743 H         1 UNK         0.0600 
    169 H169        2.2177  -15.9693  -38.4334 H         1 UNK         0.3000 
    170 H170       -0.6014  -14.5461  -40.0718 H         1 UNK         0.0600 
    171 H171       -1.4147  -15.0212  -37.7557 H         1 UNK         0.0600 
    172 H172        0.1574  -14.5768  -37.1021 H         1 UNK         0.0600 
    173 H173       -0.8420  -13.3685  -37.9105 H         1 UNK         0.0600 
    174 H174        1.5230  -13.2735  -38.7532 H         1 UNK         0.3000 
    175 H175        3.1115  -12.2133  -39.8106 H         1 UNK         0.0600 
    176 H176        4.6664  -14.2399  -41.5067 H         1 UNK         0.0600 
    177 H177        5.3459  -12.8821  -40.6165 H         1 UNK         0.0600 
    178 H178        4.6089  -14.2193  -39.7483 H         1 UNK         0.0600 
    179 H179        3.5298  -12.4553  -42.7195 H         1 UNK         0.3000 
    180 H180        1.2866   -9.8386  -43.5243 H         1 UNK         0.0600 
    181 H181        4.3519   -9.7745  -43.5472 H         1 UNK         0.0600 
    182 H182        3.3087   -8.5569  -42.8230 H         1 UNK         0.0600 
    183 H183        3.2850   -8.8022  -44.5616 H         1 UNK         0.0600 
    184 H184        3.1943  -11.3455  -45.0519 H         1 UNK         0.3000 
    185 H185        2.3828  -12.6500  -46.6897 H         1 UNK         0.0600 
    186 H186        1.5235  -14.9637  -44.8778 H         1 UNK         0.0600 
    187 H187        2.4505  -15.1283  -46.3685 H         1 UNK         0.0600 
    188 H188        3.1434  -14.2952  -44.9858 H         1 UNK         0.0600 
    189 H189        0.0966  -14.3354  -46.8455 H         1 UNK         0.3000 
    190 H190       -1.8463  -20.2774  -45.3740 H         1 UNK         0.3000 
    191 H191       -3.8700  -20.9782  -47.1605 H         1 UNK         0.0600 
    192 H192       -4.0079  -20.4814  -44.1462 H         1 UNK         0.0600 
    193 H193       -5.3927  -20.4795  -45.2328 H         1 UNK         0.0600 
    194 H194       -4.1381  -19.2650  -45.4172 H         1 UNK         0.0600 
    195 H195       -2.4277  -22.9568  -44.6089 H         1 UNK         0.3000 
    196 H196       -4.3386  -25.0122  -44.4296 H         1 UNK         0.0600 
    197 H197       -1.2970  -25.1121  -44.0698 H         1 UNK         0.0600 
    198 H198       -2.4238  -26.3375  -43.5006 H         1 UNK         0.0600 
    199 H199       -2.4806  -24.7190  -42.8233 H         1 UNK         0.0600 
    200 H200       -2.1999  -24.3252  -47.0978 H         1 UNK         0.3000 
    201 H201       -3.2298  -26.6608  -48.5646 H         1 UNK         0.0600 
    202 H202       -1.0333  -27.4494  -47.6310 H         1 UNK         0.0600 
    203 H203       -0.2284  -26.0532  -48.3465 H         1 UNK         0.0600 
    204 H204       -0.9652  -27.2776  -49.3763 H         1 UNK         0.0600 
    205 H205       -4.1334  -24.0964  -48.6353 H         1 UNK         0.3000 
    206 H206       -2.8916  -22.1323  -49.9729 H         1 UNK         0.0600 
    207 H207       -5.1064  -21.9180  -48.8423 H         1 UNK         0.0600 
    208 H208       -5.1360  -21.1902  -50.4319 H         1 UNK         0.0600 
    209 H209       -5.8857  -22.7612  -50.1724 H         1 UNK         0.0600 
    210 H210       -4.9655  -24.5279  -51.6780 H         1 UNK         0.3000 
    211 H211       -4.6121  -23.4014  -54.2709 H         1 UNK         0.0600 
    212 H212       -5.4974  -26.2085  -53.4264 H         1 UNK         0.0600 
    213 H213       -5.6994  -25.5116  -55.0302 H         1 UNK         0.0600 
    214 H214       -6.5494  -24.8106  -53.6640 H         1 UNK         0.0600 
    215 H215       -2.5360  -25.5252  -52.4301 H         1 UNK         0.3000 
    216 H216       -0.9733  -26.4052  -54.7828 H         1 UNK         0.0600 
    217 H217        0.3674  -27.6276  -53.1150 H         1 UNK         0.0600 
    218 H218       -1.3353  -28.0044  -52.8998 H         1 UNK         0.0600 
    219 H219       -0.5271  -26.8960  -51.7923 H         1 UNK         0.0600 
    220 H220       -0.8455  -24.1280  -52.0382 H         1 UNK         0.3000 
    221 H221        1.7968  -23.1666  -52.4504 H         1 UNK         0.0600 
    222 H222       -0.5825  -21.7629  -51.1219 H         1 UNK         0.0600 
    223 H223        0.5111  -22.8871  -50.3217 H         1 UNK         0.0600 
    224 H224        1.1142  -21.3525  -50.9299 H         1 UNK         0.0600 
    225 H225       -1.3870  -21.9950  -53.6873 H         1 UNK         0.3000 
    226 H226       -0.0626  -20.9574  -56.0570 H         1 UNK         0.0600 
    227 H227        0.1272  -18.9316  -54.6876 H         1 UNK         0.0600 
    228 H228       -1.1747  -18.6775  -55.8394 H         1 UNK         0.0600 
    229 H229       -1.5438  -19.0604  -54.1618 H         1 UNK         0.0600 
    230 H230       -1.3110  -21.3386  -57.7684 H         1 UNK         0.3000 
    231 H231       -3.6059  -22.9267  -57.5879 H         1 UNK         0.0600 
    232 H232       -3.6499  -22.6639  -60.0773 H         1 UNK         0.0600 
    233 H233       -2.0231  -22.9710  -59.4940 H         1 UNK         0.0600 
    234 H234       -2.4983  -21.3382  -59.9659 H         1 UNK         0.0600 
    235 H235       -3.4341  -19.4777  -57.5177 H         1 UNK         0.3000 
    236 H236       -5.9392  -18.6829  -58.5248 H         1 UNK         0.0600 
    237 H237       -5.5293  -16.6409  -57.1277 H         1 UNK         0.0600 
    238 H238       -4.0864  -17.1130  -58.0099 H         1 UNK         0.0600 
    239 H239       -4.2243  -17.4692  -56.2874 H         1 UNK         0.0600 
    240 H240       -5.1654  -20.2799  -55.4871 H         1 UNK         0.3000 
    241 H241       -7.8483  -19.7888  -54.3437 H         1 UNK         0.0600 
    242 H242       -7.9125  -23.2292  -56.3603 H         1 UNK         0.3800 
    243 H243       -6.8137  -21.9389  -56.7699 H         1 UNK         0.3800 
    244 H244       -5.4731  -21.3267  -53.2141 H         1 UNK         0.0800 
    245 H245       -6.9930  -21.1083  -52.3960 H         1 UNK         0.0800 
    246 H246       -3.9867  -18.7024  -53.9574 H         1 UNK         0.0800 
    247 H247       -3.6237  -20.0320  -52.8950 H         1 UNK         0.0800 
@<TRIPOS>BOND
     1    1    2 1    
     2    1  127 1    
     3    1  128 1    
     4    1  129 1    
     5    2    3 2    
     6    2    4 am   BACKBONE|DICT|INTERRES
     7    4    5 1    
     8    4  130 1    
     9    5    6 1    
    10    5   65 1    
    11    5  131 1    
    12    6    7 1    
    13    6  132 1    
    14    6  133 1    
    15    7    8 1    
    16    8    9 1    
    17    8  134 1    
    18    8  135 1    
    19    9   10 ar   
    20    9   14 ar   
    21   10   11 ar   
    22   10  136 1    
    23   11   12 ar   
    24   11  126 1    
    25   12   13 ar   
    26   12  137 1    
    27   13   14 ar   
    28   13   15 1    
    29   14  138 1    
    30   15   16 1    
    31   15  139 1    
    32   15  140 1    
    33   16   17 1    
    34   17   18 1    
    35   17  141 1    
    36   17  142 1    
    37   18   19 1    
    38   18   67 1    
    39   18  143 1    
    40   19   20 am   BACKBONE|DICT|INTERRES
    41   19  144 1    
    42   20   21 2    
    43   20   22 1    
    44   22   23 1    
    45   22   24 1    
    46   22  145 1    
    47   23  146 1    
    48   23  147 1    
    49   23  148 1    
    50   24   25 am   BACKBONE|DICT|INTERRES
    51   24  149 1    
    52   25   26 2    
    53   25   27 1    
    54   27   28 1    
    55   27   29 1    
    56   27  150 1    
    57   28  151 1    
    58   28  152 1    
    59   28  153 1    
    60   29   30 am   BACKBONE|DICT|INTERRES
    61   29  154 1    
    62   30   31 2    
    63   30   32 1    
    64   32   33 1    
    65   32   34 1    
    66   32  155 1    
    67   33  156 1    
    68   33  157 1    
    69   33  158 1    
    70   34   35 am   BACKBONE|DICT|INTERRES
    71   34  159 1    
    72   35   36 2    
    73   35   37 1    
    74   37   38 1    
    75   37   39 1    
    76   37  160 1    
    77   38  161 1    
    78   38  162 1    
    79   38  163 1    
    80   39   40 am   BACKBONE|DICT|INTERRES
    81   39  164 1    
    82   40   41 2    
    83   40   42 1    
    84   42   43 1    
    85   42   44 1    
    86   42  165 1    
    87   43  166 1    
    88   43  167 1    
    89   43  168 1    
    90   44   45 am   BACKBONE|DICT|INTERRES
    91   44  169 1    
    92   45   46 2    
    93   45   47 1    
    94   47   48 1    
    95   47   49 1    
    96   47  170 1    
    97   48  171 1    
    98   48  172 1    
    99   48  173 1    
   100   49   50 am   BACKBONE|DICT|INTERRES
   101   49  174 1    
   102   50   51 2    
   103   50   52 1    
   104   52   53 1    
   105   52   54 1    
   106   52  175 1    
   107   53  176 1    
   108   53  177 1    
   109   53  178 1    
   110   54   55 am   BACKBONE|DICT|INTERRES
   111   54  179 1    
   112   55   56 2    
   113   55   57 1    
   114   57   58 1    
   115   57   59 1    
   116   57  180 1    
   117   58  181 1    
   118   58  182 1    
   119   58  183 1    
   120   59   60 am   BACKBONE|DICT|INTERRES
   121   59  184 1    
   122   60   61 2    
   123   60   62 1    
   124   62   63 1    
   125   62   64 1    
   126   62  185 1    
   127   63  186 1    
   128   63  187 1    
   129   63  188 1    
   130   64   65 am   BACKBONE|DICT|INTERRES
   131   64  189 1    
   132   65   66 2    
   133   67   68 2    
   134   67   69 am   BACKBONE|DICT|INTERRES
   135   69   70 1    
   136   69  190 1    
   137   70   71 1    
   138   70   72 1    
   139   70  191 1    
   140   71  192 1    
   141   71  193 1    
   142   71  194 1    
   143   72   73 2    
   144   72   74 am   BACKBONE|DICT|INTERRES
   145   74   75 1    
   146   74  195 1    
   147   75   76 1    
   148   75   77 1    
   149   75  196 1    
   150   76  197 1    
   151   76  198 1    
   152   76  199 1    
   153   77   78 2    
   154   77   79 am   BACKBONE|DICT|INTERRES
   155   79   80 1    
   156   79  200 1    
   157   80   81 1    
   158   80   82 1    
   159   80  201 1    
   160   81  202 1    
   161   81  203 1    
   162   81  204 1    
   163   82   83 2    
   164   82   84 am   BACKBONE|DICT|INTERRES
   165   84   85 1    
   166   84  205 1    
   167   85   86 1    
   168   85   87 1    
   169   85  206 1    
   170   86  207 1    
   171   86  208 1    
   172   86  209 1    
   173   87   88 2    
   174   87   89 am   BACKBONE|DICT|INTERRES
   175   89   90 1    
   176   89  210 1    
   177   90   91 1    
   178   90   92 1    
   179   90  211 1    
   180   91  212 1    
   181   91  213 1    
   182   91  214 1    
   183   92   93 2    
   184   92   94 am   BACKBONE|DICT|INTERRES
   185   94   95 1    
   186   94  215 1    
   187   95   96 1    
   188   95   97 1    
   189   95  216 1    
   190   96  217 1    
   191   96  218 1    
   192   96  219 1    
   193   97   98 2    
   194   97   99 am   BACKBONE|DICT|INTERRES
   195   99  100 1    
   196   99  220 1    
   197  100  101 1    
   198  100  102 1    
   199  100  221 1    
   200  101  222 1    
   201  101  223 1    
   202  101  224 1    
   203  102  103 2    
   204  102  104 am   BACKBONE|DICT|INTERRES
   205  104  105 1    
   206  104  225 1    
   207  105  106 1    
   208  105  107 1    
   209  105  226 1    
   210  106  227 1    
   211  106  228 1    
   212  106  229 1    
   213  107  108 2    
   214  107  109 am   BACKBONE|DICT|INTERRES
   215  109  110 1    
   216  109  230 1    
   217  110  111 1    
   218  110  112 1    
   219  110  231 1    
   220  111  232 1    
   221  111  233 1    
   222  111  234 1    
   223  112  113 2    
   224  112  114 am   BACKBONE|DICT|INTERRES
   225  114  115 1    
   226  114  235 1    
   227  115  116 1    
   228  115  117 1    
   229  115  236 1    
   230  116  237 1    
   231  116  238 1    
   232  116  239 1    
   233  117  118 2    
   234  117  119 am   BACKBONE|DICT|INTERRES
   235  119  120 1    
   236  119  240 1    
   237  120  121 1    
   238  120  124 1    
   239  120  241 1    
   240  121  122 am   BACKBONE|DICT|INTERRES
   241  121  123 2    
   242  122  242 1    
   243  122  243 1    
   244  124  125 1    
   245  124  244 1    
   246  124  245 1    
   247  125  126 1    
   248  126  246 1    
   249  126  247 1    
@<TRIPOS>SUBSTRUCTURE
     1 UNK         1 GROUP             0       ****    0 ROOT    
