@<TRIPOS>MOLECULE
3R540
247   249    1
SMALL
USER_CHARGES


@<TRIPOS>ATOM
      1 CA          6.9861  -10.8997  -50.4605 C.3       0 UNK        -0.1800 
      2 C           6.4541  -11.4731  -49.1552 C.2       0 UNK         0.5000 
      3 O           6.1401  -10.7176  -48.2347 O.2       0 UNK        -0.5000 
      4 N           6.3351  -12.8056  -49.0736 N.am      1 UNK        -0.5000 
      5 CA          5.8517  -13.5370  -47.8939 C.3       1 UNK         0.1400 
      6 C6          6.1855  -15.0496  -47.9638 C.3       23 UNK        -0.0398 
      7 S7          5.3996  -15.9267  -49.3619 S.3       23 UNK        -0.2404 
      8 C8          4.0036  -16.7260  -48.5075 C.3       23 UNK        -0.0205 
      9 C9          2.8989  -17.1090  -49.4772 C.ar      23 UNK        -0.0193 
     10 C10         2.1399  -16.1134  -50.0943 C.ar      23 UNK        -0.1150 
     11 C11         1.0944  -16.4495  -50.9552 C.ar      23 UNK        -0.0193 
     12 C12         0.7983  -17.7969  -51.1833 C.ar      23 UNK        -0.1150 
     13 C13         1.5504  -18.8100  -50.5789 C.ar      23 UNK        -0.0193 
     14 C14         2.6134  -18.4513  -49.7363 C.ar      23 UNK        -0.1150 
     15 C15         1.1753  -20.2664  -50.8742 C.3       23 UNK        -0.0205 
     16 S16         1.9159  -21.5228  -49.7709 S.3       23 UNK        -0.2404 
     17 C17         1.1844  -21.0464  -48.1680 C.3       23 UNK        -0.0398 
     18 CA          0.3258  -22.1485  -47.5099 C.3       11 UNK         0.1400 
     19 N          -0.0075  -21.7882  -46.1301 N.am      11 UNK        -0.5000 
     20 C          -0.6183  -22.5841  -45.2431 C.2       10 UNK         0.5000 
     21 O          -0.9414  -23.7471  -45.4746 O.2       10 UNK        -0.5000 
     22 CA         -0.9868  -21.9543  -43.8890 C.3       10 UNK         0.1400 
     23 CB          0.2378  -21.8776  -42.9656 C.3       10 UNK        -0.1800 
     24 N          -1.5834  -20.6268  -44.0431 N.am      10 UNK        -0.5000 
     25 C          -2.7418  -20.3934  -44.6777 C.2       9 UNK         0.5000 
     26 O          -3.4568  -21.2836  -45.1399 O.2       9 UNK        -0.5000 
     27 CA         -3.1517  -18.9214  -44.8639 C.3       9 UNK         0.1400 
     28 CB         -3.8097  -18.3767  -43.5877 C.3       9 UNK        -0.1800 
     29 N          -2.0319  -18.0601  -45.2507 N.am      9 UNK        -0.5000 
     30 C          -1.3470  -18.1700  -46.3988 C.2       8 UNK         0.5000 
     31 O          -1.6084  -18.9974  -47.2701 O.2       8 UNK        -0.5000 
     32 CA         -0.1326  -17.2400  -46.5832 C.3       8 UNK         0.1400 
     33 CB         -0.5749  -15.8253  -46.9777 C.3       8 UNK        -0.1800 
     34 N           0.7086  -17.1766  -45.3889 N.am      8 UNK        -0.5000 
     35 C           1.3451  -18.2281  -44.8547 C.2       7 UNK         0.5000 
     36 O           1.3457  -19.3551  -45.3489 O.2       7 UNK        -0.5000 
     37 CA          2.0498  -17.9923  -43.5102 C.3       7 UNK         0.1400 
     38 CB          3.4314  -17.3537  -43.7199 C.3       7 UNK        -0.1800 
     39 N           1.2392  -17.1604  -42.6194 N.am      7 UNK        -0.5000 
     40 C           0.1090  -17.5745  -42.0275 C.2       6 UNK         0.5000 
     41 O          -0.3475  -18.7108  -42.1498 O.2       6 UNK        -0.5000 
     42 CA         -0.6605  -16.5382  -41.1871 C.3       6 UNK         0.1400 
     43 CB         -0.0784  -16.4529  -39.7685 C.3       6 UNK        -0.1800 
     44 N          -0.6629  -15.2056  -41.7910 N.am      6 UNK        -0.5000 
     45 C          -1.2733  -14.8970  -42.9438 C.2       5 UNK         0.5000 
     46 O          -1.9382  -15.6977  -43.5989 O.2       5 UNK        -0.5000 
     47 CA         -1.0644  -13.4684  -43.4820 C.3       5 UNK         0.1400 
     48 CB         -2.1403  -12.5217  -42.9305 C.3       5 UNK        -0.1800 
     49 N           0.2618  -12.9123  -43.1975 N.am      5 UNK        -0.5000 
     50 C           1.4230  -13.4650  -43.5712 C.2       4 UNK         0.5000 
     51 O           1.5063  -14.5381  -44.1720 O.2       4 UNK        -0.5000 
     52 CA          2.6892  -12.6623  -43.2378 C.3       4 UNK         0.1400 
     53 CB          3.9156  -13.5652  -43.0182 C.3       4 UNK        -0.1800 
     54 N           2.9490  -11.7508  -44.3450 N.am      4 UNK        -0.5000 
     55 C           2.4643  -10.5043  -44.4384 C.2       3 UNK         0.5000 
     56 O           1.8486   -9.9455  -43.5295 O.2       3 UNK        -0.5000 
     57 CA          2.6757   -9.7604  -45.7741 C.3       3 UNK         0.1400 
     58 CB          3.9368   -8.8859  -45.7095 C.3       3 UNK        -0.1800 
     59 N           2.7807  -10.6580  -46.9249 N.am      3 UNK        -0.5000 
     60 C           1.7966  -11.4493  -47.3779 C.2       2 UNK         0.5000 
     61 O           0.6437  -11.4165  -46.9473 O.2       2 UNK        -0.5000 
     62 CA          2.1641  -12.4666  -48.4784 C.3       2 UNK         0.1400 
     63 CB          1.6891  -11.9636  -49.8501 C.3       2 UNK        -0.1800 
     64 N           3.5942  -12.7833  -48.5651 N.am      2 UNK        -0.5000 
     65 C           4.3565  -13.2937  -47.5851 C.2       1 UNK         0.5000 
     66 O           3.9296  -13.5535  -46.4620 O.2       1 UNK        -0.5000 
     67 C          -0.9318  -22.4894  -48.3394 C.2       11 UNK         0.5000 
     68 O          -0.9442  -23.5079  -49.0308 O.2       11 UNK        -0.5000 
     69 N          -1.9823  -21.6657  -48.2154 N.am      12 UNK        -0.5000 
     70 CA         -3.2777  -21.8553  -48.8684 C.3       12 UNK         0.1400 
     71 CB         -4.1797  -20.6490  -48.5659 C.3       12 UNK        -0.1800 
     72 C          -3.9764  -23.1697  -48.4731 C.2       12 UNK         0.5000 
     73 O          -4.5917  -23.8075  -49.3298 O.2       12 UNK        -0.5000 
     74 N          -3.8530  -23.5515  -47.1947 N.am      13 UNK        -0.5000 
     75 CA         -4.3369  -24.8209  -46.6573 C.3       13 UNK         0.1400 
     76 CB         -4.4375  -24.7223  -45.1279 C.3       13 UNK        -0.1800 
     77 C          -3.4482  -26.0068  -47.0750 C.2       13 UNK         0.5000 
     78 O          -3.9749  -27.0427  -47.4818 O.2       13 UNK        -0.5000 
     79 N          -2.1205  -25.8349  -46.9880 N.am      14 UNK        -0.5000 
     80 CA         -1.1138  -26.8417  -47.3420 C.3       14 UNK         0.1400 
     81 CB          0.2832  -26.3391  -46.9502 C.3       14 UNK        -0.1800 
     82 C          -1.1393  -27.2487  -48.8261 C.2       14 UNK         0.5000 
     83 O          -0.8055  -28.3910  -49.1462 O.2       14 UNK        -0.5000 
     84 N          -1.5759  -26.3322  -49.6994 N.am      15 UNK        -0.5000 
     85 CA         -1.8454  -26.5421  -51.1215 C.3       15 UNK         0.1400 
     86 CB         -1.9516  -25.1661  -51.8027 C.3       15 UNK        -0.1800 
     87 C          -3.1003  -27.4134  -51.3599 C.2       15 UNK         0.5000 
     88 O          -4.0573  -26.9607  -51.9881 O.2       15 UNK        -0.5000 
     89 N          -3.0839  -28.6442  -50.8283 N.am      16 UNK        -0.5000 
     90 CA         -4.0924  -29.7043  -50.9615 C.3       16 UNK         0.1400 
     91 CB         -4.0597  -30.2745  -52.3947 C.3       16 UNK        -0.1800 
     92 C          -5.5182  -29.2943  -50.5266 C.2       16 UNK         0.5000 
     93 O          -6.4945  -29.8298  -51.0547 O.2       16 UNK        -0.5000 
     94 N          -5.6136  -28.3381  -49.5893 N.am      17 UNK        -0.5000 
     95 CA         -6.8359  -27.6857  -49.1075 C.3       17 UNK         0.1400 
     96 CB         -7.7098  -28.6773  -48.3117 C.3       17 UNK        -0.1800 
     97 C          -7.6222  -26.9390  -50.2096 C.2       17 UNK         0.5000 
     98 O          -8.8322  -26.7503  -50.0732 O.2       17 UNK        -0.5000 
     99 N          -6.9307  -26.5086  -51.2767 N.am      18 UNK        -0.5000 
    100 CA        -7.5177  -25.7931  -52.4131 C.3       18 UNK         0.1400 
    101 CB        -6.5664  -25.8910  -53.6161 C.3       18 UNK        -0.1800 
    102 C         -7.8440  -24.3175  -52.1118 C.2       18 UNK         0.5000 
    103 O         -8.5401  -23.6896  -52.9105 O.2       18 UNK        -0.5000 
    104 N         -7.3301  -23.7925  -50.9878 N.am      19 UNK        -0.5000 
    105 CA        -7.4289  -22.4032  -50.5334 C.3       19 UNK         0.1400 
    106 CB        -8.8914  -21.9989  -50.2521 C.3       19 UNK        -0.1800 
    107 C         -6.6983  -21.4479  -51.4962 C.2       19 UNK         0.5000 
    108 O         -7.2599  -20.4397  -51.9299 O.2       19 UNK        -0.5000 
    109 N         -5.4423  -21.7943  -51.8124 N.am      20 UNK        -0.5000 
    110 CA        -4.5353  -21.0594  -52.7002 C.3       20 UNK         0.1400 
    111 CB        -3.4192  -22.0153  -53.1589 C.3       20 UNK        -0.1800 
    112 C         -3.9819  -19.7664  -52.0563 C.2       20 UNK         0.5000 
    113 O         -2.7670  -19.5975  -51.9369 O.2       20 UNK        -0.5000 
    114 N         -4.8945  -18.8908  -51.6229 N.am      21 UNK        -0.5000 
    115 CA        -4.6184  -17.5832  -51.0350 C.3       21 UNK         0.1400 
    116 CB        -5.8881  -17.0966  -50.3184 C.3       21 UNK        -0.1800 
    117 C         -4.1494  -16.5601  -52.0871 C.2       21 UNK         0.5000 
    118 O         -4.3190  -16.7726  -53.2908 O.2       21 UNK        -0.5000 
    119 N         -3.5714  -15.4581  -51.6000 N.am      22 UNK        -0.5000 
    120 CA        -2.9247  -14.4109  -52.4099 C.3       22 UNK         0.1400 
    121 C         -3.8926  -13.4726  -53.1901 C.2       22 UNK         0.5000 
    122 N         -5.1995  -13.5243  -52.9647 N.am      22 UNK        -0.7600 
    123 O         -3.4476  -12.6842  -54.0198 O.2       22 UNK        -0.5000 
    124 C124       -1.9042  -13.5809  -51.5817 C.3       23 UNK        -0.0398 
    125 S125       -0.8619  -14.5796  -50.4635 S.3       23 UNK        -0.2404 
    126 C126        0.2887  -15.3551  -51.6347 C.3       23 UNK        -0.0205 
    127 H127        6.2502  -10.2281  -50.9026 H         1 UNK         0.0600 
    128 H128        7.8990  -10.3334  -50.2763 H         1 UNK         0.0600 
    129 H129        7.2115  -11.6825  -51.1851 H         1 UNK         0.0600 
    130 H130        6.5926  -13.3797  -49.8646 H         1 UNK         0.3000 
    131 H131        6.3969  -13.1372  -47.0360 H         1 UNK         0.0600 
    132 H132        5.9230  -15.5419  -47.0254 H         1 UNK         0.0800 
    133 H133        7.2648  -15.1753  -48.0595 H         1 UNK         0.0800 
    134 H134        4.3697  -17.5999  -47.9664 H         1 UNK         0.0800 
    135 H135        3.5812  -16.0584  -47.7558 H         1 UNK         0.0800 
    136 H136        2.3636  -15.0743  -49.9030 H         1 UNK         0.1150 
    137 H137       -0.0223  -18.0603  -51.8369 H         1 UNK         0.1150 
    138 H138        3.2190  -19.2090  -49.2624 H         1 UNK         0.1150 
    139 H139        0.0894  -20.3746  -50.8358 H         1 UNK         0.0800 
    140 H140        1.4709  -20.4953  -51.8987 H         1 UNK         0.0800 
    141 H141        0.6061  -20.1279  -48.2743 H         1 UNK         0.0800 
    142 H142        2.0174  -20.7943  -47.5106 H         1 UNK         0.0800 
    143 H143        0.9340  -23.0533  -47.4569 H         1 UNK         0.0600 
    144 H144        0.2571  -20.8513  -45.8371 H         1 UNK         0.3000 
    145 H145       -1.7284  -22.6000  -43.4141 H         1 UNK         0.0600 
    146 H146       -0.0375  -21.5094  -41.9773 H         1 UNK         0.0600 
    147 H147        0.6879  -22.8621  -42.8320 H         1 UNK         0.0600 
    148 H148        1.0063  -21.2166  -43.3661 H         1 UNK         0.0600 
    149 H149       -1.0750  -19.8476  -43.6374 H         1 UNK         0.3000 
    150 H150       -3.8904  -18.8835  -45.6669 H         1 UNK         0.0600 
    151 H151       -4.6515  -19.0004  -43.2845 H         1 UNK         0.0600 
    152 H152       -4.1923  -17.3677  -43.7423 H         1 UNK         0.0600 
    153 H153       -3.1068  -18.3439  -42.7548 H         1 UNK         0.0600 
    154 H154       -1.7917  -17.3138  -44.6038 H         1 UNK         0.3000 
    155 H155        0.4731  -17.6431  -47.3978 H         1 UNK         0.0600 
    156 H156       -1.2235  -15.8553  -47.8529 H         1 UNK         0.0600 
    157 H157        0.2824  -15.1993  -47.2250 H         1 UNK         0.0600 
    158 H158       -1.1298  -15.3358  -46.1785 H         1 UNK         0.0600 
    159 H159        0.7972  -16.2746  -44.9311 H         1 UNK         0.3000 
    160 H160        2.1963  -18.9625  -43.0309 H         1 UNK         0.0600 
    161 H161        3.9305  -17.1657  -42.7692 H         1 UNK         0.0600 
    162 H162        3.3656  -16.4087  -44.2588 H         1 UNK         0.0600 
    163 H163        4.0765  -18.0128  -44.3020 H         1 UNK         0.0600 
    164 H164        1.5033  -16.1883  -42.5448 H         1 UNK         0.3000 
    165 H165       -1.6961  -16.8763  -41.1105 H         1 UNK         0.0600 
    166 H166       -0.6653  -15.7816  -39.1412 H         1 UNK         0.0600 
    167 H167       -0.0812  -17.4315  -39.2866 H         1 UNK         0.0600 
    168 H168        0.9512  -16.0930  -39.7749 H         1 UNK         0.0600 
    169 H169       -0.1367  -14.4861  -41.3179 H         1 UNK         0.3000 
    170 H170       -1.1721  -13.5087  -44.5676 H         1 UNK         0.0600 
    171 H171       -3.1407  -12.8987  -43.1476 H         1 UNK         0.0600 
    172 H172       -2.0598  -12.4067  -41.8489 H         1 UNK         0.0600 
    173 H173       -2.0630  -11.5319  -43.3810 H         1 UNK         0.0600 
    174 H174        0.2832  -12.0090  -42.7447 H         1 UNK         0.3000 
    175 H175        2.5198  -12.1045  -42.3144 H         1 UNK         0.0600 
    176 H176        4.7908  -12.9763  -42.7441 H         1 UNK         0.0600 
    177 H177        3.7358  -14.2772  -42.2119 H         1 UNK         0.0600 
    178 H178        4.1686  -14.1381  -43.9099 H         1 UNK         0.0600 
    179 H179        3.3711  -12.1785  -45.1639 H         1 UNK         0.3000 
    180 H180        1.8128   -9.1099  -45.9304 H         1 UNK         0.0600 
    181 H181        4.8373   -9.4884  -45.5819 H         1 UNK         0.0600 
    182 H182        3.8864   -8.1871  -44.8734 H         1 UNK         0.0600 
    183 H183        4.0551   -8.2962  -46.6189 H         1 UNK         0.0600 
    184 H184        3.6959  -10.7471  -47.3454 H         1 UNK         0.3000 
    185 H185        1.6356  -13.3935  -48.2482 H         1 UNK         0.0600 
    186 H186        1.8717  -12.7033  -50.6292 H         1 UNK         0.0600 
    187 H187        0.6170  -11.7620  -49.8426 H         1 UNK         0.0600 
    188 H188        2.1953  -11.0411  -50.1369 H         1 UNK         0.0600 
    189 H189        4.0412  -12.5952  -49.4503 H         1 UNK         0.3000 
    190 H190       -1.8748  -20.8143  -47.6690 H         1 UNK         0.3000 
    191 H191       -3.0949  -21.8882  -49.9431 H         1 UNK         0.0600 
    192 H192       -4.3920  -20.5591  -47.5014 H         1 UNK         0.0600 
    193 H193       -5.1359  -20.7270  -49.0802 H         1 UNK         0.0600 
    194 H194       -3.7132  -19.7197  -48.8908 H         1 UNK         0.0600 
    195 H195       -3.3717  -22.9349  -46.5498 H         1 UNK         0.3000 
    196 H196       -5.3403  -25.0006  -47.0492 H         1 UNK         0.0600 
    197 H197       -3.4686  -24.5197  -44.6703 H         1 UNK         0.0600 
    198 H198       -4.8161  -25.6516  -44.7004 H         1 UNK         0.0600 
    199 H199       -5.1183  -23.9246  -44.8299 H         1 UNK         0.0600 
    200 H200       -1.7633  -24.9662  -46.5963 H         1 UNK         0.3000 
    201 H201       -1.3281  -27.7380  -46.7566 H         1 UNK         0.0600 
    202 H202        0.5423  -25.4243  -47.4829 H         1 UNK         0.0600 
    203 H203        1.0468  -27.0823  -47.1832 H         1 UNK         0.0600 
    204 H204        0.3450  -26.1363  -45.8810 H         1 UNK         0.0600 
    205 H205       -1.7562  -25.3984  -49.3464 H         1 UNK         0.3000 
    206 H206       -0.9964  -27.0697  -51.5603 H         1 UNK         0.0600 
    207 H207       -1.0351  -24.5897  -51.6754 H         1 UNK         0.0600 
    208 H208       -2.1253  -25.2676  -52.8747 H         1 UNK         0.0600 
    209 H209       -2.7736  -24.5815  -51.3881 H         1 UNK         0.0600 
    210 H210       -2.2671  -28.8813  -50.2712 H         1 UNK         0.3000 
    211 H211       -3.7885  -30.5003  -50.2806 H         1 UNK         0.0600 
    212 H212       -4.4053  -29.5426  -53.1257 H         1 UNK         0.0600 
    213 H213       -4.6971  -31.1549  -52.4846 H         1 UNK         0.0600 
    214 H214       -3.0513  -30.5783  -52.6756 H         1 UNK         0.0600 
    215 H215       -4.7570  -27.9754  -49.1843 H         1 UNK         0.3000 
    216 H216       -6.5087  -26.9130  -48.4116 H         1 UNK         0.0600 
    217 H217       -7.1307  -29.1743  -47.5334 H         1 UNK         0.0600 
    218 H218       -8.5365  -28.1640  -47.8194 H         1 UNK         0.0600 
    219 H219       -8.1395  -29.4461  -48.9542 H         1 UNK         0.0600 
    220 H220       -5.9366  -26.7103  -51.3408 H         1 UNK         0.3000 
    221 H221       -8.4536  -26.2869  -52.6827 H         1 UNK         0.0600 
    222 H222       -5.6344  -25.3538  -53.4353 H         1 UNK         0.0600 
    223 H223       -6.3186  -26.9283  -53.8423 H         1 UNK         0.0600 
    224 H224       -7.0210  -25.4628  -54.5102 H         1 UNK         0.0600 
    225 H225       -6.7347  -24.3890  -50.4286 H         1 UNK         0.3000 
    226 H226       -6.8970  -22.3531  -49.5830 H         1 UNK         0.0600 
    227 H227       -9.3697  -22.7017  -49.5699 H         1 UNK         0.0600 
    228 H228       -8.9376  -21.0131  -49.7881 H         1 UNK         0.0600 
    229 H229       -9.4891  -21.9559  -51.1628 H         1 UNK         0.0600 
    230 H230       -5.0714  -22.6374  -51.3957 H         1 UNK         0.3000 
    231 H231       -5.0969  -20.7586  -53.5870 H         1 UNK         0.0600 
    232 H232       -3.8299  -22.9117  -53.6242 H         1 UNK         0.0600 
    233 H233       -2.7881  -22.3275  -52.3267 H         1 UNK         0.0600 
    234 H234       -2.7735  -21.5354  -53.8952 H         1 UNK         0.0600 
    235 H235       -5.8710  -19.1287  -51.7690 H         1 UNK         0.3000 
    236 H236       -3.8218  -17.6991  -50.2970 H         1 UNK         0.0600 
    237 H237       -6.7168  -16.9649  -51.0155 H         1 UNK         0.0600 
    238 H238       -6.2041  -17.8072  -49.5542 H         1 UNK         0.0600 
    239 H239       -5.7215  -16.1410  -49.8200 H         1 UNK         0.0600 
    240 H240       -3.4733  -15.3528  -50.6008 H         1 UNK         0.3000 
    241 H241       -2.3561  -14.9295  -53.1837 H         1 UNK         0.0600 
    242 H242       -5.8176  -12.9154  -53.4779 H         1 UNK         0.3800 
    243 H243       -5.5771  -14.1741  -52.2942 H         1 UNK         0.3800 
    244 H244       -1.2561  -13.0014  -52.2416 H         1 UNK         0.0800 
    245 H245       -2.4294  -12.8532  -50.9605 H         1 UNK         0.0800 
    246 H246        0.9598  -14.5991  -52.0446 H         1 UNK         0.0800 
    247 H247       -0.2653  -15.7695  -52.4775 H         1 UNK         0.0800 
@<TRIPOS>BOND
     1    1    2 1    
     2    1  127 1    
     3    1  128 1    
     4    1  129 1    
     5    2    3 2    
     6    2    4 am   BACKBONE|DICT|INTERRES
     7    4    5 1    
     8    4  130 1    
     9    5    6 1    
    10    5   65 1    
    11    5  131 1    
    12    6    7 1    
    13    6  132 1    
    14    6  133 1    
    15    7    8 1    
    16    8    9 1    
    17    8  134 1    
    18    8  135 1    
    19    9   10 ar   
    20    9   14 ar   
    21   10   11 ar   
    22   10  136 1    
    23   11   12 ar   
    24   11  126 1    
    25   12   13 ar   
    26   12  137 1    
    27   13   14 ar   
    28   13   15 1    
    29   14  138 1    
    30   15   16 1    
    31   15  139 1    
    32   15  140 1    
    33   16   17 1    
    34   17   18 1    
    35   17  141 1    
    36   17  142 1    
    37   18   19 1    
    38   18   67 1    
    39   18  143 1    
    40   19   20 am   BACKBONE|DICT|INTERRES
    41   19  144 1    
    42   20   21 2    
    43   20   22 1    
    44   22   23 1    
    45   22   24 1    
    46   22  145 1    
    47   23  146 1    
    48   23  147 1    
    49   23  148 1    
    50   24   25 am   BACKBONE|DICT|INTERRES
    51   24  149 1    
    52   25   26 2    
    53   25   27 1    
    54   27   28 1    
    55   27   29 1    
    56   27  150 1    
    57   28  151 1    
    58   28  152 1    
    59   28  153 1    
    60   29   30 am   BACKBONE|DICT|INTERRES
    61   29  154 1    
    62   30   31 2    
    63   30   32 1    
    64   32   33 1    
    65   32   34 1    
    66   32  155 1    
    67   33  156 1    
    68   33  157 1    
    69   33  158 1    
    70   34   35 am   BACKBONE|DICT|INTERRES
    71   34  159 1    
    72   35   36 2    
    73   35   37 1    
    74   37   38 1    
    75   37   39 1    
    76   37  160 1    
    77   38  161 1    
    78   38  162 1    
    79   38  163 1    
    80   39   40 am   BACKBONE|DICT|INTERRES
    81   39  164 1    
    82   40   41 2    
    83   40   42 1    
    84   42   43 1    
    85   42   44 1    
    86   42  165 1    
    87   43  166 1    
    88   43  167 1    
    89   43  168 1    
    90   44   45 am   BACKBONE|DICT|INTERRES
    91   44  169 1    
    92   45   46 2    
    93   45   47 1    
    94   47   48 1    
    95   47   49 1    
    96   47  170 1    
    97   48  171 1    
    98   48  172 1    
    99   48  173 1    
   100   49   50 am   BACKBONE|DICT|INTERRES
   101   49  174 1    
   102   50   51 2    
   103   50   52 1    
   104   52   53 1    
   105   52   54 1    
   106   52  175 1    
   107   53  176 1    
   108   53  177 1    
   109   53  178 1    
   110   54   55 am   BACKBONE|DICT|INTERRES
   111   54  179 1    
   112   55   56 2    
   113   55   57 1    
   114   57   58 1    
   115   57   59 1    
   116   57  180 1    
   117   58  181 1    
   118   58  182 1    
   119   58  183 1    
   120   59   60 am   BACKBONE|DICT|INTERRES
   121   59  184 1    
   122   60   61 2    
   123   60   62 1    
   124   62   63 1    
   125   62   64 1    
   126   62  185 1    
   127   63  186 1    
   128   63  187 1    
   129   63  188 1    
   130   64   65 am   BACKBONE|DICT|INTERRES
   131   64  189 1    
   132   65   66 2    
   133   67   68 2    
   134   67   69 am   BACKBONE|DICT|INTERRES
   135   69   70 1    
   136   69  190 1    
   137   70   71 1    
   138   70   72 1    
   139   70  191 1    
   140   71  192 1    
   141   71  193 1    
   142   71  194 1    
   143   72   73 2    
   144   72   74 am   BACKBONE|DICT|INTERRES
   145   74   75 1    
   146   74  195 1    
   147   75   76 1    
   148   75   77 1    
   149   75  196 1    
   150   76  197 1    
   151   76  198 1    
   152   76  199 1    
   153   77   78 2    
   154   77   79 am   BACKBONE|DICT|INTERRES
   155   79   80 1    
   156   79  200 1    
   157   80   81 1    
   158   80   82 1    
   159   80  201 1    
   160   81  202 1    
   161   81  203 1    
   162   81  204 1    
   163   82   83 2    
   164   82   84 am   BACKBONE|DICT|INTERRES
   165   84   85 1    
   166   84  205 1    
   167   85   86 1    
   168   85   87 1    
   169   85  206 1    
   170   86  207 1    
   171   86  208 1    
   172   86  209 1    
   173   87   88 2    
   174   87   89 am   BACKBONE|DICT|INTERRES
   175   89   90 1    
   176   89  210 1    
   177   90   91 1    
   178   90   92 1    
   179   90  211 1    
   180   91  212 1    
   181   91  213 1    
   182   91  214 1    
   183   92   93 2    
   184   92   94 am   BACKBONE|DICT|INTERRES
   185   94   95 1    
   186   94  215 1    
   187   95   96 1    
   188   95   97 1    
   189   95  216 1    
   190   96  217 1    
   191   96  218 1    
   192   96  219 1    
   193   97   98 2    
   194   97   99 am   BACKBONE|DICT|INTERRES
   195   99  100 1    
   196   99  220 1    
   197  100  101 1    
   198  100  102 1    
   199  100  221 1    
   200  101  222 1    
   201  101  223 1    
   202  101  224 1    
   203  102  103 2    
   204  102  104 am   BACKBONE|DICT|INTERRES
   205  104  105 1    
   206  104  225 1    
   207  105  106 1    
   208  105  107 1    
   209  105  226 1    
   210  106  227 1    
   211  106  228 1    
   212  106  229 1    
   213  107  108 2    
   214  107  109 am   BACKBONE|DICT|INTERRES
   215  109  110 1    
   216  109  230 1    
   217  110  111 1    
   218  110  112 1    
   219  110  231 1    
   220  111  232 1    
   221  111  233 1    
   222  111  234 1    
   223  112  113 2    
   224  112  114 am   BACKBONE|DICT|INTERRES
   225  114  115 1    
   226  114  235 1    
   227  115  116 1    
   228  115  117 1    
   229  115  236 1    
   230  116  237 1    
   231  116  238 1    
   232  116  239 1    
   233  117  118 2    
   234  117  119 am   BACKBONE|DICT|INTERRES
   235  119  120 1    
   236  119  240 1    
   237  120  121 1    
   238  120  124 1    
   239  120  241 1    
   240  121  122 am   BACKBONE|DICT|INTERRES
   241  121  123 2    
   242  122  242 1    
   243  122  243 1    
   244  124  125 1    
   245  124  244 1    
   246  124  245 1    
   247  125  126 1    
   248  126  246 1    
   249  126  247 1    
@<TRIPOS>SUBSTRUCTURE
     1 UNK         1 GROUP             0       ****    0 ROOT    
