@<TRIPOS>MOLECULE
3R540
247   249    1
SMALL
USER_CHARGES


@<TRIPOS>ATOM
      1 CA          1.2794  -11.5045  -44.6409 C.3       0 UNK        -0.1800 
      2 C           2.1535  -11.3424  -45.8775 C.2       0 UNK         0.5000 
      3 O           2.9053  -10.3725  -45.9729 O.2       0 UNK        -0.5000 
      4 N           2.0336  -12.2753  -46.8327 N.am      1 UNK        -0.5000 
      5 CA          2.7062  -12.2539  -48.1387 C.3       1 UNK         0.1400 
      6 C6          2.2145  -13.3883  -49.0722 C.3       23 UNK        -0.0398 
      7 S7          0.4256  -13.3071  -49.4333 S.3       23 UNK        -0.2404 
      8 C8         -0.1970  -14.9094  -48.8206 C.3       23 UNK        -0.0205 
      9 C9          0.4494  -16.0983  -49.5192 C.ar      23 UNK        -0.0193 
     10 C10         0.1184  -16.4030  -50.8423 C.ar      23 UNK        -0.1150 
     11 C11         0.7329  -17.4724  -51.5002 C.ar      23 UNK        -0.0193 
     12 C12         1.6767  -18.2483  -50.8192 C.ar      23 UNK        -0.1150 
     13 C13         2.0169  -17.9544  -49.4950 C.ar      23 UNK        -0.0193 
     14 C14         1.3910  -16.8848  -48.8480 C.ar      23 UNK        -0.1150 
     15 C15         3.1102  -18.7474  -48.7899 C.3       23 UNK        -0.0205 
     16 S16         2.5599  -20.3945  -48.2434 S.3       23 UNK        -0.2404 
     17 C17         1.4772  -19.9759  -46.8355 C.3       23 UNK        -0.0398 
     18 CA          0.1913  -20.8340  -46.7687 C.3       11 UNK         0.1400 
     19 N          -0.4917  -20.6622  -45.4842 N.am      11 UNK        -0.5000 
     20 C          -1.5369  -21.3827  -45.0560 C.2       10 UNK         0.5000 
     21 O          -2.0223  -22.3249  -45.6804 O.2       10 UNK        -0.5000 
     22 CA         -2.1843  -20.9417  -43.7298 C.3       10 UNK         0.1400 
     23 CB         -1.4015  -21.4840  -42.5251 C.3       10 UNK        -0.1800 
     24 N          -2.3130  -19.4867  -43.6272 N.am      10 UNK        -0.5000 
     25 C          -3.0734  -18.7411  -44.4427 C.2       9 UNK         0.5000 
     26 O          -3.7895  -19.2118  -45.3255 O.2       9 UNK        -0.5000 
     27 CA         -2.9859  -17.2138  -44.2811 C.3       9 UNK         0.1400 
     28 CB         -3.8717  -16.7376  -43.1206 C.3       9 UNK        -0.1800 
     29 N          -1.6121  -16.7467  -44.0888 N.am      9 UNK        -0.5000 
     30 C          -0.6389  -16.8664  -45.0038 C.2       8 UNK         0.5000 
     31 O          -0.8129  -17.3325  -46.1285 O.2       8 UNK        -0.5000 
     32 CA          0.7794  -16.4484  -44.5786 C.3       8 UNK         0.1400 
     33 CB          0.9558  -14.9273  -44.6527 C.3       8 UNK        -0.1800 
     34 N           1.1139  -16.9024  -43.2336 N.am      8 UNK        -0.5000 
     35 C           1.2085  -18.1815  -42.8530 C.2       7 UNK         0.5000 
     36 O           1.0718  -19.1350  -43.6180 O.2       7 UNK        -0.5000 
     37 CA          1.4463  -18.4310  -41.3551 C.3       7 UNK         0.1400 
     38 CB          2.9329  -18.2783  -41.0003 C.3       7 UNK        -0.1800 
     39 N           0.6501  -17.5307  -40.5208 N.am      7 UNK        -0.5000 
     40 C          -0.6817  -17.5962  -40.3919 C.2       6 UNK         0.5000 
     41 O          -1.3816  -18.4420  -40.9496 O.2       6 UNK        -0.5000 
     42 CA         -1.3419  -16.5155  -39.5153 C.3       6 UNK         0.1400 
     43 CB         -1.2346  -16.8834  -38.0279 C.3       6 UNK        -0.1800 
     44 N          -0.7718  -15.1831  -39.7289 N.am      6 UNK        -0.5000 
     45 C          -0.9193  -14.4775  -40.8584 C.2       5 UNK         0.5000 
     46 O          -1.5513  -14.8775  -41.8350 O.2       5 UNK        -0.5000 
     47 CA         -0.2039  -13.1143  -40.9313 C.3       5 UNK         0.1400 
     48 CB         -1.0381  -12.0288  -40.2351 C.3       5 UNK        -0.1800 
     49 N           1.1625  -13.0982  -40.3944 N.am      5 UNK        -0.5000 
     50 C           2.1431  -13.9330  -40.7615 C.2       4 UNK         0.5000 
     51 O           1.9670  -14.9209  -41.4761 O.2       4 UNK        -0.5000 
     52 CA          3.5598  -13.6305  -40.2370 C.3       4 UNK         0.1400 
     53 CB          3.7711  -14.2919  -38.8668 C.3       4 UNK        -0.1800 
     54 N           4.5755  -14.1317  -41.1669 N.am      4 UNK        -0.5000 
     55 C           4.7324  -13.6870  -42.4208 C.2       3 UNK         0.5000 
     56 O           4.1933  -12.6656  -42.8577 O.2       3 UNK        -0.5000 
     57 CA          5.6019  -14.5476  -43.3509 C.3       3 UNK         0.1400 
     58 CB          5.0762  -15.9978  -43.4324 C.3       3 UNK        -0.1800 
     59 N           5.5890  -13.9400  -44.6778 N.am      3 UNK        -0.5000 
     60 C           6.4496  -14.1911  -45.6696 C.2       2 UNK         0.5000 
     61 O           7.4012  -14.9659  -45.5580 O.2       2 UNK        -0.5000 
     62 CA          6.1882  -13.4775  -47.0101 C.3       2 UNK         0.1400 
     63 CB          6.7468  -14.2653  -48.2147 C.3       2 UNK        -0.1800 
     64 N           4.7576  -13.2200  -47.1975 N.am      2 UNK        -0.5000 
     65 C           4.2451  -12.3030  -48.0279 C.2       1 UNK         0.5000 
     66 O           4.9276  -11.5260  -48.6976 O.2       1 UNK        -0.5000 
     67 C          -0.7512  -20.5748  -47.9645 C.2       11 UNK         0.5000 
     68 O          -0.7660  -21.3712  -48.9020 O.2       11 UNK        -0.5000 
     69 N          -1.5453  -19.4971  -47.8906 N.am      12 UNK        -0.5000 
     70 CA         -2.5515  -19.1421  -48.8911 C.3       12 UNK         0.1400 
     71 CB         -3.0861  -17.7337  -48.5985 C.3       12 UNK        -0.1800 
     72 C          -3.7107  -20.1533  -48.9661 C.2       12 UNK         0.5000 
     73 O          -4.2075  -20.4153  -50.0603 O.2       12 UNK        -0.5000 
     74 N          -4.1192  -20.7038  -47.8131 N.am      13 UNK        -0.5000 
     75 CA         -5.1281  -21.7563  -47.7026 C.3       13 UNK         0.1400 
     76 CB         -5.5527  -21.9263  -46.2357 C.3       13 UNK        -0.1800 
     77 C          -4.6315  -23.0839  -48.3016 C.2       13 UNK         0.5000 
     78 O          -5.2490  -23.6118  -49.2280 O.2       13 UNK        -0.5000 
     79 N          -3.4894  -23.5726  -47.8026 N.am      14 UNK        -0.5000 
     80 CA         -2.8256  -24.8046  -48.2338 C.3       14 UNK         0.1400 
     81 CB         -2.0226  -25.3733  -47.0503 C.3       14 UNK        -0.1800 
     82 C          -1.9572  -24.5975  -49.4949 C.2       14 UNK         0.5000 
     83 O          -0.8394  -25.1125  -49.5651 O.2       14 UNK        -0.5000 
     84 N          -2.4855  -23.8390  -50.4623 N.am      15 UNK        -0.5000 
     85 CA         -1.8469  -23.5059  -51.7311 C.3       15 UNK         0.1400 
     86 CB         -2.2470  -22.0741  -52.1172 C.3       15 UNK        -0.1800 
     87 C          -2.1616  -24.5736  -52.8010 C.2       15 UNK         0.5000 
     88 O          -2.0482  -25.7663  -52.5073 O.2       15 UNK        -0.5000 
     89 N          -2.5306  -24.1589  -54.0235 N.am      16 UNK        -0.5000 
     90 CA         -2.7637  -25.0368  -55.1743 C.3       16 UNK         0.1400 
     91 CB         -3.0166  -24.1900  -56.4323 C.3       16 UNK        -0.1800 
     92 C          -3.9260  -26.0083  -54.9088 C.2       16 UNK         0.5000 
     93 O          -5.0703  -25.5688  -54.7879 O.2       16 UNK        -0.5000 
     94 N          -3.5901  -27.2953  -54.7317 N.am      17 UNK        -0.5000 
     95 CA         -4.4757  -28.4031  -54.3411 C.3       17 UNK         0.1400 
     96 CB         -5.4543  -28.7300  -55.4884 C.3       17 UNK        -0.1800 
     97 C          -5.2091  -28.1827  -52.9956 C.2       17 UNK         0.5000 
     98 O          -6.2319  -28.8237  -52.7490 O.2       17 UNK        -0.5000 
     99 N          -4.6922  -27.2598  -52.1669 N.am      18 UNK        -0.5000 
    100 CA        -5.3081  -26.7051  -50.9570 C.3       18 UNK         0.1400 
    101 CB        -5.3120  -27.7444  -49.8183 C.3       18 UNK        -0.1800 
    102 C         -6.6968  -26.0689  -51.2082 C.2       18 UNK         0.5000 
    103 O         -7.5574  -26.0973  -50.3273 O.2       18 UNK        -0.5000 
    104 N         -6.8952  -25.5018  -52.4083 N.am      19 UNK        -0.5000 
    105 CA        -8.1536  -24.8985  -52.8584 C.3       19 UNK         0.1400 
    106 CB        -8.2410  -25.0294  -54.3885 C.3       19 UNK        -0.1800 
    107 C         -8.3269  -23.4284  -52.4211 C.2       19 UNK         0.5000 
    108 O         -9.2799  -22.7829  -52.8600 O.2       19 UNK        -0.5000 
    109 N         -7.4096  -22.9206  -51.5851 N.am      20 UNK        -0.5000 
    110 CA        -7.3372  -21.5494  -51.0729 C.3       20 UNK         0.1400 
    111 CB        -8.5354  -21.2285  -50.1554 C.3       20 UNK        -0.1800 
    112 C         -7.0971  -20.4937  -52.1716 C.2       20 UNK         0.5000 
    113 O         -7.6269  -19.3832  -52.0952 O.2       20 UNK        -0.5000 
    114 N         -6.2874  -20.8597  -53.1702 N.am      21 UNK        -0.5000 
    115 CA        -5.8308  -20.0004  -54.2530 C.3       21 UNK         0.1400 
    116 CB        -6.8228  -20.0689  -55.4258 C.3       21 UNK        -0.1800 
    117 C         -4.4375  -20.4765  -54.6782 C.2       21 UNK         0.5000 
    118 O         -4.1717  -21.6800  -54.6442 O.2       21 UNK        -0.5000 
    119 N         -3.5795  -19.5329  -55.0742 N.am      22 UNK        -0.5000 
    120 CA        -2.1987  -19.7928  -55.5197 C.3       22 UNK         0.1400 
    121 C         -2.0612  -20.0018  -57.0571 C.2       22 UNK         0.5000 
    122 N         -3.1305  -19.9315  -57.8406 N.am      22 UNK        -0.7600 
    123 O         -0.9639  -20.2485  -57.5499 O.2       22 UNK        -0.5000 
    124 C124       -1.2216  -18.7054  -55.0023 C.3       23 UNK        -0.0398 
    125 S125       -1.1618  -18.6145  -53.1781 S.3       23 UNK        -0.2404 
    126 C126        0.4212  -17.7471  -52.9634 C.3       23 UNK        -0.0205 
    127 H127        1.8085  -12.0634  -43.8699 H         1 UNK         0.0600 
    128 H128        0.3532  -12.0290  -44.8752 H         1 UNK         0.0600 
    129 H129        1.0146  -10.5295  -44.2319 H         1 UNK         0.0600 
    130 H130        1.3669  -13.0207  -46.7053 H         1 UNK         0.3000 
    131 H131        2.4523  -11.3019  -48.6102 H         1 UNK         0.0600 
    132 H132        2.4640  -14.3588  -48.6443 H         1 UNK         0.0800 
    133 H133        2.7340  -13.3429  -50.0313 H         1 UNK         0.0800 
    134 H134       -1.2745  -14.9403  -48.9837 H         1 UNK         0.0800 
    135 H135       -0.0553  -14.9729  -47.7430 H         1 UNK         0.0800 
    136 H136       -0.6027  -15.7928  -51.3679 H         1 UNK         0.1150 
    137 H137        2.1670  -19.0676  -51.3260 H         1 UNK         0.1150 
    138 H138        1.6546  -16.6478  -47.8274 H         1 UNK         0.1150 
    139 H139        3.9518  -18.8726  -49.4727 H         1 UNK         0.0800 
    140 H140        3.4996  -18.1942  -47.9337 H         1 UNK         0.0800 
    141 H141        1.2256  -18.9162  -46.8547 H         1 UNK         0.0800 
    142 H142        2.0662  -20.1253  -45.9298 H         1 UNK         0.0800 
    143 H143        0.4905  -21.8833  -46.8191 H         1 UNK         0.0600 
    144 H144       -0.1211  -19.9409  -44.8716 H         1 UNK         0.3000 
    145 H145       -3.1896  -21.3665  -43.6955 H         1 UNK         0.0600 
    146 H146       -1.8966  -21.2301  -41.5876 H         1 UNK         0.0600 
    147 H147       -1.3238  -22.5710  -42.5686 H         1 UNK         0.0600 
    148 H148       -0.3885  -21.0841  -42.4859 H         1 UNK         0.0600 
    149 H149       -1.7861  -19.0304  -42.8902 H         1 UNK         0.3000 
    150 H150       -3.3643  -16.7629  -45.2008 H         1 UNK         0.0600 
    151 H151       -4.8984  -17.0842  -43.2442 H         1 UNK         0.0600 
    152 H152       -3.9011  -15.6492  -43.0699 H         1 UNK         0.0600 
    153 H153       -3.5123  -17.1079  -42.1602 H         1 UNK         0.0600 
    154 H154       -1.4063  -16.2970  -43.2019 H         1 UNK         0.3000 
    155 H155        1.4859  -16.9085  -45.2720 H         1 UNK         0.0600 
    156 H156        0.3087  -14.4160  -43.9398 H         1 UNK         0.0600 
    157 H157        0.7117  -14.5527  -45.6444 H         1 UNK         0.0600 
    158 H158        1.9843  -14.6384  -44.4350 H         1 UNK         0.0600 
    159 H159        1.2890  -16.1776  -42.5387 H         1 UNK         0.3000 
    160 H160        1.1475  -19.4583  -41.1364 H         1 UNK         0.0600 
    161 H161        3.1185  -18.5496  -39.9610 H         1 UNK         0.0600 
    162 H162        3.2792  -17.2552  -41.1446 H         1 UNK         0.0600 
    163 H163        3.5522  -18.9264  -41.6218 H         1 UNK         0.0600 
    164 H164        1.1392  -16.7565  -40.0959 H         1 UNK         0.3000 
    165 H165       -2.4011  -16.4780  -39.7792 H         1 UNK         0.0600 
    166 H166       -1.7722  -16.1680  -37.4054 H         1 UNK         0.0600 
    167 H167       -1.6664  -17.8670  -37.8375 H         1 UNK         0.0600 
    168 H168       -0.1975  -16.9092  -37.6912 H         1 UNK         0.0600 
    169 H169       -0.2237  -14.7884  -38.9789 H         1 UNK         0.3000 
    170 H170       -0.1301  -12.8508  -41.9883 H         1 UNK         0.0600 
    171 H171       -2.0562  -12.0065  -40.6265 H         1 UNK         0.0600 
    172 H172       -1.1031  -12.1984  -39.1597 H         1 UNK         0.0600 
    173 H173       -0.6099  -11.0390  -40.3943 H         1 UNK         0.0600 
    174 H174        1.3884  -12.3271  -39.7829 H         1 UNK         0.3000 
    175 H175        3.6801  -12.5498  -40.1383 H         1 UNK         0.0600 
    176 H176        3.6593  -15.3759  -38.9211 H         1 UNK         0.0600 
    177 H177        4.7649  -14.0764  -38.4740 H         1 UNK         0.0600 
    178 H178        3.0484  -13.9236  -38.1376 H         1 UNK         0.0600 
    179 H179        5.0406  -14.9846  -40.8951 H         1 UNK         0.3000 
    180 H180        6.6227  -14.5431  -42.9637 H         1 UNK         0.0600 
    181 H181        4.0251  -16.0284  -43.7225 H         1 UNK         0.0600 
    182 H182        5.1678  -16.5058  -42.4728 H         1 UNK         0.0600 
    183 H183        5.6373  -16.5907  -44.1543 H         1 UNK         0.0600 
    184 H184        4.8942  -13.2099  -44.7800 H         1 UNK         0.3000 
    185 H185        6.7102  -12.5204  -46.9508 H         1 UNK         0.0600 
    186 H186        7.8189  -14.4374  -48.1120 H         1 UNK         0.0600 
    187 H187        6.2638  -15.2382  -48.3124 H         1 UNK         0.0600 
    188 H188        6.6019  -13.7250  -49.1500 H         1 UNK         0.0600 
    189 H189        4.1302  -13.8164  -46.6771 H         1 UNK         0.3000 
    190 H190       -1.4304  -18.8522  -47.1135 H         1 UNK         0.3000 
    191 H191       -2.0590  -19.1233  -49.8661 H         1 UNK         0.0600 
    192 H192       -3.5996  -17.6882  -47.6379 H         1 UNK         0.0600 
    193 H193       -3.7915  -17.4161  -49.3671 H         1 UNK         0.0600 
    194 H194       -2.2762  -17.0071  -48.5771 H         1 UNK         0.0600 
    195 H195       -3.7109  -20.3705  -46.9456 H         1 UNK         0.3000 
    196 H196       -6.0107  -21.4394  -48.2582 H         1 UNK         0.0600 
    197 H197       -6.3129  -22.7022  -46.1377 H         1 UNK         0.0600 
    198 H198       -5.9779  -21.0032  -45.8414 H         1 UNK         0.0600 
    199 H199       -4.7153  -22.2048  -45.5965 H         1 UNK         0.0600 
    200 H200       -3.0081  -23.0461  -47.0757 H         1 UNK         0.3000 
    201 H201       -3.5895  -25.5406  -48.4895 H         1 UNK         0.0600 
    202 H202       -2.6546  -25.5085  -46.1725 H         1 UNK         0.0600 
    203 H203       -1.1996  -24.7139  -46.7719 H         1 UNK         0.0600 
    204 H204       -1.5968  -26.3470  -47.2957 H         1 UNK         0.0600 
    205 H205       -3.4162  -23.4714  -50.3130 H         1 UNK         0.3000 
    206 H206       -0.7631  -23.5116  -51.5991 H         1 UNK         0.0600 
    207 H207       -1.9189  -21.3627  -51.3599 H         1 UNK         0.0600 
    208 H208       -1.7809  -21.7653  -53.0512 H         1 UNK         0.0600 
    209 H209       -3.3273  -21.9707  -52.2137 H         1 UNK         0.0600 
    210 H210       -2.7413  -23.1781  -54.1699 H         1 UNK         0.3000 
    211 H211       -1.8503  -25.6116  -55.3400 H         1 UNK         0.0600 
    212 H212       -3.9480  -23.6276  -56.3636 H         1 UNK         0.0600 
    213 H213       -3.0864  -24.8236  -57.3170 H         1 UNK         0.0600 
    214 H214       -2.2081  -23.4788  -56.6030 H         1 UNK         0.0600 
    215 H215       -2.6105  -27.5369  -54.7944 H         1 UNK         0.3000 
    216 H216       -3.8328  -29.2721  -54.1946 H         1 UNK         0.0600 
    217 H217       -6.0169  -29.6405  -55.2789 H         1 UNK         0.0600 
    218 H218       -4.9232  -28.8890  -56.4269 H         1 UNK         0.0600 
    219 H219       -6.1768  -27.9280  -55.6435 H         1 UNK         0.0600 
    220 H220       -3.8242  -26.8157  -52.4503 H         1 UNK         0.3000 
    221 H221       -4.6612  -25.8842  -50.6495 H         1 UNK         0.0600 
    222 H222       -5.9796  -28.5788  -50.0349 H         1 UNK         0.0600 
    223 H223       -4.3134  -28.1474  -49.6498 H         1 UNK         0.0600 
    224 H224       -5.6414  -27.2957  -48.8804 H         1 UNK         0.0600 
    225 H225       -6.1517  -25.5327  -53.1004 H         1 UNK         0.3000 
    226 H226       -8.9856  -25.4604  -52.4292 H         1 UNK         0.0600 
    227 H227       -9.2199  -24.7184  -54.7548 H         1 UNK         0.0600 
    228 H228       -7.4940  -24.4102  -54.8868 H         1 UNK         0.0600 
    229 H229       -8.0889  -26.0609  -54.7075 H         1 UNK         0.0600 
    230 H230       -6.6826  -23.5413  -51.2562 H         1 UNK         0.3000 
    231 H231       -6.4444  -21.5242  -50.4559 H         1 UNK         0.0600 
    232 H232       -8.6479  -21.9839  -49.3777 H         1 UNK         0.0600 
    233 H233       -9.4712  -21.1754  -50.7120 H         1 UNK         0.0600 
    234 H234       -8.3974  -20.2689  -49.6559 H         1 UNK         0.0600 
    235 H235       -5.8606  -21.7768  -53.1594 H         1 UNK         0.3000 
    236 H236       -5.7546  -18.9709  -53.8964 H         1 UNK         0.0600 
    237 H237       -7.8143  -19.7309  -55.1239 H         1 UNK         0.0600 
    238 H238       -6.4995  -19.4329  -56.2505 H         1 UNK         0.0600 
    239 H239       -6.9193  -21.0855  -55.8095 H         1 UNK         0.0600 
    240 H240       -3.8700  -18.5661  -55.0775 H         1 UNK         0.3000 
    241 H241       -1.8665  -20.7391  -55.0918 H         1 UNK         0.0600 
    242 H242       -3.0285  -20.0755  -58.8331 H         1 UNK         0.3800 
    243 H243       -4.0403  -19.7443  -57.4521 H         1 UNK         0.3800 
    244 H244       -1.4973  -17.7248  -55.3934 H         1 UNK         0.0800 
    245 H245       -0.2108  -18.9059  -55.3621 H         1 UNK         0.0800 
    246 H246        1.2197  -18.3383  -53.4144 H         1 UNK         0.0800 
    247 H247        0.3917  -16.8030  -53.5097 H         1 UNK         0.0800 
@<TRIPOS>BOND
     1    1    2 1    
     2    1  127 1    
     3    1  128 1    
     4    1  129 1    
     5    2    3 2    
     6    2    4 am   BACKBONE|DICT|INTERRES
     7    4    5 1    
     8    4  130 1    
     9    5    6 1    
    10    5   65 1    
    11    5  131 1    
    12    6    7 1    
    13    6  132 1    
    14    6  133 1    
    15    7    8 1    
    16    8    9 1    
    17    8  134 1    
    18    8  135 1    
    19    9   10 ar   
    20    9   14 ar   
    21   10   11 ar   
    22   10  136 1    
    23   11   12 ar   
    24   11  126 1    
    25   12   13 ar   
    26   12  137 1    
    27   13   14 ar   
    28   13   15 1    
    29   14  138 1    
    30   15   16 1    
    31   15  139 1    
    32   15  140 1    
    33   16   17 1    
    34   17   18 1    
    35   17  141 1    
    36   17  142 1    
    37   18   19 1    
    38   18   67 1    
    39   18  143 1    
    40   19   20 am   BACKBONE|DICT|INTERRES
    41   19  144 1    
    42   20   21 2    
    43   20   22 1    
    44   22   23 1    
    45   22   24 1    
    46   22  145 1    
    47   23  146 1    
    48   23  147 1    
    49   23  148 1    
    50   24   25 am   BACKBONE|DICT|INTERRES
    51   24  149 1    
    52   25   26 2    
    53   25   27 1    
    54   27   28 1    
    55   27   29 1    
    56   27  150 1    
    57   28  151 1    
    58   28  152 1    
    59   28  153 1    
    60   29   30 am   BACKBONE|DICT|INTERRES
    61   29  154 1    
    62   30   31 2    
    63   30   32 1    
    64   32   33 1    
    65   32   34 1    
    66   32  155 1    
    67   33  156 1    
    68   33  157 1    
    69   33  158 1    
    70   34   35 am   BACKBONE|DICT|INTERRES
    71   34  159 1    
    72   35   36 2    
    73   35   37 1    
    74   37   38 1    
    75   37   39 1    
    76   37  160 1    
    77   38  161 1    
    78   38  162 1    
    79   38  163 1    
    80   39   40 am   BACKBONE|DICT|INTERRES
    81   39  164 1    
    82   40   41 2    
    83   40   42 1    
    84   42   43 1    
    85   42   44 1    
    86   42  165 1    
    87   43  166 1    
    88   43  167 1    
    89   43  168 1    
    90   44   45 am   BACKBONE|DICT|INTERRES
    91   44  169 1    
    92   45   46 2    
    93   45   47 1    
    94   47   48 1    
    95   47   49 1    
    96   47  170 1    
    97   48  171 1    
    98   48  172 1    
    99   48  173 1    
   100   49   50 am   BACKBONE|DICT|INTERRES
   101   49  174 1    
   102   50   51 2    
   103   50   52 1    
   104   52   53 1    
   105   52   54 1    
   106   52  175 1    
   107   53  176 1    
   108   53  177 1    
   109   53  178 1    
   110   54   55 am   BACKBONE|DICT|INTERRES
   111   54  179 1    
   112   55   56 2    
   113   55   57 1    
   114   57   58 1    
   115   57   59 1    
   116   57  180 1    
   117   58  181 1    
   118   58  182 1    
   119   58  183 1    
   120   59   60 am   BACKBONE|DICT|INTERRES
   121   59  184 1    
   122   60   61 2    
   123   60   62 1    
   124   62   63 1    
   125   62   64 1    
   126   62  185 1    
   127   63  186 1    
   128   63  187 1    
   129   63  188 1    
   130   64   65 am   BACKBONE|DICT|INTERRES
   131   64  189 1    
   132   65   66 2    
   133   67   68 2    
   134   67   69 am   BACKBONE|DICT|INTERRES
   135   69   70 1    
   136   69  190 1    
   137   70   71 1    
   138   70   72 1    
   139   70  191 1    
   140   71  192 1    
   141   71  193 1    
   142   71  194 1    
   143   72   73 2    
   144   72   74 am   BACKBONE|DICT|INTERRES
   145   74   75 1    
   146   74  195 1    
   147   75   76 1    
   148   75   77 1    
   149   75  196 1    
   150   76  197 1    
   151   76  198 1    
   152   76  199 1    
   153   77   78 2    
   154   77   79 am   BACKBONE|DICT|INTERRES
   155   79   80 1    
   156   79  200 1    
   157   80   81 1    
   158   80   82 1    
   159   80  201 1    
   160   81  202 1    
   161   81  203 1    
   162   81  204 1    
   163   82   83 2    
   164   82   84 am   BACKBONE|DICT|INTERRES
   165   84   85 1    
   166   84  205 1    
   167   85   86 1    
   168   85   87 1    
   169   85  206 1    
   170   86  207 1    
   171   86  208 1    
   172   86  209 1    
   173   87   88 2    
   174   87   89 am   BACKBONE|DICT|INTERRES
   175   89   90 1    
   176   89  210 1    
   177   90   91 1    
   178   90   92 1    
   179   90  211 1    
   180   91  212 1    
   181   91  213 1    
   182   91  214 1    
   183   92   93 2    
   184   92   94 am   BACKBONE|DICT|INTERRES
   185   94   95 1    
   186   94  215 1    
   187   95   96 1    
   188   95   97 1    
   189   95  216 1    
   190   96  217 1    
   191   96  218 1    
   192   96  219 1    
   193   97   98 2    
   194   97   99 am   BACKBONE|DICT|INTERRES
   195   99  100 1    
   196   99  220 1    
   197  100  101 1    
   198  100  102 1    
   199  100  221 1    
   200  101  222 1    
   201  101  223 1    
   202  101  224 1    
   203  102  103 2    
   204  102  104 am   BACKBONE|DICT|INTERRES
   205  104  105 1    
   206  104  225 1    
   207  105  106 1    
   208  105  107 1    
   209  105  226 1    
   210  106  227 1    
   211  106  228 1    
   212  106  229 1    
   213  107  108 2    
   214  107  109 am   BACKBONE|DICT|INTERRES
   215  109  110 1    
   216  109  230 1    
   217  110  111 1    
   218  110  112 1    
   219  110  231 1    
   220  111  232 1    
   221  111  233 1    
   222  111  234 1    
   223  112  113 2    
   224  112  114 am   BACKBONE|DICT|INTERRES
   225  114  115 1    
   226  114  235 1    
   227  115  116 1    
   228  115  117 1    
   229  115  236 1    
   230  116  237 1    
   231  116  238 1    
   232  116  239 1    
   233  117  118 2    
   234  117  119 am   BACKBONE|DICT|INTERRES
   235  119  120 1    
   236  119  240 1    
   237  120  121 1    
   238  120  124 1    
   239  120  241 1    
   240  121  122 am   BACKBONE|DICT|INTERRES
   241  121  123 2    
   242  122  242 1    
   243  122  243 1    
   244  124  125 1    
   245  124  244 1    
   246  124  245 1    
   247  125  126 1    
   248  126  246 1    
   249  126  247 1    
@<TRIPOS>SUBSTRUCTURE
     1 UNK         1 GROUP             0       ****    0 ROOT    
