@<TRIPOS>MOLECULE
3R540
247   249    1
SMALL
USER_CHARGES


@<TRIPOS>ATOM
      1 CA          3.3553  -15.6084  -47.9738 C.3       0 UNK        -0.1800 
      2 C           2.2909  -14.5603  -47.6846 C.2       0 UNK         0.5000 
      3 O           2.5979  -13.5054  -47.1284 O.2       0 UNK        -0.5000 
      4 N           1.0362  -14.8458  -48.0472 N.am      1 UNK        -0.5000 
      5 CA         -0.0964  -13.9295  -47.8897 C.3       1 UNK         0.1400 
      6 C6         -1.4553  -14.6520  -48.0536 C.3       23 UNK        -0.0398 
      7 S7         -1.6411  -16.0473  -46.8928 S.3       23 UNK        -0.2404 
      8 C8         -1.9844  -17.4342  -48.0204 C.3       23 UNK        -0.0205 
      9 C9         -0.8058  -17.7845  -48.9199 C.ar      23 UNK        -0.0193 
     10 C10        -0.8127  -17.4387  -50.2720 C.ar      23 UNK        -0.1150 
     11 C11         0.2448  -17.8135  -51.1046 C.ar      23 UNK        -0.0193 
     12 C12         1.3110  -18.5486  -50.5782 C.ar      23 UNK        -0.1150 
     13 C13         1.3318  -18.9150  -49.2289 C.ar      23 UNK        -0.0193 
     14 C14         0.2751  -18.5028  -48.4084 C.ar      23 UNK        -0.1150 
     15 C15         2.5100  -19.7479  -48.7097 C.3       23 UNK        -0.0205 
     16 S16         2.2219  -20.7076  -47.1755 S.3       23 UNK        -0.2404 
     17 C17         0.7530  -21.6946  -47.6231 C.3       23 UNK        -0.0398 
     18 CA          0.5032  -22.9203  -46.7110 C.3       11 UNK         0.1400 
     19 N           0.3537  -22.5761  -45.2864 N.am      11 UNK        -0.5000 
     20 C           0.2634  -23.4794  -44.2933 C.2       10 UNK         0.5000 
     21 O           0.2930  -24.6949  -44.4901 O.2       10 UNK        -0.5000 
     22 CA          0.0934  -22.9763  -42.8430 C.3       10 UNK         0.1400 
     23 CB          1.4352  -23.0417  -42.0987 C.3       10 UNK        -0.1800 
     24 N          -0.4400  -21.6202  -42.7288 N.am      10 UNK        -0.5000 
     25 C          -1.6730  -21.2324  -43.0903 C.2       9 UNK         0.5000 
     26 O          -2.5381  -22.0087  -43.4959 O.2       9 UNK        -0.5000 
     27 CA         -1.9691  -19.7138  -43.0470 C.3       9 UNK         0.1400 
     28 CB         -2.6696  -19.3414  -41.7320 C.3       9 UNK        -0.1800 
     29 N          -0.7741  -18.8760  -43.2047 N.am      9 UNK        -0.5000 
     30 C           0.0924  -18.9700  -44.2227 C.2       8 UNK         0.5000 
     31 O          -0.1250  -19.6775  -45.2021 O.2       8 UNK        -0.5000 
     32 CA          1.4572  -18.2635  -44.0937 C.3       8 UNK         0.1400 
     33 CB          1.6415  -17.1620  -45.1465 C.3       8 UNK        -0.1800 
     34 N           1.7217  -17.7058  -42.7677 N.am      8 UNK        -0.5000 
     35 C           1.9396  -18.4118  -41.6496 C.2       7 UNK         0.5000 
     36 O           1.8651  -19.6400  -41.5935 O.2       7 UNK        -0.5000 
     37 CA          2.2648  -17.6045  -40.3830 C.3       7 UNK         0.1400 
     38 CB          3.7477  -17.2016  -40.3719 C.3       7 UNK        -0.1800 
     39 N           1.4420  -16.3969  -40.3110 N.am      7 UNK        -0.5000 
     40 C           0.3546  -16.2552  -39.5420 C.2       6 UNK         0.5000 
     41 O          -0.0444  -17.1133  -38.7539 O.2       6 UNK        -0.5000 
     42 CA         -0.4317  -14.9343  -39.6789 C.3       6 UNK         0.1400 
     43 CB          0.0709  -13.9027  -38.6576 C.3       6 UNK        -0.1800 
     44 N          -0.3684  -14.3473  -41.0197 N.am      6 UNK        -0.5000 
     45 C          -0.8764  -14.9120  -42.1236 C.2       5 UNK         0.5000 
     46 O          -1.4933  -15.9767  -42.1203 O.2       5 UNK        -0.5000 
     47 CA         -0.6315  -14.1892  -43.4636 C.3       5 UNK         0.1400 
     48 CB         -1.8271  -13.2874  -43.7995 C.3       5 UNK        -0.1800 
     49 N           0.6132  -13.4100  -43.5642 N.am      5 UNK        -0.5000 
     50 C           1.8515  -13.8503  -43.2853 C.2       4 UNK         0.5000 
     51 O           2.0790  -14.9497  -42.7803 O.2       4 UNK        -0.5000 
     52 CA          3.0334  -12.9215  -43.6140 C.3       4 UNK         0.1400 
     53 CB          4.2966  -13.7151  -43.9955 C.3       4 UNK        -0.1800 
     54 N           2.7065  -12.0069  -44.7065 N.am      4 UNK        -0.5000 
     55 C           2.7348  -10.6724  -44.6284 C.2       3 UNK         0.5000 
     56 O           3.0183  -10.0481  -43.6050 O.2       3 UNK        -0.5000 
     57 CA          2.3756   -9.8965  -45.9096 C.3       3 UNK         0.1400 
     58 CB          3.6102   -9.7564  -46.8134 C.3       3 UNK        -0.1800 
     59 N           1.2746  -10.4673  -46.6920 N.am      3 UNK        -0.5000 
     60 C           0.0281  -10.6868  -46.2501 C.2       2 UNK         0.5000 
     61 O          -0.3127  -10.5602  -45.0746 O.2       2 UNK        -0.5000 
     62 CA         -1.0280  -11.1064  -47.2930 C.3       2 UNK         0.1400 
     63 CB         -1.9821   -9.9349  -47.5712 C.3       2 UNK        -0.1800 
     64 N          -0.4448  -11.5376  -48.5675 N.am      2 UNK        -0.5000 
     65 C           0.0124  -12.7549  -48.8952 C.2       1 UNK         0.5000 
     66 O           0.4909  -12.9667  -50.0102 O.2       1 UNK        -0.5000 
     67 C          -0.7159  -23.6919  -47.2547 C.2       11 UNK         0.5000 
     68 O          -0.5574  -24.5119  -48.1596 O.2       11 UNK        -0.5000 
     69 N          -1.9034  -23.4394  -46.6822 N.am      12 UNK        -0.5000 
     70 CA         -3.1798  -24.0561  -47.0504 C.3       12 UNK         0.1400 
     71 CB         -4.2992  -23.4334  -46.2045 C.3       12 UNK        -0.1800 
     72 C          -3.2002  -25.5917  -46.9221 C.2       12 UNK         0.5000 
     73 O          -3.9779  -26.2380  -47.6209 O.2       12 UNK        -0.5000 
     74 N          -2.3235  -26.1558  -46.0790 N.am      13 UNK        -0.5000 
     75 CA         -2.1244  -27.5988  -45.9356 C.3       13 UNK         0.1400 
     76 CB         -1.2334  -27.8603  -44.7120 C.3       13 UNK        -0.1800 
     77 C          -1.5233  -28.2640  -47.1920 C.2       13 UNK         0.5000 
     78 O          -1.7518  -29.4554  -47.4047 O.2       13 UNK        -0.5000 
     79 N          -0.7764  -27.4931  -47.9947 N.am      14 UNK        -0.5000 
     80 CA         -0.1573  -27.9376  -49.2426 C.3       14 UNK         0.1400 
     81 CB          1.3218  -27.5188  -49.2434 C.3       14 UNK        -0.1800 
     82 C          -0.8811  -27.3501  -50.4650 C.2       14 UNK         0.5000 
     83 O          -1.1165  -28.0702  -51.4356 O.2       14 UNK        -0.5000 
     84 N          -1.2152  -26.0540  -50.4026 N.am      15 UNK        -0.5000 
     85 CA         -1.8178  -25.2923  -51.4976 C.3       15 UNK         0.1400 
     86 CB         -1.5675  -23.7970  -51.2477 C.3       15 UNK        -0.1800 
     87 C          -3.3227  -25.5538  -51.6888 C.2       15 UNK         0.5000 
     88 O          -3.8505  -25.2312  -52.7529 O.2       15 UNK        -0.5000 
     89 N          -3.9931  -26.0918  -50.6591 N.am      16 UNK        -0.5000 
     90 CA         -5.4270  -26.3935  -50.5525 C.3       16 UNK         0.1400 
     91 CB         -5.8849  -27.3952  -51.6311 C.3       16 UNK        -0.1800 
     92 C          -6.3213  -25.1391  -50.5211 C.2       16 UNK         0.5000 
     93 O          -7.0522  -24.9392  -49.5508 O.2       16 UNK        -0.5000 
     94 N          -6.2418  -24.3167  -51.5731 N.am      17 UNK        -0.5000 
     95 CA         -7.0254  -23.0928  -51.7546 C.3       17 UNK         0.1400 
     96 CB         -7.5261  -23.0457  -53.2072 C.3       17 UNK        -0.1800 
     97 C          -6.2338  -21.8197  -51.3894 C.2       17 UNK         0.5000 
     98 O          -6.7884  -20.7234  -51.4800 O.2       17 UNK        -0.5000 
     99 N          -4.9628  -21.9759  -50.9842 N.am      18 UNK        -0.5000 
    100 CA        -4.0347  -20.9230  -50.5551 C.3       18 UNK         0.1400 
    101 CB        -4.4607  -20.3638  -49.1806 C.3       18 UNK        -0.1800 
    102 C         -3.8426  -19.8515  -51.6476 C.2       18 UNK         0.5000 
    103 O         -3.3968  -20.1933  -52.7423 O.2       18 UNK        -0.5000 
    104 N         -4.2148  -18.5947  -51.3690 N.am      19 UNK        -0.5000 
    105 CA        -4.1165  -17.4652  -52.2984 C.3       19 UNK         0.1400 
    106 CB        -4.5622  -16.1824  -51.5814 C.3       19 UNK        -0.1800 
    107 C         -4.9017  -17.6547  -53.6124 C.2       19 UNK         0.5000 
    108 O         -4.4821  -17.1313  -54.6455 O.2       19 UNK        -0.5000 
    109 N         -5.9933  -18.4320  -53.5709 N.am      20 UNK        -0.5000 
    110 CA        -6.7786  -18.7920  -54.7519 C.3       20 UNK         0.1400 
    111 CB        -8.1874  -19.2222  -54.3197 C.3       20 UNK        -0.1800 
    112 C         -6.1009  -19.8648  -55.6297 C.2       20 UNK         0.5000 
    113 O         -6.4450  -19.9671  -56.8078 O.2       20 UNK        -0.5000 
    114 N         -5.1415  -20.6217  -55.0730 N.am      21 UNK        -0.5000 
    115 CA        -4.2604  -21.5051  -55.8403 C.3       21 UNK         0.1400 
    116 CB        -3.7432  -22.6519  -54.9565 C.3       21 UNK        -0.1800 
    117 C         -3.0895  -20.7150  -56.4515 C.2       21 UNK         0.5000 
    118 O         -2.6872  -21.0111  -57.5774 O.2       21 UNK        -0.5000 
    119 N         -2.5785  -19.7187  -55.7126 N.am      22 UNK        -0.5000 
    120 CA        -1.5482  -18.7746  -56.1779 C.3       22 UNK         0.1400 
    121 C         -2.0323  -17.8791  -57.3524 C.2       22 UNK         0.5000 
    122 N         -3.2178  -17.2884  -57.2602 N.am      22 UNK        -0.7600 
    123 O         -1.3297  -17.7184  -58.3465 O.2       22 UNK        -0.5000 
    124 C124       -0.9943  -17.8793  -55.0406 C.3       23 UNK        -0.0398 
    125 S125       -0.3940  -18.8079  -53.5940 S.3       23 UNK        -0.2404 
    126 C126        0.2248  -17.4350  -52.5751 C.3       23 UNK        -0.0205 
    127 H127        4.0966  -15.2076  -48.6647 H         1 UNK         0.0600 
    128 H128        3.8641  -15.8927  -47.0531 H         1 UNK         0.0600 
    129 H129        2.9261  -16.5068  -48.4173 H         1 UNK         0.0600 
    130 H130        0.8305  -15.7218  -48.5063 H         1 UNK         0.3000 
    131 H131       -0.0383  -13.5465  -46.8702 H         1 UNK         0.0600 
    132 H132       -2.2815  -13.9639  -47.8701 H         1 UNK         0.0800 
    133 H133       -1.5836  -14.9996  -49.0791 H         1 UNK         0.0800 
    134 H134       -2.2392  -18.3065  -47.4165 H         1 UNK         0.0800 
    135 H135       -2.8701  -17.2049  -48.6143 H         1 UNK         0.0800 
    136 H136       -1.6459  -16.8868  -50.6804 H         1 UNK         0.1150 
    137 H137        2.1205  -18.8490  -51.2288 H         1 UNK         0.1150 
    138 H138        0.2681  -18.7609  -47.3657 H         1 UNK         0.1150 
    139 H139        2.8269  -20.4469  -49.4852 H         1 UNK         0.0800 
    140 H140        3.3532  -19.0779  -48.5385 H         1 UNK         0.0800 
    141 H141        0.8740  -22.0152  -48.6601 H         1 UNK         0.0800 
    142 H142       -0.1219  -21.0440  -47.6071 H         1 UNK         0.0800 
    143 H143        1.3662  -23.5839  -46.7958 H         1 UNK         0.0600 
    144 H144        0.2939  -21.5838  -45.0765 H         1 UNK         0.3000 
    145 H145       -0.6060  -23.6515  -42.3459 H         1 UNK         0.0600 
    146 H146        1.3202  -22.7628  -41.0511 H         1 UNK         0.0600 
    147 H147        1.8490  -24.0507  -42.1227 H         1 UNK         0.0600 
    148 H148        2.1730  -22.3726  -42.5438 H         1 UNK         0.0600 
    149 H149        0.2097  -20.9125  -42.4067 H         1 UNK         0.3000 
    150 H150       -2.6426  -19.4874  -43.8759 H         1 UNK         0.0600 
    151 H151       -3.5663  -19.9438  -41.5813 H         1 UNK         0.0600 
    152 H152       -2.9785  -18.2960  -41.7323 H         1 UNK         0.0600 
    153 H153       -2.0177  -19.4982  -40.8716 H         1 UNK         0.0600 
    154 H154       -0.5615  -18.2384  -42.4502 H         1 UNK         0.3000 
    155 H155        2.2194  -19.0231  -44.2792 H         1 UNK         0.0600 
    156 H156        0.8245  -16.4441  -45.1321 H         1 UNK         0.0600 
    157 H157        1.6929  -17.5841  -46.1477 H         1 UNK         0.0600 
    158 H158        2.5713  -16.6157  -44.9894 H         1 UNK         0.0600 
    159 H159        1.8191  -16.6930  -42.7290 H         1 UNK         0.3000 
    160 H160        2.0818  -18.2463  -39.5187 H         1 UNK         0.0600 
    161 H161        4.0028  -16.6704  -39.4549 H         1 UNK         0.0600 
    162 H162        3.9978  -16.5541  -41.2136 H         1 UNK         0.0600 
    163 H163        4.3916  -18.0801  -40.4292 H         1 UNK         0.0600 
    164 H164        1.6683  -15.6606  -40.9712 H         1 UNK         0.3000 
    165 H165       -1.4788  -15.1517  -39.4582 H         1 UNK         0.0600 
    166 H166        0.0137  -14.2981  -37.6425 H         1 UNK         0.0600 
    167 H167        1.1092  -13.6253  -38.8437 H         1 UNK         0.0600 
    168 H168       -0.5307  -12.9941  -38.6851 H         1 UNK         0.0600 
    169 H169        0.1284  -13.4739  -41.1135 H         1 UNK         0.3000 
    170 H170       -0.5846  -14.9644  -44.2274 H         1 UNK         0.0600 
    171 H171       -2.7705  -13.8242  -43.6890 H         1 UNK         0.0600 
    172 H172       -1.8667  -12.4117  -43.1505 H         1 UNK         0.0600 
    173 H173       -1.7789  -12.9428  -44.8298 H         1 UNK         0.0600 
    174 H174        0.5231  -12.4756  -43.9422 H         1 UNK         0.3000 
    175 H175        3.2481  -12.3686  -42.6978 H         1 UNK         0.0600 
    176 H176        4.1239  -14.3488  -44.8660 H         1 UNK         0.0600 
    177 H177        5.1257  -13.0467  -44.2278 H         1 UNK         0.0600 
    178 H178        4.6217  -14.3597  -43.1778 H         1 UNK         0.0600 
    179 H179        2.5072  -12.4435  -45.6055 H         1 UNK         0.3000 
    180 H180        2.0661   -8.8951  -45.6034 H         1 UNK         0.0600 
    181 H181        3.9380  -10.7242  -47.1960 H         1 UNK         0.0600 
    182 H182        4.4473   -9.3177  -46.2686 H         1 UNK         0.0600 
    183 H183        3.4048   -9.1095  -47.6664 H         1 UNK         0.0600 
    184 H184        1.4659  -10.6367  -47.6686 H         1 UNK         0.3000 
    185 H185       -1.6269  -11.9102  -46.8671 H         1 UNK         0.0600 
    186 H186       -2.4693   -9.5995  -46.6544 H         1 UNK         0.0600 
    187 H187       -1.4571   -9.0780  -47.9955 H         1 UNK         0.0600 
    188 H188       -2.7700  -10.2241  -48.2671 H         1 UNK         0.0600 
    189 H189       -0.3753  -10.8128  -49.2670 H         1 UNK         0.3000 
    190 H190       -1.9319  -22.7781  -45.9178 H         1 UNK         0.3000 
    191 H191       -3.3692  -23.8151  -48.0984 H         1 UNK         0.0600 
    192 H192       -4.1729  -23.6595  -45.1448 H         1 UNK         0.0600 
    193 H193       -5.2756  -23.8134  -46.5085 H         1 UNK         0.0600 
    194 H194       -4.3242  -22.3492  -46.3122 H         1 UNK         0.0600 
    195 H195       -1.6999  -25.5582  -45.5524 H         1 UNK         0.3000 
    196 H196       -3.0985  -28.0576  -45.7537 H         1 UNK         0.0600 
    197 H197       -0.2413  -27.4246  -44.8375 H         1 UNK         0.0600 
    198 H198       -1.1031  -28.9303  -44.5448 H         1 UNK         0.0600 
    199 H199       -1.6717  -27.4409  -43.8063 H         1 UNK         0.0600 
    200 H200       -0.6642  -26.5133  -47.7614 H         1 UNK         0.3000 
    201 H201       -0.1963  -29.0257  -49.3256 H         1 UNK         0.0600 
    202 H202        1.4374  -26.4377  -49.1544 H         1 UNK         0.0600 
    203 H203        1.8155  -27.8283  -50.1655 H         1 UNK         0.0600 
    204 H204        1.8600  -27.9807  -48.4157 H         1 UNK         0.0600 
    205 H205       -0.9603  -25.5190  -49.5748 H         1 UNK         0.3000 
    206 H206       -1.3197  -25.5683  -52.4295 H         1 UNK         0.0600 
    207 H207       -1.9921  -23.1843  -52.0443 H         1 UNK         0.0600 
    208 H208       -2.0097  -23.4730  -50.3059 H         1 UNK         0.0600 
    209 H209       -0.5003  -23.5783  -51.2056 H         1 UNK         0.0600 
    210 H210       -3.4704  -26.2852  -49.8143 H         1 UNK         0.3000 
    211 H211       -5.5556  -26.8913  -49.5908 H         1 UNK         0.0600 
    212 H212       -5.8164  -26.9829  -52.6378 H         1 UNK         0.0600 
    213 H213       -6.9237  -27.6863  -51.4716 H         1 UNK         0.0600 
    214 H214       -5.2847  -28.3045  -51.6012 H         1 UNK         0.0600 
    215 H215       -5.5719  -24.5534  -52.3011 H         1 UNK         0.3000 
    216 H216       -7.9025  -23.1196  -51.1049 H         1 UNK         0.0600 
    217 H217       -8.2946  -22.2837  -53.3269 H         1 UNK         0.0600 
    218 H218       -7.9749  -23.9942  -53.5026 H         1 UNK         0.0600 
    219 H219       -6.7254  -22.8209  -53.9101 H         1 UNK         0.0600 
    220 H220       -4.5969  -22.9154  -50.9842 H         1 UNK         0.3000 
    221 H221       -3.0591  -21.3904  -50.4262 H         1 UNK         0.0600 
    222 H222       -5.4356  -19.8762  -49.2142 H         1 UNK         0.0600 
    223 H223       -4.5209  -21.1626  -48.4422 H         1 UNK         0.0600 
    224 H224       -3.7350  -19.6420  -48.8081 H         1 UNK         0.0600 
    225 H225       -4.6212  -18.4036  -50.4654 H         1 UNK         0.3000 
    226 H226       -3.0650  -17.3570  -52.5687 H         1 UNK         0.0600 
    227 H227       -4.4682  -15.3160  -52.2376 H         1 UNK         0.0600 
    228 H228       -5.6039  -16.2419  -51.2637 H         1 UNK         0.0600 
    229 H229       -3.9529  -15.9865  -50.6992 H         1 UNK         0.0600 
    230 H230       -6.2574  -18.8701  -52.6963 H         1 UNK         0.3000 
    231 H231       -6.8891  -17.9012  -55.3742 H         1 UNK         0.0600 
    232 H232       -8.7111  -18.4050  -53.8237 H         1 UNK         0.0600 
    233 H233       -8.1581  -20.0626  -53.6306 H         1 UNK         0.0600 
    234 H234       -8.7898  -19.5200  -55.1789 H         1 UNK         0.0600 
    235 H235       -4.8701  -20.4488  -54.1120 H         1 UNK         0.3000 
    236 H236       -4.8272  -21.9535  -56.6590 H         1 UNK         0.0600 
    237 H237       -3.1381  -23.3457  -55.5411 H         1 UNK         0.0600 
    238 H238       -3.1191  -22.2957  -54.1385 H         1 UNK         0.0600 
    239 H239       -4.5618  -23.2269  -54.5277 H         1 UNK         0.0600 
    240 H240       -2.9142  -19.5915  -54.7661 H         1 UNK         0.3000 
    241 H241       -0.7169  -19.3744  -56.5534 H         1 UNK         0.0600 
    242 H242       -3.5440  -16.7078  -58.0160 H         1 UNK         0.3800 
    243 H243       -3.7612  -17.3514  -56.4034 H         1 UNK         0.3800 
    244 H244       -0.1696  -17.2695  -55.4143 H         1 UNK         0.0800 
    245 H245       -1.7596  -17.1807  -54.6998 H         1 UNK         0.0800 
    246 H246        1.2271  -17.1602  -52.9069 H         1 UNK         0.0800 
    247 H247       -0.3998  -16.5520  -52.7196 H         1 UNK         0.0800 
@<TRIPOS>BOND
     1    1    2 1    
     2    1  127 1    
     3    1  128 1    
     4    1  129 1    
     5    2    3 2    
     6    2    4 am   BACKBONE|DICT|INTERRES
     7    4    5 1    
     8    4  130 1    
     9    5    6 1    
    10    5   65 1    
    11    5  131 1    
    12    6    7 1    
    13    6  132 1    
    14    6  133 1    
    15    7    8 1    
    16    8    9 1    
    17    8  134 1    
    18    8  135 1    
    19    9   10 ar   
    20    9   14 ar   
    21   10   11 ar   
    22   10  136 1    
    23   11   12 ar   
    24   11  126 1    
    25   12   13 ar   
    26   12  137 1    
    27   13   14 ar   
    28   13   15 1    
    29   14  138 1    
    30   15   16 1    
    31   15  139 1    
    32   15  140 1    
    33   16   17 1    
    34   17   18 1    
    35   17  141 1    
    36   17  142 1    
    37   18   19 1    
    38   18   67 1    
    39   18  143 1    
    40   19   20 am   BACKBONE|DICT|INTERRES
    41   19  144 1    
    42   20   21 2    
    43   20   22 1    
    44   22   23 1    
    45   22   24 1    
    46   22  145 1    
    47   23  146 1    
    48   23  147 1    
    49   23  148 1    
    50   24   25 am   BACKBONE|DICT|INTERRES
    51   24  149 1    
    52   25   26 2    
    53   25   27 1    
    54   27   28 1    
    55   27   29 1    
    56   27  150 1    
    57   28  151 1    
    58   28  152 1    
    59   28  153 1    
    60   29   30 am   BACKBONE|DICT|INTERRES
    61   29  154 1    
    62   30   31 2    
    63   30   32 1    
    64   32   33 1    
    65   32   34 1    
    66   32  155 1    
    67   33  156 1    
    68   33  157 1    
    69   33  158 1    
    70   34   35 am   BACKBONE|DICT|INTERRES
    71   34  159 1    
    72   35   36 2    
    73   35   37 1    
    74   37   38 1    
    75   37   39 1    
    76   37  160 1    
    77   38  161 1    
    78   38  162 1    
    79   38  163 1    
    80   39   40 am   BACKBONE|DICT|INTERRES
    81   39  164 1    
    82   40   41 2    
    83   40   42 1    
    84   42   43 1    
    85   42   44 1    
    86   42  165 1    
    87   43  166 1    
    88   43  167 1    
    89   43  168 1    
    90   44   45 am   BACKBONE|DICT|INTERRES
    91   44  169 1    
    92   45   46 2    
    93   45   47 1    
    94   47   48 1    
    95   47   49 1    
    96   47  170 1    
    97   48  171 1    
    98   48  172 1    
    99   48  173 1    
   100   49   50 am   BACKBONE|DICT|INTERRES
   101   49  174 1    
   102   50   51 2    
   103   50   52 1    
   104   52   53 1    
   105   52   54 1    
   106   52  175 1    
   107   53  176 1    
   108   53  177 1    
   109   53  178 1    
   110   54   55 am   BACKBONE|DICT|INTERRES
   111   54  179 1    
   112   55   56 2    
   113   55   57 1    
   114   57   58 1    
   115   57   59 1    
   116   57  180 1    
   117   58  181 1    
   118   58  182 1    
   119   58  183 1    
   120   59   60 am   BACKBONE|DICT|INTERRES
   121   59  184 1    
   122   60   61 2    
   123   60   62 1    
   124   62   63 1    
   125   62   64 1    
   126   62  185 1    
   127   63  186 1    
   128   63  187 1    
   129   63  188 1    
   130   64   65 am   BACKBONE|DICT|INTERRES
   131   64  189 1    
   132   65   66 2    
   133   67   68 2    
   134   67   69 am   BACKBONE|DICT|INTERRES
   135   69   70 1    
   136   69  190 1    
   137   70   71 1    
   138   70   72 1    
   139   70  191 1    
   140   71  192 1    
   141   71  193 1    
   142   71  194 1    
   143   72   73 2    
   144   72   74 am   BACKBONE|DICT|INTERRES
   145   74   75 1    
   146   74  195 1    
   147   75   76 1    
   148   75   77 1    
   149   75  196 1    
   150   76  197 1    
   151   76  198 1    
   152   76  199 1    
   153   77   78 2    
   154   77   79 am   BACKBONE|DICT|INTERRES
   155   79   80 1    
   156   79  200 1    
   157   80   81 1    
   158   80   82 1    
   159   80  201 1    
   160   81  202 1    
   161   81  203 1    
   162   81  204 1    
   163   82   83 2    
   164   82   84 am   BACKBONE|DICT|INTERRES
   165   84   85 1    
   166   84  205 1    
   167   85   86 1    
   168   85   87 1    
   169   85  206 1    
   170   86  207 1    
   171   86  208 1    
   172   86  209 1    
   173   87   88 2    
   174   87   89 am   BACKBONE|DICT|INTERRES
   175   89   90 1    
   176   89  210 1    
   177   90   91 1    
   178   90   92 1    
   179   90  211 1    
   180   91  212 1    
   181   91  213 1    
   182   91  214 1    
   183   92   93 2    
   184   92   94 am   BACKBONE|DICT|INTERRES
   185   94   95 1    
   186   94  215 1    
   187   95   96 1    
   188   95   97 1    
   189   95  216 1    
   190   96  217 1    
   191   96  218 1    
   192   96  219 1    
   193   97   98 2    
   194   97   99 am   BACKBONE|DICT|INTERRES
   195   99  100 1    
   196   99  220 1    
   197  100  101 1    
   198  100  102 1    
   199  100  221 1    
   200  101  222 1    
   201  101  223 1    
   202  101  224 1    
   203  102  103 2    
   204  102  104 am   BACKBONE|DICT|INTERRES
   205  104  105 1    
   206  104  225 1    
   207  105  106 1    
   208  105  107 1    
   209  105  226 1    
   210  106  227 1    
   211  106  228 1    
   212  106  229 1    
   213  107  108 2    
   214  107  109 am   BACKBONE|DICT|INTERRES
   215  109  110 1    
   216  109  230 1    
   217  110  111 1    
   218  110  112 1    
   219  110  231 1    
   220  111  232 1    
   221  111  233 1    
   222  111  234 1    
   223  112  113 2    
   224  112  114 am   BACKBONE|DICT|INTERRES
   225  114  115 1    
   226  114  235 1    
   227  115  116 1    
   228  115  117 1    
   229  115  236 1    
   230  116  237 1    
   231  116  238 1    
   232  116  239 1    
   233  117  118 2    
   234  117  119 am   BACKBONE|DICT|INTERRES
   235  119  120 1    
   236  119  240 1    
   237  120  121 1    
   238  120  124 1    
   239  120  241 1    
   240  121  122 am   BACKBONE|DICT|INTERRES
   241  121  123 2    
   242  122  242 1    
   243  122  243 1    
   244  124  125 1    
   245  124  244 1    
   246  124  245 1    
   247  125  126 1    
   248  126  246 1    
   249  126  247 1    
@<TRIPOS>SUBSTRUCTURE
     1 UNK         1 GROUP             0       ****    0 ROOT    
