@<TRIPOS>MOLECULE
3R540
247   249    1
SMALL
USER_CHARGES


@<TRIPOS>ATOM
      1 CA         -0.0684   -8.8135  -50.6535 C.3       0 UNK        -0.1800 
      2 C           0.5865   -9.8498  -49.7515 C.2       0 UNK         0.5000 
      3 O           1.3851   -9.4924  -48.8844 O.2       0 UNK        -0.5000 
      4 N           0.2573  -11.1311  -49.9531 N.am      1 UNK        -0.5000 
      5 CA          0.7344  -12.2679  -49.1626 C.3       1 UNK         0.1400 
      6 C6          0.7226  -13.5928  -49.9731 C.3       23 UNK        -0.0398 
      7 S7         -0.8393  -13.9740  -50.8520 S.3       23 UNK        -0.2404 
      8 C8         -1.3640  -15.5137  -50.0322 C.3       23 UNK        -0.0205 
      9 C9         -0.5498  -16.7133  -50.4948 C.ar      23 UNK        -0.0193 
     10 C10        -0.8951  -17.3777  -51.6751 C.ar      23 UNK        -0.1150 
     11 C11        -0.1427  -18.4674  -52.1285 C.ar      23 UNK        -0.0193 
     12 C12         0.9521  -18.8987  -51.3729 C.ar      23 UNK        -0.1150 
     13 C13         1.3007  -18.2523  -50.1838 C.ar      23 UNK        -0.0193 
     14 C14         0.5414  -17.1642  -49.7460 C.ar      23 UNK        -0.1150 
     15 C15         2.5223  -18.7033  -49.3953 C.3       23 UNK        -0.0205 
     16 S16         2.0956  -19.4770  -47.8045 S.3       23 UNK        -0.2404 
     17 C17         1.2776  -21.0232  -48.3200 C.3       23 UNK        -0.0398 
     18 CA         -0.1091  -21.2605  -47.6745 C.3       11 UNK         0.1400 
     19 N          -0.0645  -21.2998  -46.2092 N.am      11 UNK        -0.5000 
     20 C          -0.9025  -22.0337  -45.4632 C.2       10 UNK         0.5000 
     21 O          -1.7600  -22.7815  -45.9339 O.2       10 UNK        -0.5000 
     22 CA         -0.7812  -21.9008  -43.9336 C.3       10 UNK         0.1400 
     23 CB          0.3440  -22.7979  -43.3965 C.3       10 UNK        -0.1800 
     24 N          -0.5619  -20.5292  -43.4761 N.am      10 UNK        -0.5000 
     25 C          -1.3983  -19.5030  -43.6847 C.2       9 UNK         0.5000 
     26 O          -2.4460  -19.5874  -44.3229 O.2       9 UNK        -0.5000 
     27 CA         -0.9702  -18.1423  -43.1110 C.3       9 UNK         0.1400 
     28 CB         -1.3385  -18.0454  -41.6221 C.3       9 UNK        -0.1800 
     29 N           0.4626  -17.9015  -43.2949 N.am      9 UNK        -0.5000 
     30 C           1.0423  -17.7125  -44.4904 C.2       8 UNK         0.5000 
     31 O           0.4078  -17.6500  -45.5409 O.2       8 UNK        -0.5000 
     32 CA          2.5781  -17.6113  -44.5289 C.3       8 UNK         0.1400 
     33 CB          3.0380  -16.1531  -44.6409 C.3       8 UNK        -0.1800 
     34 N           3.2025  -18.2480  -43.3681 N.am      8 UNK        -0.5000 
     35 C           3.3951  -19.5732  -43.2819 C.2       7 UNK         0.5000 
     36 O           3.0998  -20.3666  -44.1761 O.2       7 UNK        -0.5000 
     37 CA          3.9739  -20.1113  -41.9623 C.3       7 UNK         0.1400 
     38 CB          5.4942  -19.8986  -41.9072 C.3       7 UNK        -0.1800 
     39 N           3.3622  -19.5102  -40.7792 N.am      7 UNK        -0.5000 
     40 C           2.0691  -19.5713  -40.4420 C.2       6 UNK         0.5000 
     41 O           1.2266  -20.1587  -41.1201 O.2       6 UNK        -0.5000 
     42 CA          1.6232  -18.8280  -39.1624 C.3       6 UNK         0.1400 
     43 CB          1.6295  -19.7704  -37.9445 C.3       6 UNK        -0.1800 
     44 N           2.3551  -17.5808  -38.8886 N.am      6 UNK        -0.5000 
     45 C           3.6493  -17.4138  -38.5783 C.2       5 UNK         0.5000 
     46 O           4.4272  -18.3513  -38.3945 O.2       5 UNK        -0.5000 
     47 CA          4.1789  -15.9641  -38.5102 C.3       5 UNK         0.1400 
     48 CB          5.6666  -15.8788  -38.9117 C.3       5 UNK        -0.1800 
     49 N           3.4110  -14.9701  -39.2754 N.am      5 UNK        -0.5000 
     50 C           3.1135  -14.9865  -40.5836 C.2       4 UNK         0.5000 
     51 O           3.3007  -15.9516  -41.3302 O.2       4 UNK        -0.5000 
     52 CA          2.5643  -13.6649  -41.1518 C.3       4 UNK         0.1400 
     53 CB          3.6855  -12.8851  -41.8548 C.3       4 UNK        -0.1800 
     54 N           1.4719  -13.8598  -42.0990 N.am      4 UNK        -0.5000 
     55 C           0.2320  -14.2520  -41.7928 C.2       3 UNK         0.5000 
     56 O          -0.1231  -14.5265  -40.6453 O.2       3 UNK        -0.5000 
     57 CA         -0.7797  -14.3101  -42.9627 C.3       3 UNK         0.1400 
     58 CB         -2.2256  -14.5492  -42.4893 C.3       3 UNK        -0.1800 
     59 N          -0.7755  -13.1025  -43.7943 N.am      3 UNK        -0.5000 
     60 C           0.1385  -12.7789  -44.7161 C.2       2 UNK         0.5000 
     61 O           1.1565  -13.4406  -44.9303 O.2       2 UNK        -0.5000 
     62 CA         -0.1053  -11.4677  -45.4869 C.3       2 UNK         0.1400 
     63 CB          0.5492  -10.2884  -44.7512 C.3       2 UNK        -0.1800 
     64 N           0.4172  -11.5203  -46.8524 N.am      2 UNK        -0.5000 
     65 C          -0.0176  -12.3444  -47.8143 C.2       1 UNK         0.5000 
     66 O          -0.9817  -13.0979  -47.6732 O.2       1 UNK        -0.5000 
     67 C          -1.1926  -20.2971  -48.2030 C.2       11 UNK         0.5000 
     68 O          -1.7113  -20.5299  -49.2936 O.2       11 UNK        -0.5000 
     69 N          -1.5412  -19.2581  -47.4287 N.am      12 UNK        -0.5000 
     70 CA         -2.6026  -18.3102  -47.7662 C.3       12 UNK         0.1400 
     71 CB         -2.4910  -17.0592  -46.8812 C.3       12 UNK        -0.1800 
     72 C          -4.0088  -18.9217  -47.6486 C.2       12 UNK         0.5000 
     73 O          -4.8501  -18.6434  -48.5037 O.2       12 UNK        -0.5000 
     74 N          -4.2309  -19.7291  -46.5988 N.am      13 UNK        -0.5000 
     75 CA         -5.4907  -20.3778  -46.2188 C.3       13 UNK         0.1400 
     76 CB         -5.2394  -21.2693  -44.9910 C.3       13 UNK        -0.1800 
     77 C          -6.1359  -21.1796  -47.3649 C.2       13 UNK         0.5000 
     78 O          -5.7528  -22.3259  -47.6088 O.2       13 UNK        -0.5000 
     79 N          -7.0625  -20.5278  -48.0836 N.am      14 UNK        -0.5000 
     80 CA         -7.7344  -20.9980  -49.3008 C.3       14 UNK         0.1400 
     81 CB         -8.7310  -22.1253  -48.9582 C.3       14 UNK        -0.1800 
     82 C          -6.7479  -21.3929  -50.4228 C.2       14 UNK         0.5000 
     83 O          -7.0233  -22.3277  -51.1745 O.2       14 UNK        -0.5000 
     84 N          -5.5918  -20.7118  -50.4799 N.am      15 UNK        -0.5000 
     85 CA         -4.4302  -21.0245  -51.3208 C.3       15 UNK         0.1400 
     86 CB         -4.7358  -20.7443  -52.8054 C.3       15 UNK        -0.1800 
     87 C          -3.8985  -22.4545  -51.0761 C.2       15 UNK         0.5000 
     88 O          -3.6496  -23.1924  -52.0311 O.2       15 UNK        -0.5000 
     89 N          -3.7847  -22.8277  -49.7928 N.am      16 UNK        -0.5000 
     90 CA         -3.4167  -24.1491  -49.2745 C.3       16 UNK         0.1400 
     91 CB         -1.9766  -24.5224  -49.6858 C.3       16 UNK        -0.1800 
     92 C          -4.4478  -25.2236  -49.6741 C.2       16 UNK         0.5000 
     93 O          -4.0681  -26.3173  -50.0921 O.2       16 UNK        -0.5000 
     94 N          -5.7392  -24.8685  -49.5887 N.am      17 UNK        -0.5000 
     95 CA         -6.8884  -25.6233  -50.1085 C.3       17 UNK         0.1400 
     96 CB         -7.1268  -26.9026  -49.2804 C.3       17 UNK        -0.1800 
     97 C          -6.7542  -25.8899  -51.6253 C.2       17 UNK         0.5000 
     98 O          -6.8721  -27.0289  -52.0794 O.2       17 UNK        -0.5000 
     99 N          -6.4541  -24.8117  -52.3609 N.am      18 UNK        -0.5000 
    100 CA        -6.1787  -24.7045  -53.7963 C.3       18 UNK         0.1400 
    101 CB        -7.3816  -25.1888  -54.6299 C.3       18 UNK        -0.1800 
    102 C         -4.8579  -25.3459  -54.2744 C.2       18 UNK         0.5000 
    103 O         -4.5285  -25.1971  -55.4521 O.2       18 UNK        -0.5000 
    104 N         -4.1016  -26.0146  -53.3913 N.am      19 UNK        -0.5000 
    105 CA        -2.8628  -26.7197  -53.7335 C.3       19 UNK         0.1400 
    106 CB        -2.4499  -27.6355  -52.5726 C.3       19 UNK        -0.1800 
    107 C         -1.6972  -25.7910  -54.1240 C.2       19 UNK         0.5000 
    108 O         -0.8361  -26.2096  -54.8990 O.2       19 UNK        -0.5000 
    109 N         -1.6869  -24.5552  -53.6039 N.am      20 UNK        -0.5000 
    110 CA        -0.6864  -23.5345  -53.9284 C.3       20 UNK         0.1400 
    111 CB        -0.4331  -22.6604  -52.6901 C.3       20 UNK        -0.1800 
    112 C         -1.0774  -22.6945  -55.1643 C.2       20 UNK         0.5000 
    113 O         -0.2648  -21.8941  -55.6255 O.2       20 UNK        -0.5000 
    114 N         -2.2924  -22.9113  -55.6933 N.am      21 UNK        -0.5000 
    115 CA        -2.8170  -22.4400  -56.9821 C.3       21 UNK         0.1400 
    116 CB        -1.9696  -22.9956  -58.1462 C.3       21 UNK        -0.1800 
    117 C         -3.0579  -20.9191  -57.1100 C.2       21 UNK         0.5000 
    118 O         -3.3076  -20.4464  -58.2204 O.2       21 UNK        -0.5000 
    119 N         -3.0311  -20.1792  -55.9941 N.am      22 UNK        -0.5000 
    120 CA        -3.3574  -18.7383  -55.9467 C.3       22 UNK         0.1400 
    121 C         -4.8830  -18.4197  -55.9903 C.2       22 UNK         0.5000 
    122 N         -5.7769  -19.3996  -55.9298 N.am      22 UNK        -0.7600 
    123 O         -5.2647  -17.2571  -56.0916 O.2       22 UNK        -0.5000 
    124 C124       -2.6781  -18.0105  -54.7571 C.3       23 UNK        -0.0398 
    125 S125       -0.8569  -18.1072  -54.8259 S.3       23 UNK        -0.2404 
    126 C126       -0.4974  -19.2040  -53.4170 C.3       23 UNK        -0.0205 
    127 H127        0.6927   -8.2610  -51.2044 H         1 UNK         0.0600 
    128 H128       -0.6408   -8.1043  -50.0556 H         1 UNK         0.0600 
    129 H129       -0.7441   -9.2734  -51.3752 H         1 UNK         0.0600 
    130 H130       -0.4209  -11.3662  -50.6646 H         1 UNK         0.3000 
    131 H131        1.7829  -12.0848  -48.9162 H         1 UNK         0.0600 
    132 H132        1.0065  -14.4224  -49.3265 H         1 UNK         0.0800 
    133 H133        1.5044  -13.5459  -50.7322 H         1 UNK         0.0800 
    134 H134       -1.2900  -15.3923  -48.9524 H         1 UNK         0.0800 
    135 H135       -2.4199  -15.6850  -50.2461 H         1 UNK         0.0800 
    136 H136       -1.7432  -17.0306  -52.2464 H         1 UNK         0.1150 
    137 H137        1.5400  -19.7391  -51.7142 H         1 UNK         0.1150 
    138 H138        0.8059  -16.6709  -48.8213 H         1 UNK         0.1150 
    139 H139        3.1304  -19.3962  -49.9789 H         1 UNK         0.0800 
    140 H140        3.1548  -17.8362  -49.2006 H         1 UNK         0.0800 
    141 H141        1.9415  -21.8466  -48.0540 H         1 UNK         0.0800 
    142 H142        1.1953  -21.0590  -49.4073 H         1 UNK         0.0800 
    143 H143       -0.4148  -22.2513  -48.0118 H         1 UNK         0.0600 
    144 H144        0.6208  -20.7096  -45.7576 H         1 UNK         0.3000 
    145 H145       -1.7236  -22.2416  -43.4999 H         1 UNK         0.0600 
    146 H146        0.3802  -22.7750  -42.3071 H         1 UNK         0.0600 
    147 H147        0.1939  -23.8359  -43.6960 H         1 UNK         0.0600 
    148 H148        1.3201  -22.4852  -43.7692 H         1 UNK         0.0600 
    149 H149        0.2506  -20.3736  -42.8882 H         1 UNK         0.3000 
    150 H150       -1.5134  -17.3622  -43.6471 H         1 UNK         0.0600 
    151 H151       -2.4181  -17.9480  -41.5026 H         1 UNK         0.0600 
    152 H152       -0.8760  -17.1823  -41.1448 H         1 UNK         0.0600 
    153 H153       -1.0400  -18.9330  -41.0661 H         1 UNK         0.0600 
    154 H154        1.0552  -17.9876  -42.4831 H         1 UNK         0.3000 
    155 H155        2.9215  -18.1210  -45.4294 H         1 UNK         0.0600 
    156 H156        2.6652  -15.7009  -45.5609 H         1 UNK         0.0600 
    157 H157        4.1251  -16.0782  -44.6571 H         1 UNK         0.0600 
    158 H158        2.6716  -15.5513  -43.8133 H         1 UNK         0.0600 
    159 H159        3.4408  -17.6451  -42.5868 H         1 UNK         0.3000 
    160 H160        3.7761  -21.1846  -41.9269 H         1 UNK         0.0600 
    161 H161        5.9240  -20.3586  -41.0172 H         1 UNK         0.0600 
    162 H162        5.7520  -18.8386  -41.8935 H         1 UNK         0.0600 
    163 H163        5.9836  -20.3461  -42.7732 H         1 UNK         0.0600 
    164 H164        3.9832  -19.0382  -40.1298 H         1 UNK         0.3000 
    165 H165        0.5894  -18.5234  -39.3271 H         1 UNK         0.0600 
    166 H166        2.6253  -20.1597  -37.7317 H         1 UNK         0.0600 
    167 H167        1.2687  -19.2621  -37.0504 H         1 UNK         0.0600 
    168 H168        0.9777  -20.6278  -38.1164 H         1 UNK         0.0600 
    169 H169        1.8259  -16.7355  -39.0529 H         1 UNK         0.3000 
    170 H170        4.1016  -15.6691  -37.4629 H         1 UNK         0.0600 
    171 H171        6.2892  -16.4962  -38.2631 H         1 UNK         0.0600 
    172 H172        5.8253  -16.2154  -39.9371 H         1 UNK         0.0600 
    173 H173        6.0386  -14.8572  -38.8338 H         1 UNK         0.0600 
    174 H174        3.1768  -14.1351  -38.7563 H         1 UNK         0.3000 
    175 H175        2.1876  -13.0546  -40.3283 H         1 UNK         0.0600 
    176 H176        4.0818  -13.4357  -42.7092 H         1 UNK         0.0600 
    177 H177        3.3294  -11.9195  -42.2148 H         1 UNK         0.0600 
    178 H178        4.5158  -12.6924  -41.1741 H         1 UNK         0.0600 
    179 H179        1.6763  -13.6845  -43.0780 H         1 UNK         0.3000 
    180 H180       -0.4873  -15.1542  -43.5890 H         1 UNK         0.0600 
    181 H181       -2.5962  -13.7115  -41.8974 H         1 UNK         0.0600 
    182 H182       -2.3069  -15.4409  -41.8703 H         1 UNK         0.0600 
    183 H183       -2.8986  -14.6857  -43.3361 H         1 UNK         0.0600 
    184 H184       -1.5523  -12.4737  -43.6500 H         1 UNK         0.3000 
    185 H185       -1.1813  -11.2910  -45.5468 H         1 UNK         0.0600 
    186 H186        0.1610  -10.1944  -43.7362 H         1 UNK         0.0600 
    187 H187        1.6308  -10.4111  -44.6783 H         1 UNK         0.0600 
    188 H188        0.3520   -9.3456  -45.2621 H         1 UNK         0.0600 
    189 H189        1.1779  -10.8906  -47.0717 H         1 UNK         0.3000 
    190 H190       -1.0392  -19.0917  -46.5662 H         1 UNK         0.3000 
    191 H191       -2.4635  -18.0042  -48.8043 H         1 UNK         0.0600 
    192 H192       -2.6428  -17.2934  -45.8279 H         1 UNK         0.0600 
    193 H193       -1.5131  -16.5894  -46.9791 H         1 UNK         0.0600 
    194 H194       -3.2368  -16.3148  -47.1624 H         1 UNK         0.0600 
    195 H195       -3.4708  -19.8453  -45.9340 H         1 UNK         0.3000 
    196 H196       -6.1865  -19.5918  -45.9197 H         1 UNK         0.0600 
    197 H197       -4.9309  -20.6769  -44.1297 H         1 UNK         0.0600 
    198 H198       -4.4609  -22.0088  -45.1841 H         1 UNK         0.0600 
    199 H199       -6.1431  -21.8088  -44.7048 H         1 UNK         0.0600 
    200 H200       -7.2535  -19.5665  -47.8356 H         1 UNK         0.3000 
    201 H201       -8.3069  -20.1536  -49.6869 H         1 UNK         0.0600 
    202 H202       -9.3068  -22.4240  -49.8350 H         1 UNK         0.0600 
    203 H203       -9.4443  -21.8008  -48.2007 H         1 UNK         0.0600 
    204 H204       -8.2246  -23.0130  -48.5791 H         1 UNK         0.0600 
    205 H205       -5.4511  -19.9638  -49.8054 H         1 UNK         0.3000 
    206 H206       -3.6365  -20.3409  -51.0196 H         1 UNK         0.0600 
    207 H207       -5.0583  -19.7137  -52.9520 H         1 UNK         0.0600 
    208 H208       -5.5179  -21.3967  -53.1925 H         1 UNK         0.0600 
    209 H209       -3.8477  -20.9011  -53.4159 H         1 UNK         0.0600 
    210 H210       -4.0729  -22.1652  -49.0850 H         1 UNK         0.3000 
    211 H211       -3.4452  -24.0713  -48.1866 H         1 UNK         0.0600 
    212 H212       -1.2811  -23.7110  -49.4832 H         1 UNK         0.0600 
    213 H213       -1.6304  -25.3976  -49.1354 H         1 UNK         0.0600 
    214 H214       -1.9059  -24.7581  -50.7471 H         1 UNK         0.0600 
    215 H215       -5.9422  -23.9480  -49.2179 H         1 UNK         0.3000 
    216 H216       -7.7634  -24.9838  -49.9864 H         1 UNK         0.0600 
    217 H217       -8.0391  -27.4076  -49.5995 H         1 UNK         0.0600 
    218 H218       -6.3073  -27.6145  -49.3834 H         1 UNK         0.0600 
    219 H219       -7.2377  -26.6702  -48.2213 H         1 UNK         0.0600 
    220 H220       -6.4253  -23.9200  -51.8695 H         1 UNK         0.3000 
    221 H221       -6.0657  -23.6362  -53.9834 H         1 UNK         0.0600 
    222 H222       -7.5277  -26.2658  -54.5459 H         1 UNK         0.0600 
    223 H223       -8.3026  -24.6979  -54.3154 H         1 UNK         0.0600 
    224 H224       -7.2404  -24.9630  -55.6876 H         1 UNK         0.0600 
    225 H225       -4.4063  -26.0685  -52.4280 H         1 UNK         0.3000 
    226 H226       -3.0764  -27.3538  -54.5966 H         1 UNK         0.0600 
    227 H227       -3.2692  -28.2873  -52.2683 H         1 UNK         0.0600 
    228 H228       -1.6143  -28.2744  -52.8608 H         1 UNK         0.0600 
    229 H229       -2.1332  -27.0624  -51.7013 H         1 UNK         0.0600 
    230 H230       -2.4456  -24.2630  -52.9901 H         1 UNK         0.3000 
    231 H231        0.2582  -24.0262  -54.1696 H         1 UNK         0.0600 
    232 H232        0.4089  -21.9893  -52.8554 H         1 UNK         0.0600 
    233 H233       -0.1837  -23.2697  -51.8219 H         1 UNK         0.0600 
    234 H234       -1.2988  -22.0528  -52.4332 H         1 UNK         0.0600 
    235 H235       -2.8742  -23.5981  -55.2306 H         1 UNK         0.3000 
    236 H236       -3.8063  -22.8919  -57.0671 H         1 UNK         0.0600 
    237 H237       -1.8454  -24.0754  -58.0622 H         1 UNK         0.0600 
    238 H238       -2.4448  -22.8014  -59.1084 H         1 UNK         0.0600 
    239 H239       -0.9776  -22.5442  -58.1760 H         1 UNK         0.0600 
    240 H240       -2.7932  -20.6279  -55.1242 H         1 UNK         0.3000 
    241 H241       -2.9531  -18.2858  -56.8545 H         1 UNK         0.0600 
    242 H242       -5.4857  -20.3601  -55.8634 H         1 UNK         0.3800 
    243 H243       -6.7584  -19.1742  -55.9670 H         1 UNK         0.3800 
    244 H244       -2.9349  -16.9496  -54.7628 H         1 UNK         0.0800 
    245 H245       -3.0464  -18.3995  -53.8074 H         1 UNK         0.0800 
    246 H246       -1.3393  -19.8694  -53.2311 H         1 UNK         0.0800 
    247 H247        0.3354  -19.8383  -53.7217 H         1 UNK         0.0800 
@<TRIPOS>BOND
     1    1    2 1    
     2    1  127 1    
     3    1  128 1    
     4    1  129 1    
     5    2    3 2    
     6    2    4 am   BACKBONE|DICT|INTERRES
     7    4    5 1    
     8    4  130 1    
     9    5    6 1    
    10    5   65 1    
    11    5  131 1    
    12    6    7 1    
    13    6  132 1    
    14    6  133 1    
    15    7    8 1    
    16    8    9 1    
    17    8  134 1    
    18    8  135 1    
    19    9   10 ar   
    20    9   14 ar   
    21   10   11 ar   
    22   10  136 1    
    23   11   12 ar   
    24   11  126 1    
    25   12   13 ar   
    26   12  137 1    
    27   13   14 ar   
    28   13   15 1    
    29   14  138 1    
    30   15   16 1    
    31   15  139 1    
    32   15  140 1    
    33   16   17 1    
    34   17   18 1    
    35   17  141 1    
    36   17  142 1    
    37   18   19 1    
    38   18   67 1    
    39   18  143 1    
    40   19   20 am   BACKBONE|DICT|INTERRES
    41   19  144 1    
    42   20   21 2    
    43   20   22 1    
    44   22   23 1    
    45   22   24 1    
    46   22  145 1    
    47   23  146 1    
    48   23  147 1    
    49   23  148 1    
    50   24   25 am   BACKBONE|DICT|INTERRES
    51   24  149 1    
    52   25   26 2    
    53   25   27 1    
    54   27   28 1    
    55   27   29 1    
    56   27  150 1    
    57   28  151 1    
    58   28  152 1    
    59   28  153 1    
    60   29   30 am   BACKBONE|DICT|INTERRES
    61   29  154 1    
    62   30   31 2    
    63   30   32 1    
    64   32   33 1    
    65   32   34 1    
    66   32  155 1    
    67   33  156 1    
    68   33  157 1    
    69   33  158 1    
    70   34   35 am   BACKBONE|DICT|INTERRES
    71   34  159 1    
    72   35   36 2    
    73   35   37 1    
    74   37   38 1    
    75   37   39 1    
    76   37  160 1    
    77   38  161 1    
    78   38  162 1    
    79   38  163 1    
    80   39   40 am   BACKBONE|DICT|INTERRES
    81   39  164 1    
    82   40   41 2    
    83   40   42 1    
    84   42   43 1    
    85   42   44 1    
    86   42  165 1    
    87   43  166 1    
    88   43  167 1    
    89   43  168 1    
    90   44   45 am   BACKBONE|DICT|INTERRES
    91   44  169 1    
    92   45   46 2    
    93   45   47 1    
    94   47   48 1    
    95   47   49 1    
    96   47  170 1    
    97   48  171 1    
    98   48  172 1    
    99   48  173 1    
   100   49   50 am   BACKBONE|DICT|INTERRES
   101   49  174 1    
   102   50   51 2    
   103   50   52 1    
   104   52   53 1    
   105   52   54 1    
   106   52  175 1    
   107   53  176 1    
   108   53  177 1    
   109   53  178 1    
   110   54   55 am   BACKBONE|DICT|INTERRES
   111   54  179 1    
   112   55   56 2    
   113   55   57 1    
   114   57   58 1    
   115   57   59 1    
   116   57  180 1    
   117   58  181 1    
   118   58  182 1    
   119   58  183 1    
   120   59   60 am   BACKBONE|DICT|INTERRES
   121   59  184 1    
   122   60   61 2    
   123   60   62 1    
   124   62   63 1    
   125   62   64 1    
   126   62  185 1    
   127   63  186 1    
   128   63  187 1    
   129   63  188 1    
   130   64   65 am   BACKBONE|DICT|INTERRES
   131   64  189 1    
   132   65   66 2    
   133   67   68 2    
   134   67   69 am   BACKBONE|DICT|INTERRES
   135   69   70 1    
   136   69  190 1    
   137   70   71 1    
   138   70   72 1    
   139   70  191 1    
   140   71  192 1    
   141   71  193 1    
   142   71  194 1    
   143   72   73 2    
   144   72   74 am   BACKBONE|DICT|INTERRES
   145   74   75 1    
   146   74  195 1    
   147   75   76 1    
   148   75   77 1    
   149   75  196 1    
   150   76  197 1    
   151   76  198 1    
   152   76  199 1    
   153   77   78 2    
   154   77   79 am   BACKBONE|DICT|INTERRES
   155   79   80 1    
   156   79  200 1    
   157   80   81 1    
   158   80   82 1    
   159   80  201 1    
   160   81  202 1    
   161   81  203 1    
   162   81  204 1    
   163   82   83 2    
   164   82   84 am   BACKBONE|DICT|INTERRES
   165   84   85 1    
   166   84  205 1    
   167   85   86 1    
   168   85   87 1    
   169   85  206 1    
   170   86  207 1    
   171   86  208 1    
   172   86  209 1    
   173   87   88 2    
   174   87   89 am   BACKBONE|DICT|INTERRES
   175   89   90 1    
   176   89  210 1    
   177   90   91 1    
   178   90   92 1    
   179   90  211 1    
   180   91  212 1    
   181   91  213 1    
   182   91  214 1    
   183   92   93 2    
   184   92   94 am   BACKBONE|DICT|INTERRES
   185   94   95 1    
   186   94  215 1    
   187   95   96 1    
   188   95   97 1    
   189   95  216 1    
   190   96  217 1    
   191   96  218 1    
   192   96  219 1    
   193   97   98 2    
   194   97   99 am   BACKBONE|DICT|INTERRES
   195   99  100 1    
   196   99  220 1    
   197  100  101 1    
   198  100  102 1    
   199  100  221 1    
   200  101  222 1    
   201  101  223 1    
   202  101  224 1    
   203  102  103 2    
   204  102  104 am   BACKBONE|DICT|INTERRES
   205  104  105 1    
   206  104  225 1    
   207  105  106 1    
   208  105  107 1    
   209  105  226 1    
   210  106  227 1    
   211  106  228 1    
   212  106  229 1    
   213  107  108 2    
   214  107  109 am   BACKBONE|DICT|INTERRES
   215  109  110 1    
   216  109  230 1    
   217  110  111 1    
   218  110  112 1    
   219  110  231 1    
   220  111  232 1    
   221  111  233 1    
   222  111  234 1    
   223  112  113 2    
   224  112  114 am   BACKBONE|DICT|INTERRES
   225  114  115 1    
   226  114  235 1    
   227  115  116 1    
   228  115  117 1    
   229  115  236 1    
   230  116  237 1    
   231  116  238 1    
   232  116  239 1    
   233  117  118 2    
   234  117  119 am   BACKBONE|DICT|INTERRES
   235  119  120 1    
   236  119  240 1    
   237  120  121 1    
   238  120  124 1    
   239  120  241 1    
   240  121  122 am   BACKBONE|DICT|INTERRES
   241  121  123 2    
   242  122  242 1    
   243  122  243 1    
   244  124  125 1    
   245  124  244 1    
   246  124  245 1    
   247  125  126 1    
   248  126  246 1    
   249  126  247 1    
@<TRIPOS>SUBSTRUCTURE
     1 UNK         1 GROUP             0       ****    0 ROOT    
