@<TRIPOS>MOLECULE
3R540
247   249    1
SMALL
USER_CHARGES


@<TRIPOS>ATOM
      1 CA          1.3235  -10.5545  -51.6345 C.3       0 UNK        -0.1800 
      2 C           1.4791  -11.3095  -50.3217 C.2       0 UNK         0.5000 
      3 O           2.4362  -11.0681  -49.5854 O.2       0 UNK        -0.5000 
      4 N           0.5485  -12.2262  -50.0321 N.am      1 UNK        -0.5000 
      5 CA          0.5023  -13.0098  -48.7943 C.3       1 UNK         0.1400 
      6 C6         -0.4498  -14.2225  -48.9164 C.3       23 UNK        -0.0398 
      7 S7          0.1510  -15.4687  -50.1039 S.3       23 UNK        -0.2404 
      8 C8         -1.0962  -15.3588  -51.4314 C.3       23 UNK        -0.0205 
      9 C9         -2.5294  -15.6699  -51.0003 C.ar      23 UNK        -0.0193 
     10 C10        -3.5849  -15.0199  -51.6462 C.ar      23 UNK        -0.1150 
     11 C11        -4.9140  -15.3129  -51.3254 C.ar      23 UNK        -0.0193 
     12 C12        -5.1803  -16.2477  -50.3208 C.ar      23 UNK        -0.1150 
     13 C13        -4.1405  -16.8951  -49.6455 C.ar      23 UNK        -0.0193 
     14 C14        -2.8174  -16.6032  -49.9964 C.ar      23 UNK        -0.1150 
     15 C15        -4.4752  -17.8727  -48.5201 C.3       23 UNK        -0.0205 
     16 S16        -3.3963  -19.3411  -48.4609 S.3       23 UNK        -0.2404 
     17 C17        -4.3454  -20.3894  -47.3160 C.3       23 UNK        -0.0398 
     18 CA         -3.5547  -21.6452  -46.8885 C.3       11 UNK         0.1400 
     19 N          -2.3428  -21.3278  -46.1286 N.am      11 UNK        -0.5000 
     20 C          -1.4037  -22.2164  -45.7712 C.2       10 UNK         0.5000 
     21 O          -1.4530  -23.4085  -46.0753 O.2       10 UNK        -0.5000 
     22 CA         -0.2496  -21.7148  -44.8822 C.3       10 UNK         0.1400 
     23 CB          1.0137  -21.4949  -45.7272 C.3       10 UNK        -0.1800 
     24 N          -0.5528  -20.4889  -44.1379 N.am      10 UNK        -0.5000 
     25 C          -1.5466  -20.3356  -43.2490 C.2       9 UNK         0.5000 
     26 O          -2.3291  -21.2337  -42.9360 O.2       9 UNK        -0.5000 
     27 CA         -1.7341  -18.9246  -42.6623 C.3       9 UNK         0.1400 
     28 CB         -0.8413  -18.7185  -41.4293 C.3       9 UNK        -0.1800 
     29 N          -1.4624  -17.8783  -43.6514 N.am      9 UNK        -0.5000 
     30 C          -2.2595  -17.5984  -44.6939 C.2       8 UNK         0.5000 
     31 O          -3.3297  -18.1677  -44.9005 O.2       8 UNK        -0.5000 
     32 CA         -1.7798  -16.5125  -45.6752 C.3       8 UNK         0.1400 
     33 CB         -2.4101  -15.1563  -45.3275 C.3       8 UNK        -0.1800 
     34 N          -0.3200  -16.3921  -45.6931 N.am      8 UNK        -0.5000 
     35 C           0.4769  -17.2379  -46.3632 C.2       7 UNK         0.5000 
     36 O           0.0629  -18.1530  -47.0728 O.2       7 UNK        -0.5000 
     37 CA          1.9906  -17.0571  -46.1679 C.3       7 UNK         0.1400 
     38 CB          2.5426  -15.9611  -47.0898 C.3       7 UNK        -0.1800 
     39 N           2.3380  -16.7344  -44.7861 N.am      7 UNK        -0.5000 
     40 C           2.2451  -17.5781  -43.7512 C.2       6 UNK         0.5000 
     41 O           1.7831  -18.7141  -43.8534 O.2       6 UNK        -0.5000 
     42 CA          2.6896  -17.0658  -42.3648 C.3       6 UNK         0.1400 
     43 CB          3.6458  -18.0505  -41.6638 C.3       6 UNK        -0.1800 
     44 N           3.2282  -15.6998  -42.3687 N.am      6 UNK        -0.5000 
     45 C           4.3710  -15.2451  -42.9080 C.2       5 UNK         0.5000 
     46 O           5.2058  -15.9653  -43.4546 O.2       5 UNK        -0.5000 
     47 CA          4.5968  -13.7186  -42.8866 C.3       5 UNK         0.1400 
     48 CB          4.5618  -13.1568  -44.3181 C.3       5 UNK        -0.1800 
     49 N           3.5921  -13.0110  -42.0911 N.am      5 UNK        -0.5000 
     50 C           3.6341  -12.8497  -40.7616 C.2       4 UNK         0.5000 
     51 O           4.5779  -13.2063  -40.0563 O.2       4 UNK        -0.5000 
     52 CA          2.3906  -12.2112  -40.1111 C.3       4 UNK         0.1400 
     53 CB          2.5714  -10.6911  -39.9837 C.3       4 UNK        -0.1800 
     54 N           1.1525  -12.4860  -40.8484 N.am      4 UNK        -0.5000 
     55 C           0.5847  -13.6952  -40.9728 C.2       3 UNK         0.5000 
     56 O           1.0370  -14.7179  -40.4611 O.2       3 UNK        -0.5000 
     57 CA         -0.6587  -13.7879  -41.8736 C.3       3 UNK         0.1400 
     58 CB         -1.9385  -13.5183  -41.0699 C.3       3 UNK        -0.1800 
     59 N          -0.5874  -12.8626  -43.0068 N.am      3 UNK        -0.5000 
     60 C           0.2022  -13.0424  -44.0715 C.2       2 UNK         0.5000 
     61 O           0.9216  -14.0344  -44.2355 O.2       2 UNK        -0.5000 
     62 CA          0.1924  -11.9268  -45.1221 C.3       2 UNK         0.1400 
     63 CB          1.1865  -10.8146  -44.7500 C.3       2 UNK        -0.1800 
     64 N           0.5630  -12.5086  -46.4052 N.am      2 UNK        -0.5000 
     65 C           0.0818  -12.1362  -47.5946 C.2       1 UNK         0.5000 
     66 O          -0.6943  -11.1908  -47.7568 O.2       1 UNK        -0.5000 
     67 C          -4.4844  -22.6545  -46.1794 C.2       11 UNK         0.5000 
     68 O          -5.2703  -23.3156  -46.8600 O.2       11 UNK        -0.5000 
     69 N          -4.3530  -22.8035  -44.8518 N.am      12 UNK        -0.5000 
     70 CA         -5.0312  -23.8322  -44.0606 C.3       12 UNK         0.1400 
     71 CB         -4.7470  -23.5908  -42.5711 C.3       12 UNK        -0.1800 
     72 C          -4.6358  -25.2698  -44.4585 C.2       12 UNK         0.5000 
     73 O          -5.4548  -26.1794  -44.3235 O.2       12 UNK        -0.5000 
     74 N          -3.4151  -25.4523  -44.9834 N.am      13 UNK        -0.5000 
     75 CA         -2.9026  -26.7195  -45.5029 C.3       13 UNK         0.1400 
     76 CB         -1.3794  -26.7694  -45.2840 C.3       13 UNK        -0.1800 
     77 C          -3.2981  -26.9033  -46.9822 C.2       13 UNK         0.5000 
     78 O          -2.4270  -27.0624  -47.8384 O.2       13 UNK        -0.5000 
     79 N          -4.6096  -26.8479  -47.2588 N.am      14 UNK        -0.5000 
     80 CA         -5.2507  -27.0202  -48.5691 C.3       14 UNK         0.1400 
     81 CB         -5.1578  -28.4942  -49.0155 C.3       14 UNK        -0.1800 
     82 C          -4.7069  -26.0422  -49.6312 C.2       14 UNK         0.5000 
     83 O          -4.2023  -26.4700  -50.6719 O.2       14 UNK        -0.5000 
     84 N          -4.7682  -24.7394  -49.3163 N.am      15 UNK        -0.5000 
     85 CA         -4.2318  -23.6282  -50.1121 C.3       15 UNK         0.1400 
     86 CB         -5.0028  -23.4746  -51.4385 C.3       15 UNK        -0.1800 
     87 C          -2.7001  -23.7193  -50.2934 C.2       15 UNK         0.5000 
     88 O          -2.1861  -23.3885  -51.3612 O.2       15 UNK        -0.5000 
     89 N          -2.0107  -24.2067  -49.2488 N.am      16 UNK        -0.5000 
     90 CA         -0.5816  -24.5344  -49.1935 C.3       16 UNK         0.1400 
     91 CB          0.2779  -23.2571  -49.2854 C.3       16 UNK        -0.1800 
     92 C          -0.2072  -25.5910  -50.2524 C.2       16 UNK         0.5000 
     93 O           0.7064  -25.3758  -51.0482 O.2       16 UNK        -0.5000 
     94 N          -0.9773  -26.6885  -50.2850 N.am      17 UNK        -0.5000 
     95 CA         -0.9664  -27.7426  -51.3076 C.3       17 UNK         0.1400 
     96 CB          0.3137  -28.5957  -51.1943 C.3       17 UNK        -0.1800 
     97 C          -1.1984  -27.1779  -52.7283 C.2       17 UNK         0.5000 
     98 O          -0.4970  -27.5457  -53.6721 O.2       17 UNK        -0.5000 
     99 N          -2.1634  -26.2529  -52.8246 N.am      18 UNK        -0.5000 
    100 CA        -2.5593  -25.4567  -53.9912 C.3       18 UNK         0.1400 
    101 CB        -3.0813  -26.3621  -55.1252 C.3       18 UNK        -0.1800 
    102 C         -1.5099  -24.4390  -54.4956 C.2       18 UNK         0.5000 
    103 O         -1.7570  -23.7943  -55.5163 O.2       18 UNK        -0.5000 
    104 N         -0.3797  -24.2693  -53.7930 N.am      19 UNK        -0.5000 
    105 CA         0.6800  -23.3283  -54.1685 C.3       19 UNK         0.1400 
    106 CB         1.9948  -23.7306  -53.4842 C.3       19 UNK        -0.1800 
    107 C          0.3391  -21.8605  -53.8460 C.2       19 UNK         0.5000 
    108 O          0.9117  -20.9649  -54.4681 O.2       19 UNK        -0.5000 
    109 N         -0.5748  -21.6348  -52.8942 N.am      20 UNK        -0.5000 
    110 CA        -1.0228  -20.3199  -52.4384 C.3       20 UNK         0.1400 
    111 CB        -0.6596  -20.1438  -50.9527 C.3       20 UNK        -0.1800 
    112 C         -2.5293  -20.1396  -52.6943 C.2       20 UNK         0.5000 
    113 O         -3.1989  -19.4330  -51.9439 O.2       20 UNK        -0.5000 
    114 N         -3.0511  -20.7443  -53.7709 N.am      21 UNK        -0.5000 
    115 CA        -4.4544  -20.6738  -54.2018 C.3       21 UNK         0.1400 
    116 CB        -4.7400  -21.8677  -55.1308 C.3       21 UNK        -0.1800 
    117 C         -4.8612  -19.3159  -54.8285 C.2       21 UNK         0.5000 
    118 O         -5.6538  -19.2850  -55.7719 O.2       21 UNK        -0.5000 
    119 N         -4.3236  -18.2196  -54.2819 N.am      22 UNK        -0.5000 
    120 CA        -4.5143  -16.8236  -54.6934 C.3       22 UNK         0.1400 
    121 C         -4.0788  -16.5189  -56.1627 C.2       22 UNK         0.5000 
    122 N         -4.5395  -15.4259  -56.7563 N.am      22 UNK        -0.7600 
    123 O         -3.2761  -17.2347  -56.7583 O.2       22 UNK        -0.5000 
    124 C124       -5.9295  -16.3026  -54.3063 C.3       23 UNK        -0.0398 
    125 S125       -5.9174  -14.5346  -53.8453 S.3       23 UNK        -0.2404 
    126 C126       -6.0699  -14.6014  -52.0257 C.3       23 UNK        -0.0205 
    127 H127        0.4428  -10.8808  -52.1883 H         1 UNK         0.0600 
    128 H128        2.1987  -10.7127  -52.2645 H         1 UNK         0.0600 
    129 H129        1.2281   -9.4856  -51.4432 H         1 UNK         0.0600 
    130 H130       -0.2261  -12.3609  -50.6644 H         1 UNK         0.3000 
    131 H131        1.5108  -13.3817  -48.6005 H         1 UNK         0.0600 
    132 H132       -1.4559  -13.8947  -49.1832 H         1 UNK         0.0800 
    133 H133       -0.5490  -14.7337  -47.9588 H         1 UNK         0.0800 
    134 H134       -1.0414  -14.3614  -51.8700 H         1 UNK         0.0800 
    135 H135       -0.8196  -16.0580  -52.2212 H         1 UNK         0.0800 
    136 H136       -3.3731  -14.2916  -52.4165 H         1 UNK         0.1150 
    137 H137       -6.2050  -16.4642  -50.0532 H         1 UNK         0.1150 
    138 H138       -2.0108  -17.1089  -49.4856 H         1 UNK         0.1150 
    139 H139       -4.4149  -17.3475  -47.5663 H         1 UNK         0.0800 
    140 H140       -5.5069  -18.2120  -48.6242 H         1 UNK         0.0800 
    141 H141       -5.2681  -20.6700  -47.8282 H         1 UNK         0.0800 
    142 H142       -4.6437  -19.8055  -46.4445 H         1 UNK         0.0800 
    143 H143       -3.2040  -22.1387  -47.7922 H         1 UNK         0.0600 
    144 H144       -2.2322  -20.3644  -45.8447 H         1 UNK         0.3000 
    145 H145       -0.0414  -22.4987  -44.1516 H         1 UNK         0.0600 
    146 H146        1.8643  -21.2204  -45.1031 H         1 UNK         0.0600 
    147 H147        1.2873  -22.4028  -46.2665 H         1 UNK         0.0600 
    148 H148        0.8702  -20.7051  -46.4653 H         1 UNK         0.0600 
    149 H149        0.0875  -19.7147  -44.2806 H         1 UNK         0.3000 
    150 H150       -2.7747  -18.8299  -42.3445 H         1 UNK         0.0600 
    151 H151       -1.1137  -19.4161  -40.6364 H         1 UNK         0.0600 
    152 H152       -0.9455  -17.7111  -41.0255 H         1 UNK         0.0600 
    153 H153        0.2111  -18.8852  -41.6568 H         1 UNK         0.0600 
    154 H154       -0.5848  -17.3896  -43.5723 H         1 UNK         0.3000 
    155 H155       -2.1204  -16.7919  -46.6749 H         1 UNK         0.0600 
    156 H156       -3.4956  -15.2009  -45.4234 H         1 UNK         0.0600 
    157 H157       -2.0591  -14.3686  -45.9938 H         1 UNK         0.0600 
    158 H158       -2.1888  -14.8601  -44.3029 H         1 UNK         0.0600 
    159 H159        0.1021  -15.6667  -45.1231 H         1 UNK         0.3000 
    160 H160        2.4751  -18.0004  -46.4296 H         1 UNK         0.0600 
    161 H161        2.1178  -14.9865  -46.8539 H         1 UNK         0.0600 
    162 H162        2.3189  -16.1799  -48.1342 H         1 UNK         0.0600 
    163 H163        3.6264  -15.8826  -47.0013 H         1 UNK         0.0600 
    164 H164        2.6632  -15.7966  -44.6030 H         1 UNK         0.3000 
    165 H165        1.7810  -17.0158  -41.7644 H         1 UNK         0.0600 
    166 H166        4.5529  -18.2217  -42.2436 H         1 UNK         0.0600 
    167 H167        3.9382  -17.6833  -40.6801 H         1 UNK         0.0600 
    168 H168        3.1678  -19.0200  -41.5182 H         1 UNK         0.0600 
    169 H169        2.6253  -15.0197  -41.9239 H         1 UNK         0.3000 
    170 H170        5.5882  -13.5346  -42.4673 H         1 UNK         0.0600 
    171 H171        5.3320  -13.6165  -44.9388 H         1 UNK         0.0600 
    172 H172        3.6013  -13.3393  -44.8011 H         1 UNK         0.0600 
    173 H173        4.7424  -12.0817  -44.3247 H         1 UNK         0.0600 
    174 H174        2.7732  -12.6903  -42.5849 H         1 UNK         0.3000 
    175 H175        2.2894  -12.6312  -39.1081 H         1 UNK         0.0600 
    176 H176        2.6577  -10.2119  -40.9598 H         1 UNK         0.0600 
    177 H177        1.7310  -10.2364  -39.4587 H         1 UNK         0.0600 
    178 H178        3.4734  -10.4511  -39.4191 H         1 UNK         0.0600 
    179 H179        0.7104  -11.6986  -41.2987 H         1 UNK         0.3000 
    180 H180       -0.7112  -14.8088  -42.2589 H         1 UNK         0.0600 
    181 H181       -1.9568  -12.5056  -40.6654 H         1 UNK         0.0600 
    182 H182       -2.0246  -14.2095  -40.2304 H         1 UNK         0.0600 
    183 H183       -2.8262  -13.6493  -41.6891 H         1 UNK         0.0600 
    184 H184       -1.1616  -12.0333  -42.9499 H         1 UNK         0.3000 
    185 H185       -0.8178  -11.5151  -45.1761 H         1 UNK         0.0600 
    186 H186        0.9377  -10.3680  -43.7866 H         1 UNK         0.0600 
    187 H187        2.2082  -11.1900  -44.6864 H         1 UNK         0.0600 
    188 H188        1.1731  -10.0143  -45.4901 H         1 UNK         0.0600 
    189 H189        1.1629  -13.3181  -46.3265 H         1 UNK         0.3000 
    190 H190       -3.6805  -22.2276  -44.3578 H         1 UNK         0.3000 
    191 H191       -6.1053  -23.7276  -44.2266 H         1 UNK         0.0600 
    192 H192       -3.6828  -23.6753  -42.3469 H         1 UNK         0.0600 
    193 H193       -5.0758  -22.5985  -42.2618 H         1 UNK         0.0600 
    194 H194       -5.2730  -24.3165  -41.9494 H         1 UNK         0.0600 
    195 H195       -2.8173  -24.6457  -45.1279 H         1 UNK         0.3000 
    196 H196       -3.3413  -27.5489  -44.9444 H         1 UNK         0.0600 
    197 H197       -1.1286  -26.6483  -44.2301 H         1 UNK         0.0600 
    198 H198       -0.8624  -25.9888  -45.8424 H         1 UNK         0.0600 
    199 H199       -0.9704  -27.7276  -45.6066 H         1 UNK         0.0600 
    200 H200       -5.2362  -26.6816  -46.4804 H         1 UNK         0.3000 
    201 H201       -6.3064  -26.7793  -48.4373 H         1 UNK         0.0600 
    202 H202       -5.7005  -28.6546  -49.9479 H         1 UNK         0.0600 
    203 H203       -5.5918  -29.1598  -48.2694 H         1 UNK         0.0600 
    204 H204       -4.1255  -28.8046  -49.1810 H         1 UNK         0.0600 
    205 H205       -5.1604  -24.4724  -48.4168 H         1 UNK         0.3000 
    206 H206       -4.4187  -22.7162  -49.5479 H         1 UNK         0.0600 
    207 H207       -6.0578  -23.2721  -51.2549 H         1 UNK         0.0600 
    208 H208       -4.9416  -24.3663  -52.0595 H         1 UNK         0.0600 
    209 H209       -4.6113  -22.6418  -52.0198 H         1 UNK         0.0600 
    210 H210       -2.5351  -24.4899  -48.4341 H         1 UNK         0.3000 
    211 H211       -0.4033  -24.9871  -48.2172 H         1 UNK         0.0600 
    212 H212       -0.0558  -22.5011  -48.5752 H         1 UNK         0.0600 
    213 H213        1.3224  -23.4770  -49.0631 H         1 UNK         0.0600 
    214 H214        0.2451  -22.8194  -50.2826 H         1 UNK         0.0600 
    215 H215       -1.6834  -26.7889  -49.5587 H         1 UNK         0.3000 
    216 H216       -1.8181  -28.3889  -51.0905 H         1 UNK         0.0600 
    217 H217        0.2758  -29.4481  -51.8734 H         1 UNK         0.0600 
    218 H218        1.2074  -28.0212  -51.4398 H         1 UNK         0.0600 
    219 H219        0.4351  -28.9900  -50.1854 H         1 UNK         0.0600 
    220 H220       -2.6978  -26.0651  -51.9815 H         1 UNK         0.3000 
    221 H221       -3.3992  -24.8514  -53.6544 H         1 UNK         0.0600 
    222 H222       -2.2828  -26.9547  -55.5719 H         1 UNK         0.0600 
    223 H223       -3.8468  -27.0475  -54.7615 H         1 UNK         0.0600 
    224 H224       -3.5316  -25.7705  -55.9231 H         1 UNK         0.0600 
    225 H225       -0.2399  -24.7966  -52.9389 H         1 UNK         0.3000 
    226 H226        0.8335  -23.4016  -55.2473 H         1 UNK         0.0600 
    227 H227        2.2250  -24.7833  -53.6495 H         1 UNK         0.0600 
    228 H228        2.8291  -23.1481  -53.8764 H         1 UNK         0.0600 
    229 H229        1.9578  -23.5568  -52.4086 H         1 UNK         0.0600 
    230 H230       -1.0345  -22.4266  -52.4463 H         1 UNK         0.3000 
    231 H231       -0.5210  -19.5289  -52.9985 H         1 UNK         0.0600 
    232 H232       -0.8895  -19.1342  -50.6093 H         1 UNK         0.0600 
    233 H233        0.4042  -20.3075  -50.7816 H         1 UNK         0.0600 
    234 H234       -1.2151  -20.8364  -50.3197 H         1 UNK         0.0600 
    235 H235       -2.4317  -21.2894  -54.3537 H         1 UNK         0.3000 
    236 H236       -5.0847  -20.7891  -53.3186 H         1 UNK         0.0600 
    237 H237       -4.5069  -22.8130  -54.6412 H         1 UNK         0.0600 
    238 H238       -5.7922  -21.9063  -55.4152 H         1 UNK         0.0600 
    239 H239       -4.1508  -21.8115  -56.0468 H         1 UNK         0.0600 
    240 H240       -3.7376  -18.3618  -53.4657 H         1 UNK         0.3000 
    241 H241       -3.7819  -16.2891  -54.0902 H         1 UNK         0.0600 
    242 H242       -4.2458  -15.2120  -57.6968 H         1 UNK         0.3800 
    243 H243       -5.1642  -14.7987  -56.2712 H         1 UNK         0.3800 
    244 H244       -6.6426  -16.4655  -55.1161 H         1 UNK         0.0800 
    245 H245       -6.3224  -16.8658  -53.4585 H         1 UNK         0.0800 
    246 H246       -7.0215  -15.0731  -51.7758 H         1 UNK         0.0800 
    247 H247       -6.1259  -13.5810  -51.6448 H         1 UNK         0.0800 
@<TRIPOS>BOND
     1    1    2 1    
     2    1  127 1    
     3    1  128 1    
     4    1  129 1    
     5    2    3 2    
     6    2    4 am   BACKBONE|DICT|INTERRES
     7    4    5 1    
     8    4  130 1    
     9    5    6 1    
    10    5   65 1    
    11    5  131 1    
    12    6    7 1    
    13    6  132 1    
    14    6  133 1    
    15    7    8 1    
    16    8    9 1    
    17    8  134 1    
    18    8  135 1    
    19    9   10 ar   
    20    9   14 ar   
    21   10   11 ar   
    22   10  136 1    
    23   11   12 ar   
    24   11  126 1    
    25   12   13 ar   
    26   12  137 1    
    27   13   14 ar   
    28   13   15 1    
    29   14  138 1    
    30   15   16 1    
    31   15  139 1    
    32   15  140 1    
    33   16   17 1    
    34   17   18 1    
    35   17  141 1    
    36   17  142 1    
    37   18   19 1    
    38   18   67 1    
    39   18  143 1    
    40   19   20 am   BACKBONE|DICT|INTERRES
    41   19  144 1    
    42   20   21 2    
    43   20   22 1    
    44   22   23 1    
    45   22   24 1    
    46   22  145 1    
    47   23  146 1    
    48   23  147 1    
    49   23  148 1    
    50   24   25 am   BACKBONE|DICT|INTERRES
    51   24  149 1    
    52   25   26 2    
    53   25   27 1    
    54   27   28 1    
    55   27   29 1    
    56   27  150 1    
    57   28  151 1    
    58   28  152 1    
    59   28  153 1    
    60   29   30 am   BACKBONE|DICT|INTERRES
    61   29  154 1    
    62   30   31 2    
    63   30   32 1    
    64   32   33 1    
    65   32   34 1    
    66   32  155 1    
    67   33  156 1    
    68   33  157 1    
    69   33  158 1    
    70   34   35 am   BACKBONE|DICT|INTERRES
    71   34  159 1    
    72   35   36 2    
    73   35   37 1    
    74   37   38 1    
    75   37   39 1    
    76   37  160 1    
    77   38  161 1    
    78   38  162 1    
    79   38  163 1    
    80   39   40 am   BACKBONE|DICT|INTERRES
    81   39  164 1    
    82   40   41 2    
    83   40   42 1    
    84   42   43 1    
    85   42   44 1    
    86   42  165 1    
    87   43  166 1    
    88   43  167 1    
    89   43  168 1    
    90   44   45 am   BACKBONE|DICT|INTERRES
    91   44  169 1    
    92   45   46 2    
    93   45   47 1    
    94   47   48 1    
    95   47   49 1    
    96   47  170 1    
    97   48  171 1    
    98   48  172 1    
    99   48  173 1    
   100   49   50 am   BACKBONE|DICT|INTERRES
   101   49  174 1    
   102   50   51 2    
   103   50   52 1    
   104   52   53 1    
   105   52   54 1    
   106   52  175 1    
   107   53  176 1    
   108   53  177 1    
   109   53  178 1    
   110   54   55 am   BACKBONE|DICT|INTERRES
   111   54  179 1    
   112   55   56 2    
   113   55   57 1    
   114   57   58 1    
   115   57   59 1    
   116   57  180 1    
   117   58  181 1    
   118   58  182 1    
   119   58  183 1    
   120   59   60 am   BACKBONE|DICT|INTERRES
   121   59  184 1    
   122   60   61 2    
   123   60   62 1    
   124   62   63 1    
   125   62   64 1    
   126   62  185 1    
   127   63  186 1    
   128   63  187 1    
   129   63  188 1    
   130   64   65 am   BACKBONE|DICT|INTERRES
   131   64  189 1    
   132   65   66 2    
   133   67   68 2    
   134   67   69 am   BACKBONE|DICT|INTERRES
   135   69   70 1    
   136   69  190 1    
   137   70   71 1    
   138   70   72 1    
   139   70  191 1    
   140   71  192 1    
   141   71  193 1    
   142   71  194 1    
   143   72   73 2    
   144   72   74 am   BACKBONE|DICT|INTERRES
   145   74   75 1    
   146   74  195 1    
   147   75   76 1    
   148   75   77 1    
   149   75  196 1    
   150   76  197 1    
   151   76  198 1    
   152   76  199 1    
   153   77   78 2    
   154   77   79 am   BACKBONE|DICT|INTERRES
   155   79   80 1    
   156   79  200 1    
   157   80   81 1    
   158   80   82 1    
   159   80  201 1    
   160   81  202 1    
   161   81  203 1    
   162   81  204 1    
   163   82   83 2    
   164   82   84 am   BACKBONE|DICT|INTERRES
   165   84   85 1    
   166   84  205 1    
   167   85   86 1    
   168   85   87 1    
   169   85  206 1    
   170   86  207 1    
   171   86  208 1    
   172   86  209 1    
   173   87   88 2    
   174   87   89 am   BACKBONE|DICT|INTERRES
   175   89   90 1    
   176   89  210 1    
   177   90   91 1    
   178   90   92 1    
   179   90  211 1    
   180   91  212 1    
   181   91  213 1    
   182   91  214 1    
   183   92   93 2    
   184   92   94 am   BACKBONE|DICT|INTERRES
   185   94   95 1    
   186   94  215 1    
   187   95   96 1    
   188   95   97 1    
   189   95  216 1    
   190   96  217 1    
   191   96  218 1    
   192   96  219 1    
   193   97   98 2    
   194   97   99 am   BACKBONE|DICT|INTERRES
   195   99  100 1    
   196   99  220 1    
   197  100  101 1    
   198  100  102 1    
   199  100  221 1    
   200  101  222 1    
   201  101  223 1    
   202  101  224 1    
   203  102  103 2    
   204  102  104 am   BACKBONE|DICT|INTERRES
   205  104  105 1    
   206  104  225 1    
   207  105  106 1    
   208  105  107 1    
   209  105  226 1    
   210  106  227 1    
   211  106  228 1    
   212  106  229 1    
   213  107  108 2    
   214  107  109 am   BACKBONE|DICT|INTERRES
   215  109  110 1    
   216  109  230 1    
   217  110  111 1    
   218  110  112 1    
   219  110  231 1    
   220  111  232 1    
   221  111  233 1    
   222  111  234 1    
   223  112  113 2    
   224  112  114 am   BACKBONE|DICT|INTERRES
   225  114  115 1    
   226  114  235 1    
   227  115  116 1    
   228  115  117 1    
   229  115  236 1    
   230  116  237 1    
   231  116  238 1    
   232  116  239 1    
   233  117  118 2    
   234  117  119 am   BACKBONE|DICT|INTERRES
   235  119  120 1    
   236  119  240 1    
   237  120  121 1    
   238  120  124 1    
   239  120  241 1    
   240  121  122 am   BACKBONE|DICT|INTERRES
   241  121  123 2    
   242  122  242 1    
   243  122  243 1    
   244  124  125 1    
   245  124  244 1    
   246  124  245 1    
   247  125  126 1    
   248  126  246 1    
   249  126  247 1    
@<TRIPOS>SUBSTRUCTURE
     1 UNK         1 GROUP             0       ****    0 ROOT    
