@<TRIPOS>MOLECULE
3R540
247   249    1
SMALL
USER_CHARGES


@<TRIPOS>ATOM
      1 CA          0.1071  -11.8320  -45.4815 C.3       0 UNK        -0.1800 
      2 C           1.3645  -11.5245  -46.2820 C.2       0 UNK         0.5000 
      3 O           2.4713  -11.8169  -45.8291 O.2       0 UNK        -0.5000 
      4 N           1.1971  -10.9564  -47.4837 N.am      1 UNK        -0.5000 
      5 CA          2.2682  -10.5872  -48.4197 C.3       1 UNK         0.1400 
      6 C6          3.0356  -11.8178  -48.9920 C.3       23 UNK        -0.0398 
      7 S7          1.9438  -13.0149  -49.8313 S.3       23 UNK        -0.2404 
      8 C8          1.8658  -14.3458  -48.5909 C.3       23 UNK        -0.0205 
      9 C9          0.9183  -15.4508  -49.0231 C.ar      23 UNK        -0.0193 
     10 C10        -0.4629  -15.2319  -49.0155 C.ar      23 UNK        -0.1150 
     11 C11        -1.3463  -16.2418  -49.4084 C.ar      23 UNK        -0.0193 
     12 C12        -0.8310  -17.4776  -49.8088 C.ar      23 UNK        -0.1150 
     13 C13         0.5456  -17.7151  -49.8043 C.ar      23 UNK        -0.0193 
     14 C14         1.4173  -16.6959  -49.4141 C.ar      23 UNK        -0.1150 
     15 C15         1.0872  -19.0764  -50.2128 C.3       23 UNK        -0.0205 
     16 S16         1.1823  -20.2125  -48.7937 S.3       23 UNK        -0.2404 
     17 C17        -0.5882  -20.4835  -48.4478 C.3       23 UNK        -0.0398 
     18 CA         -0.8260  -21.7046  -47.5317 C.3       11 UNK         0.1400 
     19 N          -0.3486  -21.4560  -46.1677 N.am      11 UNK        -0.5000 
     20 C          -0.0977  -22.3976  -45.2507 C.2       10 UNK         0.5000 
     21 O          -0.2408  -23.6024  -45.4549 O.2       10 UNK        -0.5000 
     22 CA          0.3043  -21.9011  -43.8498 C.3       10 UNK         0.1400 
     23 CB          1.8002  -21.5570  -43.7970 C.3       10 UNK        -0.1800 
     24 N          -0.4901  -20.7460  -43.4215 N.am      10 UNK        -0.5000 
     25 C          -1.8146  -20.7811  -43.2126 C.2       9 UNK         0.5000 
     26 O          -2.4841  -21.8091  -43.3010 O.2       9 UNK        -0.5000 
     27 CA         -2.5211  -19.4507  -42.8942 C.3       9 UNK         0.1400 
     28 CB         -2.3761  -19.0981  -41.4071 C.3       9 UNK        -0.1800 
     29 N          -2.0362  -18.3414  -43.7149 N.am      9 UNK        -0.5000 
     30 C          -2.1844  -18.2524  -45.0449 C.2       8 UNK         0.5000 
     31 O          -2.7970  -19.0748  -45.7251 O.2       8 UNK        -0.5000 
     32 CA         -1.4915  -17.0657  -45.7387 C.3       8 UNK         0.1400 
     33 CB         -2.3694  -15.8057  -45.6989 C.3       8 UNK        -0.1800 
     34 N          -0.1822  -16.7683  -45.1598 N.am      8 UNK        -0.5000 
     35 C           0.8720  -17.5932  -45.2196 C.2       7 UNK         0.5000 
     36 O           0.8538  -18.6893  -45.7780 O.2       7 UNK        -0.5000 
     37 CA          2.1344  -17.1377  -44.4685 C.3       7 UNK         0.1400 
     38 CB          2.8695  -16.0374  -45.2516 C.3       7 UNK        -0.1800 
     39 N           1.8196  -16.6627  -43.1192 N.am      7 UNK        -0.5000 
     40 C           1.3633  -17.4505  -42.1318 C.2       6 UNK         0.5000 
     41 O           1.2152  -18.6662  -42.2480 O.2       6 UNK        -0.5000 
     42 CA          0.9635  -16.7749  -40.8033 C.3       6 UNK         0.1400 
     43 CB          2.1624  -16.7295  -39.8447 C.3       6 UNK        -0.1800 
     44 N           0.4353  -15.4214  -40.9686 N.am      6 UNK        -0.5000 
     45 C          -0.6215  -15.0815  -41.7194 C.2       5 UNK         0.5000 
     46 O          -1.3535  -15.9014  -42.2733 O.2       5 UNK        -0.5000 
     47 CA         -0.8693  -13.5744  -41.9414 C.3       5 UNK         0.1400 
     48 CB         -2.0327  -13.0895  -41.0643 C.3       5 UNK        -0.1800 
     49 N           0.2970  -12.7089  -41.7107 N.am      5 UNK        -0.5000 
     50 C           1.4873  -12.8170  -42.3175 C.2       4 UNK         0.5000 
     51 O           1.7686  -13.7155  -43.1166 O.2       4 UNK        -0.5000 
     52 CA          2.5492  -11.7789  -41.9316 C.3       4 UNK         0.1400 
     53 CB          3.0653  -12.0201  -40.5006 C.3       4 UNK        -0.1800 
     54 N           3.6481  -11.8910  -42.8791 N.am      4 UNK        -0.5000 
     55 C           4.5641  -10.9613  -43.1588 C.2       3 UNK         0.5000 
     56 O           4.6013   -9.8560  -42.6151 O.2       3 UNK        -0.5000 
     57 CA          5.6207  -11.3221  -44.2195 C.3       3 UNK         0.1400 
     58 CB          5.6912  -12.8288  -44.5487 C.3       3 UNK        -0.1800 
     59 N           5.3381  -10.5927  -45.4501 N.am      3 UNK        -0.5000 
     60 C           5.9228   -9.4487  -45.8324 C.2       2 UNK         0.5000 
     61 O           6.7831   -8.8700  -45.1667 O.2       2 UNK        -0.5000 
     62 CA          5.5131   -8.8611  -47.2015 C.3       2 UNK         0.1400 
     63 CB          6.7353   -8.7295  -48.1265 C.3       2 UNK        -0.1800 
     64 N           4.5084   -9.6817  -47.8821 N.am      2 UNK        -0.5000 
     65 C           3.1838   -9.5111  -47.7824 C.2       1 UNK         0.5000 
     66 O           2.6697   -8.5560  -47.1949 O.2       1 UNK        -0.5000 
     67 C          -2.2966  -22.1806  -47.6101 C.2       11 UNK         0.5000 
     68 O          -2.7618  -22.4613  -48.7131 O.2       11 UNK        -0.5000 
     69 N          -3.0114  -22.2976  -46.4802 N.am      12 UNK        -0.5000 
     70 CA         -4.3191  -22.9577  -46.4245 C.3       12 UNK         0.1400 
     71 CB         -5.0602  -22.5391  -45.1469 C.3       12 UNK        -0.1800 
     72 C          -4.1967  -24.4941  -46.5052 C.2       12 UNK         0.5000 
     73 O          -5.1500  -25.1556  -46.9199 O.2       12 UNK        -0.5000 
     74 N          -3.0295  -25.0358  -46.1265 N.am      13 UNK        -0.5000 
     75 CA         -2.6863  -26.4518  -46.2463 C.3       13 UNK         0.1400 
     76 CB         -1.4690  -26.7407  -45.3527 C.3       13 UNK        -0.1800 
     77 C          -2.3990  -26.8537  -47.7066 C.2       13 UNK         0.5000 
     78 O          -2.2716  -25.9901  -48.5789 O.2       13 UNK        -0.5000 
     79 N          -2.2933  -28.1706  -47.9382 N.am      14 UNK        -0.5000 
     80 CA         -1.9947  -28.8138  -49.2249 C.3       14 UNK         0.1400 
     81 CB         -0.5472  -28.5048  -49.6644 C.3       14 UNK        -0.1800 
     82 C          -3.0366  -28.4720  -50.3091 C.2       14 UNK         0.5000 
     83 O          -2.6705  -28.1052  -51.4267 O.2       14 UNK        -0.5000 
     84 N          -4.3217  -28.5652  -49.9323 N.am      15 UNK        -0.5000 
     85 CA         -5.5006  -28.2221  -50.7369 C.3       15 UNK         0.1400 
     86 CB         -5.6694  -29.2132  -51.9085 C.3       15 UNK        -0.1800 
     87 C          -5.4776  -26.7490  -51.1934 C.2       15 UNK         0.5000 
     88 O          -5.6375  -26.4670  -52.3817 O.2       15 UNK        -0.5000 
     89 N          -5.2317  -25.8448  -50.2332 N.am      16 UNK        -0.5000 
     90 CA         -5.0493  -24.4014  -50.4115 C.3       16 UNK         0.1400 
     91 CB         -6.3772  -23.7239  -50.8092 C.3       16 UNK        -0.1800 
     92 C          -3.8938  -24.0832  -51.3802 C.2       16 UNK         0.5000 
     93 O          -4.1052  -23.4039  -52.3874 O.2       16 UNK        -0.5000 
     94 N          -2.7091  -24.6275  -51.0644 N.am      17 UNK        -0.5000 
     95 CA         -1.4479  -24.5099  -51.7998 C.3       17 UNK         0.1400 
     96 CB         -0.8740  -23.0844  -51.6610 C.3       17 UNK        -0.1800 
     97 C          -1.5688  -24.9821  -53.2628 C.2       17 UNK         0.5000 
     98 O          -1.2138  -24.2465  -54.1852 O.2       17 UNK        -0.5000 
     99 N          -2.0886  -26.2062  -53.4344 N.am      18 UNK        -0.5000 
    100 CA        -2.3715  -26.8821  -54.7025 C.3       18 UNK         0.1400 
    101 CB        -1.0652  -27.2079  -55.4568 C.3       18 UNK        -0.1800 
    102 C         -3.4004  -26.1147  -55.5573 C.2       18 UNK         0.5000 
    103 O         -3.1586  -25.8507  -56.7370 O.2       18 UNK        -0.5000 
    104 N         -4.5356  -25.7776  -54.9290 N.am      19 UNK        -0.5000 
    105 CA        -5.6890  -25.0736  -55.4923 C.3       19 UNK         0.1400 
    106 CB        -6.3791  -25.9264  -56.5780 C.3       19 UNK        -0.1800 
    107 C         -5.3723  -23.6360  -55.9534 C.2       19 UNK         0.5000 
    108 O         -5.9134  -23.1789  -56.9624 O.2       19 UNK        -0.5000 
    109 N         -4.5311  -22.9283  -55.1858 N.am      20 UNK        -0.5000 
    110 CA        -4.2968  -21.4903  -55.3403 C.3       20 UNK         0.1400 
    111 CB        -2.9973  -21.0973  -54.6214 C.3       20 UNK        -0.1800 
    112 C         -5.4813  -20.6634  -54.8029 C.2       20 UNK         0.5000 
    113 O         -5.7172  -19.5580  -55.2910 O.2       20 UNK        -0.5000 
    114 N         -6.2070  -21.2297  -53.8234 N.am      21 UNK        -0.5000 
    115 CA        -7.4393  -20.7162  -53.2113 C.3       21 UNK         0.1400 
    116 CB        -8.5834  -20.6743  -54.2458 C.3       21 UNK        -0.1800 
    117 C         -7.2515  -19.3775  -52.4650 C.2       21 UNK         0.5000 
    118 O         -8.1809  -18.5712  -52.3956 O.2       21 UNK        -0.5000 
    119 N         -6.0505  -19.1715  -51.9098 N.am      22 UNK        -0.5000 
    120 CA        -5.6733  -17.9761  -51.1379 C.3       22 UNK         0.1400 
    121 C         -6.2586  -17.9312  -49.6918 C.2       22 UNK         0.5000 
    122 N         -6.7927  -19.0227  -49.1562 N.am      22 UNK        -0.7600 
    123 O         -6.2459  -16.8863  -49.0484 O.2       22 UNK        -0.5000 
    124 C124       -4.1335  -17.7883  -51.1494 C.3       23 UNK        -0.0398 
    125 S125       -3.6158  -16.0404  -51.0138 S.3       23 UNK        -0.2404 
    126 C126       -2.8509  -16.0055  -49.3605 C.3       23 UNK        -0.0205 
    127 H127       -0.7983  -11.5907  -46.0387 H         1 UNK         0.0600 
    128 H128        0.1015  -11.2567  -44.5562 H         1 UNK         0.0600 
    129 H129        0.0766  -12.8921  -45.2296 H         1 UNK         0.0600 
    130 H130        0.2639  -10.7208  -47.7893 H         1 UNK         0.3000 
    131 H131        1.7769  -10.0910  -49.2579 H         1 UNK         0.0600 
    132 H132        3.7650  -11.4954  -49.7368 H         1 UNK         0.0800 
    133 H133        3.5996  -12.3306  -48.2112 H         1 UNK         0.0800 
    134 H134        2.8688  -14.7409  -48.4224 H         1 UNK         0.0800 
    135 H135        1.5265  -13.9512  -47.6348 H         1 UNK         0.0800 
    136 H136       -0.8459  -14.2709  -48.7018 H         1 UNK         0.1150 
    137 H137       -1.4985  -18.2678  -50.1122 H         1 UNK         0.1150 
    138 H138        2.4832  -16.8760  -49.4092 H         1 UNK         0.1150 
    139 H139        0.4674  -19.5143  -50.9969 H         1 UNK         0.0800 
    140 H140        2.0843  -18.9654  -50.6415 H         1 UNK         0.0800 
    141 H141       -1.0908  -20.6091  -49.4084 H         1 UNK         0.0800 
    142 H142       -1.0076  -19.5863  -47.9908 H         1 UNK         0.0800 
    143 H143       -0.2401  -22.5343  -47.9334 H         1 UNK         0.0600 
    144 H144       -0.1619  -20.4866  -45.9307 H         1 UNK         0.3000 
    145 H145        0.1199  -22.7142  -43.1447 H         1 UNK         0.0600 
    146 H146        2.1062  -21.2876  -42.7860 H         1 UNK         0.0600 
    147 H147        2.4079  -22.4087  -44.1047 H         1 UNK         0.0600 
    148 H148        2.0472  -20.7227  -44.4539 H         1 UNK         0.0600 
    149 H149        0.0133  -19.8765  -43.2749 H         1 UNK         0.3000 
    150 H150       -3.5841  -19.5793  -43.1089 H         1 UNK         0.0600 
    151 H151       -2.8141  -19.8751  -40.7795 H         1 UNK         0.0600 
    152 H152       -2.8825  -18.1623  -41.1697 H         1 UNK         0.0600 
    153 H153       -1.3305  -18.9975  -41.1191 H         1 UNK         0.0600 
    154 H154       -1.5738  -17.5791  -43.2280 H         1 UNK         0.3000 
    155 H155       -1.3371  -17.3417  -46.7830 H         1 UNK         0.0600 
    156 H156       -3.3413  -15.9949  -46.1562 H         1 UNK         0.0600 
    157 H157       -1.9063  -14.9852  -46.2473 H         1 UNK         0.0600 
    158 H158       -2.5484  -15.4683  -44.6778 H         1 UNK         0.0600 
    159 H159       -0.0982  -15.9134  -44.6307 H         1 UNK         0.3000 
    160 H160        2.8020  -17.9974  -44.3804 H         1 UNK         0.0600 
    161 H161        2.2551  -15.1446  -45.3742 H         1 UNK         0.0600 
    162 H162        3.1414  -16.3860  -46.2488 H         1 UNK         0.0600 
    163 H163        3.7893  -15.7416  -44.7470 H         1 UNK         0.0600 
    164 H164        1.8776  -15.6596  -42.9677 H         1 UNK         0.3000 
    165 H165        0.1810  -17.3797  -40.3429 H         1 UNK         0.0600 
    166 H166        1.8750  -16.3331  -38.8707 H         1 UNK         0.0600 
    167 H167        2.5689  -17.7285  -39.6805 H         1 UNK         0.0600 
    168 H168        2.9678  -16.1073  -40.2373 H         1 UNK         0.0600 
    169 H169        0.9766  -14.6754  -40.5590 H         1 UNK         0.3000 
    170 H170       -1.1594  -13.4544  -42.9870 H         1 UNK         0.0600 
    171 H171       -2.9266  -13.6924  -41.2307 H         1 UNK         0.0600 
    172 H172       -1.7881  -13.1508  -40.0032 H         1 UNK         0.0600 
    173 H173       -2.2946  -12.0558  -41.2909 H         1 UNK         0.0600 
    174 H174        0.1593  -11.9547  -41.0532 H         1 UNK         0.3000 
    175 H175        2.1043  -10.7848  -42.0089 H         1 UNK         0.0600 
    176 H176        3.5079  -13.0117  -40.3964 H         1 UNK         0.0600 
    177 H177        3.8228  -11.2869  -40.2236 H         1 UNK         0.0600 
    178 H178        2.2602  -11.9397  -39.7695 H         1 UNK         0.0600 
    179 H179        3.6111  -12.7363  -43.4370 H         1 UNK         0.3000 
    180 H180        6.5920  -11.0273  -43.8172 H         1 UNK         0.0600 
    181 H181        4.7759  -13.1929  -45.0176 H         1 UNK         0.0600 
    182 H182        5.8675  -13.4219  -43.6502 H         1 UNK         0.0600 
    183 H183        6.5130  -13.0362  -45.2343 H         1 UNK         0.0600 
    184 H184        4.5669  -10.9513  -45.9984 H         1 UNK         0.3000 
    185 H185        5.1183   -7.8593  -47.0202 H         1 UNK         0.0600 
    186 H186        7.4945   -8.0821  -47.6858 H         1 UNK         0.0600 
    187 H187        7.2006   -9.6969  -48.3196 H         1 UNK         0.0600 
    188 H188        6.4579   -8.2925  -49.0860 H         1 UNK         0.0600 
    189 H189        4.8657  -10.4808  -48.3849 H         1 UNK         0.3000 
    190 H190       -2.5995  -22.0208  -45.5985 H         1 UNK         0.3000 
    191 H191       -4.9141  -22.6230  -47.2769 H         1 UNK         0.0600 
    192 H192       -5.0814  -21.4546  -45.0359 H         1 UNK         0.0600 
    193 H193       -6.0938  -22.8861  -45.1698 H         1 UNK         0.0600 
    194 H194       -4.5981  -22.9624  -44.2551 H         1 UNK         0.0600 
    195 H195       -2.2740  -24.4188  -45.8551 H         1 UNK         0.3000 
    196 H196       -3.5313  -27.0429  -45.8873 H         1 UNK         0.0600 
    197 H197       -1.2547  -27.8089  -45.3088 H         1 UNK         0.0600 
    198 H198       -1.6390  -26.4040  -44.3298 H         1 UNK         0.0600 
    199 H199       -0.5717  -26.2442  -45.7238 H         1 UNK         0.0600 
    200 H200       -2.4187  -28.8031  -47.1599 H         1 UNK         0.3000 
    201 H201       -2.0658  -29.8900  -49.0612 H         1 UNK         0.0600 
    202 H202        0.1667  -28.7766  -48.8870 H         1 UNK         0.0600 
    203 H203       -0.4072  -27.4479  -49.8927 H         1 UNK         0.0600 
    204 H204       -0.2822  -29.0691  -50.5593 H         1 UNK         0.0600 
    205 H205       -4.5109  -28.8584  -48.9842 H         1 UNK         0.3000 
    206 H206       -6.3688  -28.3298  -50.0853 H         1 UNK         0.0600 
    207 H207       -5.7014  -30.2427  -51.5521 H         1 UNK         0.0600 
    208 H208       -6.6004  -29.0267  -52.4449 H         1 UNK         0.0600 
    209 H209       -4.8565  -29.1339  -52.6310 H         1 UNK         0.0600 
    210 H210       -5.0832  -26.1792  -49.2909 H         1 UNK         0.3000 
    211 H211       -4.7586  -24.0039  -49.4404 H         1 UNK         0.0600 
    212 H212       -6.7208  -24.0425  -51.7938 H         1 UNK         0.0600 
    213 H213       -6.2621  -22.6401  -50.8341 H         1 UNK         0.0600 
    214 H214       -7.1641  -23.9497  -50.0898 H         1 UNK         0.0600 
    215 H215       -2.6491  -25.1620  -50.1996 H         1 UNK         0.3000 
    216 H216       -0.7482  -25.1927  -51.3158 H         1 UNK         0.0600 
    217 H217        0.0902  -22.9976  -52.1628 H         1 UNK         0.0600 
    218 H218       -0.7162  -22.8281  -50.6140 H         1 UNK         0.0600 
    219 H219       -1.5377  -22.3355  -52.0916 H         1 UNK         0.0600 
    220 H220       -2.3461  -26.7411  -52.6061 H         1 UNK         0.3000 
    221 H221       -2.8413  -27.8312  -54.4397 H         1 UNK         0.0600 
    222 H222       -0.5498  -26.3063  -55.7890 H         1 UNK         0.0600 
    223 H223       -0.3788  -27.7744  -54.8276 H         1 UNK         0.0600 
    224 H224       -1.2678  -27.8122  -56.3417 H         1 UNK         0.0600 
    225 H225       -4.6473  -26.0376  -53.9516 H         1 UNK         0.3000 
    226 H226       -6.3973  -24.9668  -54.6695 H         1 UNK         0.0600 
    227 H227       -6.6087  -26.9252  -56.2067 H         1 UNK         0.0600 
    228 H228       -7.3211  -25.4741  -56.8901 H         1 UNK         0.0600 
    229 H229       -5.7578  -26.0326  -57.4676 H         1 UNK         0.0600 
    230 H230       -4.1505  -23.3557  -54.3457 H         1 UNK         0.3000 
    231 H231       -4.1795  -21.2656  -56.4024 H         1 UNK         0.0600 
    232 H232       -3.0755  -21.2340  -53.5432 H         1 UNK         0.0600 
    233 H233       -2.7565  -20.0487  -54.7999 H         1 UNK         0.0600 
    234 H234       -2.1540  -21.6907  -54.9750 H         1 UNK         0.0600 
    235 H235       -5.8806  -22.1215  -53.4748 H         1 UNK         0.3000 
    236 H236       -7.7233  -21.4426  -52.4493 H         1 UNK         0.0600 
    237 H237       -8.6974  -21.6359  -54.7463 H         1 UNK         0.0600 
    238 H238       -9.5364  -20.4443  -53.7680 H         1 UNK         0.0600 
    239 H239       -8.4107  -19.9167  -55.0108 H         1 UNK         0.0600 
    240 H240       -5.3464  -19.8870  -52.0126 H         1 UNK         0.3000 
    241 H241       -6.1112  -17.1234  -51.6609 H         1 UNK         0.0600 
    242 H242       -7.1766  -18.9768  -48.2257 H         1 UNK         0.3800 
    243 H243       -6.8262  -19.8869  -49.6705 H         1 UNK         0.3800 
    244 H244       -3.7198  -18.1477  -52.0930 H         1 UNK         0.0800 
    245 H245       -3.6722  -18.4011  -50.3750 H         1 UNK         0.0800 
    246 H246       -3.3194  -16.7437  -48.7082 H         1 UNK         0.0800 
    247 H247       -3.0651  -15.0346  -48.9114 H         1 UNK         0.0800 
@<TRIPOS>BOND
     1    1    2 1    
     2    1  127 1    
     3    1  128 1    
     4    1  129 1    
     5    2    3 2    
     6    2    4 am   BACKBONE|DICT|INTERRES
     7    4    5 1    
     8    4  130 1    
     9    5    6 1    
    10    5   65 1    
    11    5  131 1    
    12    6    7 1    
    13    6  132 1    
    14    6  133 1    
    15    7    8 1    
    16    8    9 1    
    17    8  134 1    
    18    8  135 1    
    19    9   10 ar   
    20    9   14 ar   
    21   10   11 ar   
    22   10  136 1    
    23   11   12 ar   
    24   11  126 1    
    25   12   13 ar   
    26   12  137 1    
    27   13   14 ar   
    28   13   15 1    
    29   14  138 1    
    30   15   16 1    
    31   15  139 1    
    32   15  140 1    
    33   16   17 1    
    34   17   18 1    
    35   17  141 1    
    36   17  142 1    
    37   18   19 1    
    38   18   67 1    
    39   18  143 1    
    40   19   20 am   BACKBONE|DICT|INTERRES
    41   19  144 1    
    42   20   21 2    
    43   20   22 1    
    44   22   23 1    
    45   22   24 1    
    46   22  145 1    
    47   23  146 1    
    48   23  147 1    
    49   23  148 1    
    50   24   25 am   BACKBONE|DICT|INTERRES
    51   24  149 1    
    52   25   26 2    
    53   25   27 1    
    54   27   28 1    
    55   27   29 1    
    56   27  150 1    
    57   28  151 1    
    58   28  152 1    
    59   28  153 1    
    60   29   30 am   BACKBONE|DICT|INTERRES
    61   29  154 1    
    62   30   31 2    
    63   30   32 1    
    64   32   33 1    
    65   32   34 1    
    66   32  155 1    
    67   33  156 1    
    68   33  157 1    
    69   33  158 1    
    70   34   35 am   BACKBONE|DICT|INTERRES
    71   34  159 1    
    72   35   36 2    
    73   35   37 1    
    74   37   38 1    
    75   37   39 1    
    76   37  160 1    
    77   38  161 1    
    78   38  162 1    
    79   38  163 1    
    80   39   40 am   BACKBONE|DICT|INTERRES
    81   39  164 1    
    82   40   41 2    
    83   40   42 1    
    84   42   43 1    
    85   42   44 1    
    86   42  165 1    
    87   43  166 1    
    88   43  167 1    
    89   43  168 1    
    90   44   45 am   BACKBONE|DICT|INTERRES
    91   44  169 1    
    92   45   46 2    
    93   45   47 1    
    94   47   48 1    
    95   47   49 1    
    96   47  170 1    
    97   48  171 1    
    98   48  172 1    
    99   48  173 1    
   100   49   50 am   BACKBONE|DICT|INTERRES
   101   49  174 1    
   102   50   51 2    
   103   50   52 1    
   104   52   53 1    
   105   52   54 1    
   106   52  175 1    
   107   53  176 1    
   108   53  177 1    
   109   53  178 1    
   110   54   55 am   BACKBONE|DICT|INTERRES
   111   54  179 1    
   112   55   56 2    
   113   55   57 1    
   114   57   58 1    
   115   57   59 1    
   116   57  180 1    
   117   58  181 1    
   118   58  182 1    
   119   58  183 1    
   120   59   60 am   BACKBONE|DICT|INTERRES
   121   59  184 1    
   122   60   61 2    
   123   60   62 1    
   124   62   63 1    
   125   62   64 1    
   126   62  185 1    
   127   63  186 1    
   128   63  187 1    
   129   63  188 1    
   130   64   65 am   BACKBONE|DICT|INTERRES
   131   64  189 1    
   132   65   66 2    
   133   67   68 2    
   134   67   69 am   BACKBONE|DICT|INTERRES
   135   69   70 1    
   136   69  190 1    
   137   70   71 1    
   138   70   72 1    
   139   70  191 1    
   140   71  192 1    
   141   71  193 1    
   142   71  194 1    
   143   72   73 2    
   144   72   74 am   BACKBONE|DICT|INTERRES
   145   74   75 1    
   146   74  195 1    
   147   75   76 1    
   148   75   77 1    
   149   75  196 1    
   150   76  197 1    
   151   76  198 1    
   152   76  199 1    
   153   77   78 2    
   154   77   79 am   BACKBONE|DICT|INTERRES
   155   79   80 1    
   156   79  200 1    
   157   80   81 1    
   158   80   82 1    
   159   80  201 1    
   160   81  202 1    
   161   81  203 1    
   162   81  204 1    
   163   82   83 2    
   164   82   84 am   BACKBONE|DICT|INTERRES
   165   84   85 1    
   166   84  205 1    
   167   85   86 1    
   168   85   87 1    
   169   85  206 1    
   170   86  207 1    
   171   86  208 1    
   172   86  209 1    
   173   87   88 2    
   174   87   89 am   BACKBONE|DICT|INTERRES
   175   89   90 1    
   176   89  210 1    
   177   90   91 1    
   178   90   92 1    
   179   90  211 1    
   180   91  212 1    
   181   91  213 1    
   182   91  214 1    
   183   92   93 2    
   184   92   94 am   BACKBONE|DICT|INTERRES
   185   94   95 1    
   186   94  215 1    
   187   95   96 1    
   188   95   97 1    
   189   95  216 1    
   190   96  217 1    
   191   96  218 1    
   192   96  219 1    
   193   97   98 2    
   194   97   99 am   BACKBONE|DICT|INTERRES
   195   99  100 1    
   196   99  220 1    
   197  100  101 1    
   198  100  102 1    
   199  100  221 1    
   200  101  222 1    
   201  101  223 1    
   202  101  224 1    
   203  102  103 2    
   204  102  104 am   BACKBONE|DICT|INTERRES
   205  104  105 1    
   206  104  225 1    
   207  105  106 1    
   208  105  107 1    
   209  105  226 1    
   210  106  227 1    
   211  106  228 1    
   212  106  229 1    
   213  107  108 2    
   214  107  109 am   BACKBONE|DICT|INTERRES
   215  109  110 1    
   216  109  230 1    
   217  110  111 1    
   218  110  112 1    
   219  110  231 1    
   220  111  232 1    
   221  111  233 1    
   222  111  234 1    
   223  112  113 2    
   224  112  114 am   BACKBONE|DICT|INTERRES
   225  114  115 1    
   226  114  235 1    
   227  115  116 1    
   228  115  117 1    
   229  115  236 1    
   230  116  237 1    
   231  116  238 1    
   232  116  239 1    
   233  117  118 2    
   234  117  119 am   BACKBONE|DICT|INTERRES
   235  119  120 1    
   236  119  240 1    
   237  120  121 1    
   238  120  124 1    
   239  120  241 1    
   240  121  122 am   BACKBONE|DICT|INTERRES
   241  121  123 2    
   242  122  242 1    
   243  122  243 1    
   244  124  125 1    
   245  124  244 1    
   246  124  245 1    
   247  125  126 1    
   248  126  246 1    
   249  126  247 1    
@<TRIPOS>SUBSTRUCTURE
     1 UNK         1 GROUP             0       ****    0 ROOT    
