@<TRIPOS>MOLECULE
3R540
247   249    1
SMALL
USER_CHARGES


@<TRIPOS>ATOM
      1 CA          0.9842  -12.5785  -47.1869 C.3       0 UNK        -0.1800 
      2 C           2.4730  -12.8733  -47.0861 C.2       0 UNK         0.5000 
      3 O           2.9182  -13.4225  -46.0803 O.2       0 UNK        -0.5000 
      4 N           3.2414  -12.5131  -48.1241 N.am      1 UNK        -0.5000 
      5 CA          4.6937  -12.7284  -48.2534 C.3       1 UNK         0.1400 
      6 C6          5.0969  -14.2242  -48.3644 C.3       23 UNK        -0.0398 
      7 S7          4.2549  -15.1003  -49.7283 S.3       23 UNK        -0.2404 
      8 C8          3.1290  -16.1570  -48.7730 C.3       23 UNK        -0.0205 
      9 C9          2.3845  -17.1441  -49.6506 C.ar      23 UNK        -0.0193 
     10 C10         1.2108  -16.7639  -50.3053 C.ar      23 UNK        -0.1150 
     11 C11         0.4895  -17.6932  -51.0605 C.ar      23 UNK        -0.0193 
     12 C12         0.9581  -19.0062  -51.1687 C.ar      23 UNK        -0.1150 
     13 C13         2.1267  -19.3974  -50.5088 C.ar      23 UNK        -0.0193 
     14 C14         2.8415  -18.4587  -49.7621 C.ar      23 UNK        -0.1150 
     15 C15         2.6056  -20.8393  -50.5659 C.3       23 UNK        -0.0205 
     16 S16         2.3305  -21.6927  -48.9801 S.3       23 UNK        -0.2404 
     17 C17         0.5113  -21.7634  -48.9396 C.3       23 UNK        -0.0398 
     18 CA          0.0026  -22.7243  -47.8409 C.3       11 UNK         0.1400 
     19 N           0.1217  -22.1660  -46.4894 N.am      11 UNK        -0.5000 
     20 C          -0.0823  -22.8720  -45.3671 C.2       10 UNK         0.5000 
     21 O          -0.3382  -24.0754  -45.3575 O.2       10 UNK        -0.5000 
     22 CA         -0.0594  -22.1025  -44.0349 C.3       10 UNK         0.1400 
     23 CB          1.3815  -21.8289  -43.5800 C.3       10 UNK        -0.1800 
     24 N          -0.8157  -20.8516  -44.0973 N.am      10 UNK        -0.5000 
     25 C          -2.1344  -20.7741  -44.3294 C.2       9 UNK         0.5000 
     26 O          -2.8630  -21.7573  -44.4553 O.2       9 UNK        -0.5000 
     27 CA         -2.7374  -19.3685  -44.5003 C.3       9 UNK         0.1400 
     28 CB         -3.0582  -18.7409  -43.1361 C.3       9 UNK        -0.1800 
     29 N          -1.8752  -18.4690  -45.2658 N.am      9 UNK        -0.5000 
     30 C          -1.4988  -18.6651  -46.5380 C.2       8 UNK         0.5000 
     31 O          -1.8649  -19.6218  -47.2211 O.2       8 UNK        -0.5000 
     32 CA         -0.4897  -17.6556  -47.1134 C.3       8 UNK         0.1400 
     33 CB         -1.1738  -16.3308  -47.4879 C.3       8 UNK        -0.1800 
     34 N           0.6040  -17.3911  -46.1774 N.am      8 UNK        -0.5000 
     35 C           1.5242  -18.2957  -45.8138 C.2       7 UNK         0.5000 
     36 O           1.5853  -19.4334  -46.2791 O.2       7 UNK        -0.5000 
     37 CA          2.5017  -17.8754  -44.6987 C.3       7 UNK         0.1400 
     38 CB          3.7131  -17.1208  -45.2620 C.3       7 UNK        -0.1800 
     39 N           1.8608  -17.0496  -43.6753 N.am      7 UNK        -0.5000 
     40 C           0.9710  -17.5148  -42.7891 C.2       6 UNK         0.5000 
     41 O           0.6003  -18.6867  -42.7441 O.2       6 UNK        -0.5000 
     42 CA          0.3690  -16.4899  -41.8132 C.3       6 UNK         0.1400 
     43 CB          1.3113  -16.2554  -40.6231 C.3       6 UNK        -0.1800 
     44 N           0.0542  -15.2040  -42.4377 N.am      6 UNK        -0.5000 
     45 C          -0.8346  -15.0189  -43.4236 C.2       5 UNK         0.5000 
     46 O          -1.4135  -15.9475  -43.9861 O.2       5 UNK        -0.5000 
     47 CA         -1.1094  -13.5729  -43.8901 C.3       5 UNK         0.1400 
     48 CB         -2.6195  -13.2702  -43.9494 C.3       5 UNK        -0.1800 
     49 N          -0.3902  -12.5329  -43.1417 N.am      5 UNK        -0.5000 
     50 C          -0.5209  -12.1692  -41.8578 C.2       4 UNK         0.5000 
     51 O          -1.3253  -12.6830  -41.0797 O.2       4 UNK        -0.5000 
     52 CA          0.4666  -11.0884  -41.3588 C.3       4 UNK         0.1400 
     53 CB          0.3158  -10.7946  -39.8551 C.3       4 UNK        -0.1800 
     54 N           1.8637  -11.4504  -41.6284 N.am      4 UNK        -0.5000 
     55 C           2.4667  -11.3750  -42.8211 C.2       3 UNK         0.5000 
     56 O           1.8958  -10.9716  -43.8392 O.2       3 UNK        -0.5000 
     57 CA          3.9167  -11.8846  -42.8944 C.3       3 UNK         0.1400 
     58 CB          3.9566  -13.4207  -42.8116 C.3       3 UNK        -0.1800 
     59 N           4.5181  -11.4592  -44.1565 N.am      3 UNK        -0.5000 
     60 C           5.1988  -10.3180  -44.3265 C.2       2 UNK         0.5000 
     61 O           5.5397   -9.5932  -43.3899 O.2       2 UNK        -0.5000 
     62 CA          5.5140   -9.8655  -45.7700 C.3       2 UNK         0.1400 
     63 CB          7.0059   -9.5191  -45.9594 C.3       2 UNK        -0.1800 
     64 N           5.0277  -10.7708  -46.8205 N.am      2 UNK        -0.5000 
     65 C           5.4891  -11.9863  -47.1521 C.2       1 UNK         0.5000 
     66 O           6.4589  -12.5229  -46.6145 O.2       1 UNK        -0.5000 
     67 C          -1.4317  -23.1927  -48.1515 C.2       11 UNK         0.5000 
     68 O          -1.5940  -24.2462  -48.7680 O.2       11 UNK        -0.5000 
     69 N          -2.4471  -22.4328  -47.7204 N.am      12 UNK        -0.5000 
     70 CA         -3.8552  -22.8025  -47.8684 C.3       12 UNK         0.1400 
     71 CB         -4.7528  -21.6089  -47.5133 C.3       12 UNK        -0.1800 
     72 C          -4.2209  -24.0556  -47.0515 C.2       12 UNK         0.5000 
     73 O          -4.8638  -24.9575  -47.5876 O.2       12 UNK        -0.5000 
     74 N          -3.7560  -24.1198  -45.7958 N.am      13 UNK        -0.5000 
     75 CA         -3.9244  -25.2650  -44.8970 C.3       13 UNK         0.1400 
     76 CB         -3.4350  -24.8876  -43.4907 C.3       13 UNK        -0.1800 
     77 C          -3.2135  -26.5377  -45.3965 C.2       13 UNK         0.5000 
     78 O          -3.7626  -27.6321  -45.2654 O.2       13 UNK        -0.5000 
     79 N          -2.0230  -26.3695  -45.9877 N.am      14 UNK        -0.5000 
     80 CA         -1.2359  -27.4352  -46.6130 C.3       14 UNK         0.1400 
     81 CB          0.2151  -26.9507  -46.7644 C.3       14 UNK        -0.1800 
     82 C          -1.7850  -27.8946  -47.9799 C.2       14 UNK         0.5000 
     83 O          -1.3122  -28.9050  -48.5018 O.2       14 UNK        -0.5000 
     84 N          -2.7385  -27.1386  -48.5457 N.am      15 UNK        -0.5000 
     85 CA         -3.3266  -27.2899  -49.8814 C.3       15 UNK         0.1400 
     86 CB         -4.0898  -28.6242  -50.0130 C.3       15 UNK        -0.1800 
     87 C          -2.3135  -27.0513  -51.0234 C.2       15 UNK         0.5000 
     88 O          -2.4896  -27.5703  -52.1270 O.2       15 UNK        -0.5000 
     89 N          -1.2827  -26.2423  -50.7432 N.am      16 UNK        -0.5000 
     90 CA         -0.3719  -25.6715  -51.7346 C.3       16 UNK         0.1400 
     91 CB          0.9475  -25.2853  -51.0477 C.3       16 UNK        -0.1800 
     92 C          -1.0140  -24.4495  -52.4182 C.2       16 UNK         0.5000 
     93 O          -0.7738  -24.2182  -53.6036 O.2       16 UNK        -0.5000 
     94 N          -1.8423  -23.7201  -51.6592 N.am      17 UNK        -0.5000 
     95 CA         -2.7648  -22.6999  -52.1434 C.3       17 UNK         0.1400 
     96 CB         -2.5111  -21.3787  -51.3914 C.3       17 UNK        -0.1800 
     97 C          -4.2034  -23.2396  -52.0067 C.2       17 UNK         0.5000 
     98 O          -4.4379  -24.4025  -52.3417 O.2       17 UNK        -0.5000 
     99 N          -5.1309  -22.3964  -51.5262 N.am      18 UNK        -0.5000 
    100 CA        -6.5813  -22.6179  -51.4397 C.3       18 UNK         0.1400 
    101 CB        -6.9141  -23.8534  -50.5745 C.3       18 UNK        -0.1800 
    102 C         -7.2657  -22.6591  -52.8246 C.2       18 UNK         0.5000 
    103 O         -6.6061  -22.4976  -53.8549 O.2       18 UNK        -0.5000 
    104 N         -8.5954  -22.8328  -52.8208 N.am      19 UNK        -0.5000 
    105 CA        -9.4843  -22.8348  -53.9878 C.3       19 UNK         0.1400 
    106 CB        -9.2424  -24.0898  -54.8577 C.3       19 UNK        -0.1800 
    107 C         -9.4022  -21.5024  -54.7638 C.2       19 UNK         0.5000 
    108 O         -9.9190  -20.4951  -54.2784 O.2       19 UNK        -0.5000 
    109 N         -8.7557  -21.5146  -55.9365 N.am      20 UNK        -0.5000 
    110 CA        -8.5149  -20.3363  -56.7705 C.3       20 UNK         0.1400 
    111 CB        -8.2265  -20.8002  -58.2071 C.3       20 UNK        -0.1800 
    112 C         -7.3684  -19.4424  -56.2538 C.2       20 UNK         0.5000 
    113 O         -7.3214  -18.2646  -56.6134 O.2       20 UNK        -0.5000 
    114 N         -6.4624  -20.0050  -55.4424 N.am      21 UNK        -0.5000 
    115 CA        -5.3506  -19.2952  -54.8102 C.3       21 UNK         0.1400 
    116 CB        -4.1564  -20.2581  -54.6960 C.3       21 UNK        -0.1800 
    117 C         -5.7646  -18.7162  -53.4413 C.2       21 UNK         0.5000 
    118 O         -6.9294  -18.8156  -53.0499 O.2       21 UNK        -0.5000 
    119 N         -4.7932  -18.1204  -52.7385 N.am      22 UNK        -0.5000 
    120 CA        -4.8976  -17.3670  -51.4701 C.3       22 UNK         0.1400 
    121 C         -5.5313  -18.0770  -50.2258 C.2       22 UNK         0.5000 
    122 N         -6.2663  -19.1663  -50.3820 N.am      22 UNK        -0.7600 
    123 O         -5.3801  -17.6152  -49.0981 O.2       22 UNK        -0.5000 
    124 C124       -3.5429  -16.6847  -51.1386 C.3       23 UNK        -0.0398 
    125 S125       -2.2186  -17.8683  -50.7080 S.3       23 UNK        -0.2404 
    126 C126       -0.8210  -17.2896  -51.7146 C.3       23 UNK        -0.0205 
    127 H127        0.7297  -12.0906  -48.1280 H         1 UNK         0.0600 
    128 H128        0.6772  -11.9250  -46.3703 H         1 UNK         0.0600 
    129 H129        0.4152  -13.5052  -47.1200 H         1 UNK         0.0600 
    130 H130        2.8050  -12.0720  -48.9217 H         1 UNK         0.3000 
    131 H131        4.9823  -12.2487  -49.1899 H         1 UNK         0.0600 
    132 H132        6.1692  -14.3106  -48.5479 H         1 UNK         0.0800 
    133 H133        4.9158  -14.7398  -47.4199 H         1 UNK         0.0800 
    134 H134        3.7109  -16.7039  -48.0336 H         1 UNK         0.0800 
    135 H135        2.4165  -15.5446  -48.2203 H         1 UNK         0.0800 
    136 H136        0.8472  -15.7510  -50.2048 H         1 UNK         0.1150 
    137 H137        0.3957  -19.7282  -51.7422 H         1 UNK         0.1150 
    138 H138        3.7379  -18.7640  -49.2405 H         1 UNK         0.1150 
    139 H139        2.1092  -21.3862  -51.3691 H         1 UNK         0.0800 
    140 H140        3.6716  -20.8555  -50.7966 H         1 UNK         0.0800 
    141 H141        0.1804  -22.0886  -49.9276 H         1 UNK         0.0800 
    142 H142        0.1110  -20.7582  -48.7956 H         1 UNK         0.0800 
    143 H143        0.6225  -23.6231  -47.8693 H         1 UNK         0.0600 
    144 H144        0.3648  -21.1835  -46.4207 H         1 UNK         0.3000 
    145 H145       -0.5335  -22.7349  -43.2815 H         1 UNK         0.0600 
    146 H146        1.4016  -21.3572  -42.5975 H         1 UNK         0.0600 
    147 H147        1.9094  -21.1770  -44.2753 H         1 UNK         0.0600 
    148 H148        1.9492  -22.7572  -43.5061 H         1 UNK         0.0600 
    149 H149       -0.2959  -19.9955  -43.9320 H         1 UNK         0.3000 
    150 H150       -3.6728  -19.4744  -45.0530 H         1 UNK         0.0600 
    151 H151       -3.5507  -17.7753  -43.2526 H         1 UNK         0.0600 
    152 H152       -2.1576  -18.5865  -42.5418 H         1 UNK         0.0600 
    153 H153       -3.7273  -19.3809  -42.5596 H         1 UNK         0.0600 
    154 H154       -1.5593  -17.6296  -44.7859 H         1 UNK         0.3000 
    155 H155       -0.0687  -18.0931  -48.0211 H         1 UNK         0.0600 
    156 H156       -2.0362  -16.5040  -48.1314 H         1 UNK         0.0600 
    157 H157       -0.4913  -15.6762  -48.0287 H         1 UNK         0.0600 
    158 H158       -1.5323  -15.7921  -46.6116 H         1 UNK         0.0600 
    159 H159        0.5919  -16.5010  -45.7042 H         1 UNK         0.3000 
    160 H160        2.8680  -18.7870  -44.2216 H         1 UNK         0.0600 
    161 H161        3.4206  -16.1800  -45.7292 H         1 UNK         0.0600 
    162 H162        4.2341  -17.7235  -46.0065 H         1 UNK         0.0600 
    163 H163        4.4321  -16.8900  -44.4757 H         1 UNK         0.0600 
    164 H164        2.1051  -16.0710  -43.6522 H         1 UNK         0.3000 
    165 H165       -0.5645  -16.9082  -41.4312 H         1 UNK         0.0600 
    166 H166        0.8560  -15.5960  -39.8838 H         1 UNK         0.0600 
    167 H167        1.5445  -17.1945  -40.1194 H         1 UNK         0.0600 
    168 H168        2.2551  -15.8078  -40.9365 H         1 UNK         0.0600 
    169 H169        0.4697  -14.3843  -42.0227 H         1 UNK         0.3000 
    170 H170       -0.7282  -13.5187  -44.9097 H         1 UNK         0.0600 
    171 H171       -3.0929  -13.3694  -42.9723 H         1 UNK         0.0600 
    172 H172       -2.8053  -12.2596  -44.3127 H         1 UNK         0.0600 
    173 H173       -3.1295  -13.9558  -44.6274 H         1 UNK         0.0600 
    174 H174        0.3331  -12.0446  -43.6648 H         1 UNK         0.3000 
    175 H175        0.2320  -10.1688  -41.8991 H         1 UNK         0.0600 
    176 H176        0.5354  -11.6739  -39.2482 H         1 UNK         0.0600 
    177 H177        0.9859   -9.9942  -39.5409 H         1 UNK         0.0600 
    178 H178       -0.6999  -10.4755  -39.6178 H         1 UNK         0.0600 
    179 H179        2.3846  -11.8135  -40.8429 H         1 UNK         0.3000 
    180 H180        4.4769  -11.4753  -42.0512 H         1 UNK         0.0600 
    181 H181        4.9698  -13.7969  -42.9549 H         1 UNK         0.0600 
    182 H182        3.3192  -13.8872  -43.5623 H         1 UNK         0.0600 
    183 H183        3.6183  -13.7696  -41.8356 H         1 UNK         0.0600 
    184 H184        4.2183  -11.9738  -44.9753 H         1 UNK         0.3000 
    185 H185        4.9529   -8.9405  -45.9101 H         1 UNK         0.0600 
    186 H186        7.2102   -9.1928  -46.9790 H         1 UNK         0.0600 
    187 H187        7.3038   -8.7072  -45.2950 H         1 UNK         0.0600 
    188 H188        7.6540  -10.3675  -45.7398 H         1 UNK         0.0600 
    189 H189        4.2046  -10.4475  -47.3101 H         1 UNK         0.3000 
    190 H190       -2.2452  -21.5386  -47.2810 H         1 UNK         0.3000 
    191 H191       -4.0252  -23.0422  -48.9190 H         1 UNK         0.0600 
    192 H192       -4.5188  -20.7425  -48.1331 H         1 UNK         0.0600 
    193 H193       -4.6394  -21.3137  -46.4706 H         1 UNK         0.0600 
    194 H194       -5.8037  -21.8512  -47.6747 H         1 UNK         0.0600 
    195 H195       -3.2676  -23.3128  -45.4135 H         1 UNK         0.3000 
    196 H196       -4.9921  -25.4853  -44.8373 H         1 UNK         0.0600 
    197 H197       -3.9925  -24.0388  -43.0945 H         1 UNK         0.0600 
    198 H198       -2.3776  -24.6213  -43.4912 H         1 UNK         0.0600 
    199 H199       -3.5659  -25.7169  -42.7946 H         1 UNK         0.0600 
    200 H200       -1.6034  -25.4441  -45.9817 H         1 UNK         0.3000 
    201 H201       -1.2393  -28.3031  -45.9505 H         1 UNK         0.0600 
    202 H202        0.6429  -26.6778  -45.7996 H         1 UNK         0.0600 
    203 H203        0.2803  -26.0806  -47.4186 H         1 UNK         0.0600 
    204 H204        0.8488  -27.7296  -47.1902 H         1 UNK         0.0600 
    205 H205       -3.0539  -26.3265  -48.0305 H         1 UNK         0.3000 
    206 H206       -4.0608  -26.4876  -49.9705 H         1 UNK         0.0600 
    207 H207       -3.4152  -29.4804  -50.0232 H         1 UNK         0.0600 
    208 H208       -4.7925  -28.7583  -49.1907 H         1 UNK         0.0600 
    209 H209       -4.6659  -28.6534  -50.9385 H         1 UNK         0.0600 
    210 H210       -1.2566  -25.8210  -49.8198 H         1 UNK         0.3000 
    211 H211       -0.1560  -26.4191  -52.5007 H         1 UNK         0.0600 
    212 H212        0.7961  -24.5409  -50.2665 H         1 UNK         0.0600 
    213 H213        1.6534  -24.8671  -51.7663 H         1 UNK         0.0600 
    214 H214        1.4223  -26.1545  -50.5922 H         1 UNK         0.0600 
    215 H215       -1.9758  -24.0160  -50.6987 H         1 UNK         0.3000 
    216 H216       -2.5993  -22.5173  -53.2066 H         1 UNK         0.0600 
    217 H217       -3.1210  -20.5697  -51.7934 H         1 UNK         0.0600 
    218 H218       -2.7256  -21.4573  -50.3267 H         1 UNK         0.0600 
    219 H219       -1.4728  -21.0686  -51.4949 H         1 UNK         0.0600 
    220 H220       -4.8304  -21.4634  -51.2832 H         1 UNK         0.3000 
    221 H221       -6.9860  -21.7462  -50.9268 H         1 UNK         0.0600 
    222 H222       -6.6772  -24.7877  -51.0837 H         1 UNK         0.0600 
    223 H223       -6.3635  -23.8361  -49.6347 H         1 UNK         0.0600 
    224 H224       -7.9736  -23.8852  -50.3199 H         1 UNK         0.0600 
    225 H225       -9.0626  -22.9157  -51.9291 H         1 UNK         0.3000 
    226 H226      -10.5029  -22.8990  -53.6022 H         1 UNK         0.0600 
    227 H227       -9.4221  -24.9982  -54.2827 H         1 UNK         0.0600 
    228 H228       -9.9215  -24.1121  -55.7110 H         1 UNK         0.0600 
    229 H229       -8.2235  -24.1441  -55.2421 H         1 UNK         0.0600 
    230 H230       -8.3386  -22.3811  -56.2444 H         1 UNK         0.3000 
    231 H231       -9.4224  -19.7289  -56.7866 H         1 UNK         0.0600 
    232 H232       -8.0723  -19.9476  -58.8698 H         1 UNK         0.0600 
    233 H233       -9.0591  -21.3769  -58.6104 H         1 UNK         0.0600 
    234 H234       -7.3310  -21.4210  -58.2572 H         1 UNK         0.0600 
    235 H235       -6.6153  -20.9565  -55.1223 H         1 UNK         0.3000 
    236 H236       -5.0467  -18.4572  -55.4407 H         1 UNK         0.0600 
    237 H237       -4.3846  -21.0944  -54.0396 H         1 UNK         0.0600 
    238 H238       -3.8895  -20.6673  -55.6705 H         1 UNK         0.0600 
    239 H239       -3.2680  -19.7608  -54.3058 H         1 UNK         0.0600 
    240 H240       -3.8635  -18.1338  -53.1298 H         1 UNK         0.3000 
    241 H241       -5.5986  -16.5584  -51.6828 H         1 UNK         0.0600 
    242 H242       -6.7046  -19.5821  -49.5770 H         1 UNK         0.3800 
    243 H243       -6.5807  -19.3812  -51.3230 H         1 UNK         0.3800 
    244 H244       -3.2277  -16.0740  -51.9855 H         1 UNK         0.0800 
    245 H245       -3.6580  -15.9863  -50.3080 H         1 UNK         0.0800 
    246 H246       -0.8902  -17.7119  -52.7180 H         1 UNK         0.0800 
    247 H247       -0.8629  -16.2050  -51.8254 H         1 UNK         0.0800 
@<TRIPOS>BOND
     1    1    2 1    
     2    1  127 1    
     3    1  128 1    
     4    1  129 1    
     5    2    3 2    
     6    2    4 am   BACKBONE|DICT|INTERRES
     7    4    5 1    
     8    4  130 1    
     9    5    6 1    
    10    5   65 1    
    11    5  131 1    
    12    6    7 1    
    13    6  132 1    
    14    6  133 1    
    15    7    8 1    
    16    8    9 1    
    17    8  134 1    
    18    8  135 1    
    19    9   10 ar   
    20    9   14 ar   
    21   10   11 ar   
    22   10  136 1    
    23   11   12 ar   
    24   11  126 1    
    25   12   13 ar   
    26   12  137 1    
    27   13   14 ar   
    28   13   15 1    
    29   14  138 1    
    30   15   16 1    
    31   15  139 1    
    32   15  140 1    
    33   16   17 1    
    34   17   18 1    
    35   17  141 1    
    36   17  142 1    
    37   18   19 1    
    38   18   67 1    
    39   18  143 1    
    40   19   20 am   BACKBONE|DICT|INTERRES
    41   19  144 1    
    42   20   21 2    
    43   20   22 1    
    44   22   23 1    
    45   22   24 1    
    46   22  145 1    
    47   23  146 1    
    48   23  147 1    
    49   23  148 1    
    50   24   25 am   BACKBONE|DICT|INTERRES
    51   24  149 1    
    52   25   26 2    
    53   25   27 1    
    54   27   28 1    
    55   27   29 1    
    56   27  150 1    
    57   28  151 1    
    58   28  152 1    
    59   28  153 1    
    60   29   30 am   BACKBONE|DICT|INTERRES
    61   29  154 1    
    62   30   31 2    
    63   30   32 1    
    64   32   33 1    
    65   32   34 1    
    66   32  155 1    
    67   33  156 1    
    68   33  157 1    
    69   33  158 1    
    70   34   35 am   BACKBONE|DICT|INTERRES
    71   34  159 1    
    72   35   36 2    
    73   35   37 1    
    74   37   38 1    
    75   37   39 1    
    76   37  160 1    
    77   38  161 1    
    78   38  162 1    
    79   38  163 1    
    80   39   40 am   BACKBONE|DICT|INTERRES
    81   39  164 1    
    82   40   41 2    
    83   40   42 1    
    84   42   43 1    
    85   42   44 1    
    86   42  165 1    
    87   43  166 1    
    88   43  167 1    
    89   43  168 1    
    90   44   45 am   BACKBONE|DICT|INTERRES
    91   44  169 1    
    92   45   46 2    
    93   45   47 1    
    94   47   48 1    
    95   47   49 1    
    96   47  170 1    
    97   48  171 1    
    98   48  172 1    
    99   48  173 1    
   100   49   50 am   BACKBONE|DICT|INTERRES
   101   49  174 1    
   102   50   51 2    
   103   50   52 1    
   104   52   53 1    
   105   52   54 1    
   106   52  175 1    
   107   53  176 1    
   108   53  177 1    
   109   53  178 1    
   110   54   55 am   BACKBONE|DICT|INTERRES
   111   54  179 1    
   112   55   56 2    
   113   55   57 1    
   114   57   58 1    
   115   57   59 1    
   116   57  180 1    
   117   58  181 1    
   118   58  182 1    
   119   58  183 1    
   120   59   60 am   BACKBONE|DICT|INTERRES
   121   59  184 1    
   122   60   61 2    
   123   60   62 1    
   124   62   63 1    
   125   62   64 1    
   126   62  185 1    
   127   63  186 1    
   128   63  187 1    
   129   63  188 1    
   130   64   65 am   BACKBONE|DICT|INTERRES
   131   64  189 1    
   132   65   66 2    
   133   67   68 2    
   134   67   69 am   BACKBONE|DICT|INTERRES
   135   69   70 1    
   136   69  190 1    
   137   70   71 1    
   138   70   72 1    
   139   70  191 1    
   140   71  192 1    
   141   71  193 1    
   142   71  194 1    
   143   72   73 2    
   144   72   74 am   BACKBONE|DICT|INTERRES
   145   74   75 1    
   146   74  195 1    
   147   75   76 1    
   148   75   77 1    
   149   75  196 1    
   150   76  197 1    
   151   76  198 1    
   152   76  199 1    
   153   77   78 2    
   154   77   79 am   BACKBONE|DICT|INTERRES
   155   79   80 1    
   156   79  200 1    
   157   80   81 1    
   158   80   82 1    
   159   80  201 1    
   160   81  202 1    
   161   81  203 1    
   162   81  204 1    
   163   82   83 2    
   164   82   84 am   BACKBONE|DICT|INTERRES
   165   84   85 1    
   166   84  205 1    
   167   85   86 1    
   168   85   87 1    
   169   85  206 1    
   170   86  207 1    
   171   86  208 1    
   172   86  209 1    
   173   87   88 2    
   174   87   89 am   BACKBONE|DICT|INTERRES
   175   89   90 1    
   176   89  210 1    
   177   90   91 1    
   178   90   92 1    
   179   90  211 1    
   180   91  212 1    
   181   91  213 1    
   182   91  214 1    
   183   92   93 2    
   184   92   94 am   BACKBONE|DICT|INTERRES
   185   94   95 1    
   186   94  215 1    
   187   95   96 1    
   188   95   97 1    
   189   95  216 1    
   190   96  217 1    
   191   96  218 1    
   192   96  219 1    
   193   97   98 2    
   194   97   99 am   BACKBONE|DICT|INTERRES
   195   99  100 1    
   196   99  220 1    
   197  100  101 1    
   198  100  102 1    
   199  100  221 1    
   200  101  222 1    
   201  101  223 1    
   202  101  224 1    
   203  102  103 2    
   204  102  104 am   BACKBONE|DICT|INTERRES
   205  104  105 1    
   206  104  225 1    
   207  105  106 1    
   208  105  107 1    
   209  105  226 1    
   210  106  227 1    
   211  106  228 1    
   212  106  229 1    
   213  107  108 2    
   214  107  109 am   BACKBONE|DICT|INTERRES
   215  109  110 1    
   216  109  230 1    
   217  110  111 1    
   218  110  112 1    
   219  110  231 1    
   220  111  232 1    
   221  111  233 1    
   222  111  234 1    
   223  112  113 2    
   224  112  114 am   BACKBONE|DICT|INTERRES
   225  114  115 1    
   226  114  235 1    
   227  115  116 1    
   228  115  117 1    
   229  115  236 1    
   230  116  237 1    
   231  116  238 1    
   232  116  239 1    
   233  117  118 2    
   234  117  119 am   BACKBONE|DICT|INTERRES
   235  119  120 1    
   236  119  240 1    
   237  120  121 1    
   238  120  124 1    
   239  120  241 1    
   240  121  122 am   BACKBONE|DICT|INTERRES
   241  121  123 2    
   242  122  242 1    
   243  122  243 1    
   244  124  125 1    
   245  124  244 1    
   246  124  245 1    
   247  125  126 1    
   248  126  246 1    
   249  126  247 1    
@<TRIPOS>SUBSTRUCTURE
     1 UNK         1 GROUP             0       ****    0 ROOT    
