@<TRIPOS>MOLECULE
3R540
247   249    1
SMALL
USER_CHARGES


@<TRIPOS>ATOM
      1 CA          0.0249   -9.2641  -45.8082 C.3       0 UNK        -0.1800 
      2 C          -0.0747  -10.4549  -46.7500 C.2       0 UNK         0.5000 
      3 O           0.9484  -11.0071  -47.1504 O.2       0 UNK        -0.5000 
      4 N          -1.3020  -10.8662  -47.0923 N.am      1 UNK        -0.5000 
      5 CA         -1.6170  -11.9867  -47.9925 C.3       1 UNK         0.1400 
      6 C6         -3.1296  -12.0463  -48.3219 C.3       23 UNK        -0.0398 
      7 S7         -4.1977  -12.0972  -46.8373 S.3       23 UNK        -0.2404 
      8 C8         -5.6987  -12.9031  -47.4846 C.3       23 UNK        -0.0205 
      9 C9         -5.4739  -14.3366  -47.9541 C.ar      23 UNK        -0.0193 
     10 C10        -6.0059  -14.7566  -49.1772 C.ar      23 UNK        -0.1150 
     11 C11        -5.8416  -16.0758  -49.6091 C.ar      23 UNK        -0.0193 
     12 C12        -5.1369  -16.9792  -48.8101 C.ar      23 UNK        -0.1150 
     13 C13        -4.5832  -16.5678  -47.5964 C.ar      23 UNK        -0.0193 
     14 C14        -4.7640  -15.2503  -47.1672 C.ar      23 UNK        -0.1150 
     15 C15        -3.7926  -17.5486  -46.7512 C.3       23 UNK        -0.0205 
     16 S16        -2.1484  -17.8599  -47.4687 S.3       23 UNK        -0.2404 
     17 C17        -1.3767  -18.7733  -46.0972 C.3       23 UNK        -0.0398 
     18 CA         -1.2883  -20.3064  -46.2968 C.3       11 UNK         0.1400 
     19 N          -0.4774  -20.9024  -45.2339 N.am      11 UNK        -0.5000 
     20 C          -0.1281  -22.1900  -45.1370 C.2       10 UNK         0.5000 
     21 O          -0.4060  -23.0412  -45.9765 O.2       10 UNK        -0.5000 
     22 CA          0.6100  -22.6078  -43.8547 C.3       10 UNK         0.1400 
     23 CB          2.1120  -22.3032  -43.9595 C.3       10 UNK        -0.1800 
     24 N           0.0469  -21.9633  -42.6673 N.am      10 UNK        -0.5000 
     25 C          -1.1842  -22.2062  -42.1932 C.2       9 UNK         0.5000 
     26 O          -1.9588  -23.0218  -42.6918 O.2       9 UNK        -0.5000 
     27 CA         -1.6435  -21.3580  -40.9943 C.3       9 UNK         0.1400 
     28 CB         -1.0577  -21.9047  -39.6841 C.3       9 UNK        -0.1800 
     29 N          -1.2797  -19.9485  -41.1422 N.am      9 UNK        -0.5000 
     30 C          -1.7818  -19.1332  -42.0806 C.2       8 UNK         0.5000 
     31 O          -2.6444  -19.4720  -42.8902 O.2       8 UNK        -0.5000 
     32 CA         -1.1728  -17.7206  -42.1664 C.3       8 UNK         0.1400 
     33 CB         -1.8910  -16.7623  -41.2054 C.3       8 UNK        -0.1800 
     34 N           0.2691  -17.6957  -41.8968 N.am      8 UNK        -0.5000 
     35 C           1.1871  -18.3461  -42.6240 C.2       7 UNK         0.5000 
     36 O           0.9137  -19.0273  -43.6162 O.2       7 UNK        -0.5000 
     37 CA          2.6357  -18.2817  -42.1222 C.3       7 UNK         0.1400 
     38 CB          2.7899  -19.0974  -40.8223 C.3       7 UNK        -0.1800 
     39 N           3.5021  -18.8255  -43.1612 N.am      7 UNK        -0.5000 
     40 C           4.8351  -18.7399  -43.2184 C.2       6 UNK         0.5000 
     41 O           5.5195  -18.1539  -42.3784 O.2       6 UNK        -0.5000 
     42 CA          5.5304  -19.4354  -44.4079 C.3       6 UNK         0.1400 
     43 CB          6.0548  -20.8157  -43.9817 C.3       6 UNK        -0.1800 
     44 N           4.6782  -19.6018  -45.5901 N.am      6 UNK        -0.5000 
     45 C           4.2353  -18.5955  -46.3550 C.2       5 UNK         0.5000 
     46 O           4.5083  -17.4126  -46.1379 O.2       5 UNK        -0.5000 
     47 CA          3.3596  -18.9848  -47.5618 C.3       5 UNK         0.1400 
     48 CB          2.1947  -19.9024  -47.1571 C.3       5 UNK        -0.1800 
     49 N           2.8161  -17.7740  -48.1673 N.am      5 UNK        -0.5000 
     50 C           2.8721  -17.4513  -49.4657 C.2       4 UNK         0.5000 
     51 O           3.2712  -18.2178  -50.3431 O.2       4 UNK        -0.5000 
     52 CA          2.4262  -16.0250  -49.8596 C.3       4 UNK         0.1400 
     53 CB          1.0310  -16.0535  -50.4973 C.3       4 UNK        -0.1800 
     54 N           2.4044  -15.0956  -48.7295 N.am      4 UNK        -0.5000 
     55 C           3.4873  -14.6730  -48.0602 C.2       3 UNK         0.5000 
     56 O           4.6392  -14.8725  -48.4483 O.2       3 UNK        -0.5000 
     57 CA          3.2581  -13.9294  -46.7267 C.3       3 UNK         0.1400 
     58 CB          3.8270  -12.5033  -46.7909 C.3       3 UNK        -0.1800 
     59 N           1.8535  -13.8736  -46.3053 N.am      3 UNK        -0.5000 
     60 C           1.1334  -14.9212  -45.8708 C.2       2 UNK         0.5000 
     61 O           1.5844  -16.0625  -45.7782 O.2       2 UNK        -0.5000 
     62 CA         -0.3461  -14.6702  -45.5139 C.3       2 UNK         0.1400 
     63 CB         -0.5045  -14.5025  -43.9960 C.3       2 UNK        -0.1800 
     64 N          -0.9338  -13.5056  -46.1780 N.am      2 UNK        -0.5000 
     65 C          -1.0789  -13.3518  -47.5024 C.2       1 UNK         0.5000 
     66 O          -0.7547  -14.2080  -48.3251 O.2       1 UNK        -0.5000 
     67 C          -2.6783  -20.9776  -46.3941 C.2       11 UNK         0.5000 
     68 O          -3.0977  -21.3774  -47.4835 O.2       11 UNK        -0.5000 
     69 N          -3.3508  -21.1021  -45.2422 N.am      12 UNK        -0.5000 
     70 CA         -4.6908  -21.6654  -45.1241 C.3       12 UNK         0.1400 
     71 CB         -5.2822  -21.2786  -43.7599 C.3       12 UNK        -0.1800 
     72 C          -4.7443  -23.1903  -45.3213 C.2       12 UNK         0.5000 
     73 O          -5.6360  -23.6642  -46.0252 O.2       12 UNK        -0.5000 
     74 N          -3.8334  -23.9319  -44.6753 N.am      13 UNK        -0.5000 
     75 CA         -3.8920  -25.3924  -44.5982 C.3       13 UNK         0.1400 
     76 CB         -3.5623  -25.8485  -43.1664 C.3       13 UNK        -0.1800 
     77 C          -2.9691  -26.0777  -45.6161 C.2       13 UNK         0.5000 
     78 O          -3.4511  -26.8649  -46.4303 O.2       13 UNK        -0.5000 
     79 N          -1.6600  -25.8040  -45.5318 N.am      14 UNK        -0.5000 
     80 CA         -0.6232  -26.5175  -46.2843 C.3       14 UNK         0.1400 
     81 CB          0.7491  -26.2857  -45.6309 C.3       14 UNK        -0.1800 
     82 C          -0.6006  -26.1387  -47.7740 C.2       14 UNK         0.5000 
     83 O          -0.5794  -27.0231  -48.6308 O.2       14 UNK        -0.5000 
     84 N          -0.6292  -24.8300  -48.0513 N.am      15 UNK        -0.5000 
     85 CA         -0.7268  -24.2634  -49.3959 C.3       15 UNK         0.1400 
     86 CB         -0.2408  -22.8063  -49.3615 C.3       15 UNK        -0.1800 
     87 C          -2.1583  -24.3378  -49.9572 C.2       15 UNK         0.5000 
     88 O          -2.3336  -24.2876  -51.1765 O.2       15 UNK        -0.5000 
     89 N          -3.1441  -24.4450  -49.0517 N.am      16 UNK        -0.5000 
     90 CA         -4.5796  -24.6122  -49.2973 C.3       16 UNK         0.1400 
     91 CB         -4.8512  -26.0177  -49.8721 C.3       16 UNK        -0.1800 
     92 C          -5.1891  -23.4909  -50.1632 C.2       16 UNK         0.5000 
     93 O          -6.0942  -23.7574  -50.9552 O.2       16 UNK        -0.5000 
     94 N          -4.6335  -22.2730  -50.0551 N.am      17 UNK        -0.5000 
     95 CA         -4.8731  -21.0752  -50.8757 C.3       17 UNK         0.1400 
     96 CB         -6.3301  -20.5974  -50.7426 C.3       17 UNK        -0.1800 
     97 C          -4.4579  -21.2027  -52.3631 C.2       17 UNK         0.5000 
     98 O          -4.0759  -20.2037  -52.9733 O.2       17 UNK        -0.5000 
     99 N          -4.5069  -22.4158  -52.9251 N.am      18 UNK        -0.5000 
    100 CA        -4.1376  -22.7507  -54.2979 C.3       18 UNK         0.1400 
    101 CB        -4.4866  -24.2216  -54.5708 C.3       18 UNK        -0.1800 
    102 C         -2.6567  -22.4712  -54.6007 C.2       18 UNK         0.5000 
    103 O         -2.3585  -21.7711  -55.5689 O.2       18 UNK        -0.5000 
    104 N         -1.7541  -22.9694  -53.7426 N.am      19 UNK        -0.5000 
    105 CA        -0.3093  -22.7451  -53.8695 C.3       19 UNK         0.1400 
    106 CB         0.4581  -23.8493  -53.1305 C.3       19 UNK        -0.1800 
    107 C          0.1232  -21.3416  -53.3981 C.2       19 UNK         0.5000 
    108 O          1.2293  -20.9111  -53.7238 O.2       19 UNK        -0.5000 
    109 N         -0.7695  -20.6336  -52.6895 N.am      20 UNK        -0.5000 
    110 CA        -0.6478  -19.2074  -52.3737 C.3       20 UNK         0.1400 
    111 CB        -1.4721  -18.8951  -51.1133 C.3       20 UNK        -0.1800 
    112 C         -1.0636  -18.3032  -53.5589 C.2       20 UNK         0.5000 
    113 O         -0.9418  -17.0829  -53.4532 O.2       20 UNK        -0.5000 
    114 N         -1.5211  -18.9144  -54.6645 N.am      21 UNK        -0.5000 
    115 CA        -1.9059  -18.3105  -55.9416 C.3       21 UNK         0.1400 
    116 CB        -0.7267  -17.5475  -56.5825 C.3       21 UNK        -0.1800 
    117 C         -3.2052  -17.4849  -55.8706 C.2       21 UNK         0.5000 
    118 O         -3.3566  -16.5171  -56.6192 O.2       21 UNK        -0.5000 
    119 N         -4.1389  -17.8963  -55.0026 N.am      22 UNK        -0.5000 
    120 CA        -5.4802  -17.2954  -54.8895 C.3       22 UNK         0.1400 
    121 C         -6.4607  -17.6889  -56.0350 C.2       22 UNK         0.5000 
    122 N         -6.1525  -18.6708  -56.8742 N.am      22 UNK        -0.7600 
    123 O         -7.5215  -17.0850  -56.1692 O.2       22 UNK        -0.5000 
    124 C124       -6.1229  -17.5763  -53.5108 C.3       23 UNK        -0.0398 
    125 S125       -5.1218  -16.9311  -52.1306 S.3       23 UNK        -0.2404 
    126 C126       -6.4298  -16.5336  -50.9323 C.3       23 UNK        -0.0205 
    127 H127       -0.9584   -8.8872  -45.5256 H         1 UNK         0.0600 
    128 H128        0.5759   -8.4541  -46.2859 H         1 UNK         0.0600 
    129 H129        0.5548   -9.5488  -44.8992 H         1 UNK         0.0600 
    130 H130       -2.1065  -10.3855  -46.7140 H         1 UNK         0.3000 
    131 H131       -1.0946  -11.7827  -48.9297 H         1 UNK         0.0600 
    132 H132       -3.4096  -11.1657  -48.9014 H         1 UNK         0.0800 
    133 H133       -3.3427  -12.9004  -48.9673 H         1 UNK         0.0800 
    134 H134       -6.4557  -12.9121  -46.6996 H         1 UNK         0.0800 
    135 H135       -6.1001  -12.2891  -48.2924 H         1 UNK         0.0800 
    136 H136       -6.5567  -14.0579  -49.7914 H         1 UNK         0.1150 
    137 H137       -5.0001  -17.9984  -49.1441 H         1 UNK         0.1150 
    138 H138       -4.3466  -14.9329  -46.2220 H         1 UNK         0.1150 
    139 H139       -3.6849  -17.1635  -45.7359 H         1 UNK         0.0800 
    140 H140       -4.3425  -18.4872  -46.6713 H         1 UNK         0.0800 
    141 H141       -0.3747  -18.3591  -45.9798 H         1 UNK         0.0800 
    142 H142       -1.8928  -18.5373  -45.1690 H         1 UNK         0.0800 
    143 H143       -0.7691  -20.4875  -47.2377 H         1 UNK         0.0600 
    144 H144       -0.1459  -20.2657  -44.5139 H         1 UNK         0.3000 
    145 H145        0.4917  -23.6869  -43.7373 H         1 UNK         0.0600 
    146 H146        2.6431  -22.6158  -43.0604 H         1 UNK         0.0600 
    147 H147        2.5569  -22.8358  -44.8010 H         1 UNK         0.0600 
    148 H148        2.3020  -21.2418  -44.1095 H         1 UNK         0.0600 
    149 H149        0.6024  -21.2437  -42.2317 H         1 UNK         0.3000 
    150 H150       -2.7321  -21.4247  -40.9367 H         1 UNK         0.0600 
    151 H151       -1.3247  -22.9533  -39.5457 H         1 UNK         0.0600 
    152 H152       -1.4408  -21.3569  -38.8230 H         1 UNK         0.0600 
    153 H153        0.0309  -21.8378  -39.6674 H         1 UNK         0.0600 
    154 H154       -0.5767  -19.5876  -40.5150 H         1 UNK         0.3000 
    155 H155       -1.3274  -17.3588  -43.1841 H         1 UNK         0.0600 
    156 H156       -1.5199  -15.7429  -41.3113 H         1 UNK         0.0600 
    157 H157       -1.7593  -17.0607  -40.1646 H         1 UNK         0.0600 
    158 H158       -2.9627  -16.7388  -41.4074 H         1 UNK         0.0600 
    159 H159        0.5666  -17.1660  -41.0900 H         1 UNK         0.3000 
    160 H160        2.8976  -17.2365  -41.9467 H         1 UNK         0.0600 
    161 H161        2.5516  -20.1502  -40.9791 H         1 UNK         0.0600 
    162 H162        2.1324  -18.7239  -40.0367 H         1 UNK         0.0600 
    163 H163        3.8068  -19.0427  -40.4341 H         1 UNK         0.0600 
    164 H164        2.9977  -19.2638  -43.9207 H         1 UNK         0.3000 
    165 H165        6.3855  -18.8183  -44.6918 H         1 UNK         0.0600 
    166 H166        5.2410  -21.4870  -43.7040 H         1 UNK         0.0600 
    167 H167        6.6227  -21.2880  -44.7834 H         1 UNK         0.0600 
    168 H168        6.7194  -20.7329  -43.1207 H         1 UNK         0.0600 
    169 H169        4.4359  -20.5498  -45.8369 H         1 UNK         0.3000 
    170 H170        3.9999  -19.5110  -48.2724 H         1 UNK         0.0600 
    171 H171        2.5462  -20.8845  -46.8405 H         1 UNK         0.0600 
    172 H172        1.6298  -19.4710  -46.3321 H         1 UNK         0.0600 
    173 H173        1.5103  -20.0618  -47.9904 H         1 UNK         0.0600 
    174 H174        2.5272  -17.0656  -47.5008 H         1 UNK         0.3000 
    175 H175        3.1360  -15.6486  -50.5989 H         1 UNK         0.0600 
    176 H176        1.0119  -16.7082  -51.3686 H         1 UNK         0.0600 
    177 H177        0.2798  -16.4130  -49.7929 H         1 UNK         0.0600 
    178 H178        0.7267  -15.0614  -50.8313 H         1 UNK         0.0600 
    179 H179        1.4903  -14.8594  -48.3644 H         1 UNK         0.3000 
    180 H180        3.8107  -14.4775  -45.9605 H         1 UNK         0.0600 
    181 H181        3.3801  -11.9296  -47.6031 H         1 UNK         0.0600 
    182 H182        4.9042  -12.5209  -46.9607 H         1 UNK         0.0600 
    183 H183        3.6542  -11.9628  -45.8600 H         1 UNK         0.0600 
    184 H184        1.3979  -12.9734  -46.4050 H         1 UNK         0.3000 
    185 H185       -0.9086  -15.5527  -45.8243 H         1 UNK         0.0600 
    186 H186       -1.5555  -14.5021  -43.7064 H         1 UNK         0.0600 
    187 H187       -0.0171  -15.3161  -43.4593 H         1 UNK         0.0600 
    188 H188       -0.0569  -13.5718  -43.6457 H         1 UNK         0.0600 
    189 H189       -1.2225  -12.7429  -45.5831 H         1 UNK         0.3000 
    190 H190       -2.9460  -20.7229  -44.3915 H         1 UNK         0.3000 
    191 H191       -5.3139  -21.2115  -45.8980 H         1 UNK         0.0600 
    192 H192       -6.2906  -21.6771  -43.6416 H         1 UNK         0.0600 
    193 H193       -5.3455  -20.1956  -43.6518 H         1 UNK         0.0600 
    194 H194       -4.6772  -21.6607  -42.9364 H         1 UNK         0.0600 
    195 H195       -3.1367  -23.4734  -44.0929 H         1 UNK         0.3000 
    196 H196       -4.9096  -25.7315  -44.8049 H         1 UNK         0.0600 
    197 H197       -3.6600  -26.9306  -43.0714 H         1 UNK         0.0600 
    198 H198       -4.2424  -25.3966  -42.4442 H         1 UNK         0.0600 
    199 H199       -2.5453  -25.5874  -42.8736 H         1 UNK         0.0600 
    200 H200       -1.3487  -25.0956  -44.8837 H         1 UNK         0.3000 
    201 H201       -0.8396  -27.5863  -46.2208 H         1 UNK         0.0600 
    202 H202        0.7443  -26.5883  -44.5836 H         1 UNK         0.0600 
    203 H203        1.0546  -25.2409  -45.6775 H         1 UNK         0.0600 
    204 H204        1.5200  -26.8708  -46.1337 H         1 UNK         0.0600 
    205 H205       -0.6086  -24.1670  -47.2751 H         1 UNK         0.3000 
    206 H206       -0.0751  -24.8354  -50.0583 H         1 UNK         0.0600 
    207 H207        0.7861  -22.7378  -49.0023 H         1 UNK         0.0600 
    208 H208       -0.2748  -22.3480  -50.3493 H         1 UNK         0.0600 
    209 H209       -0.8651  -22.2013  -48.7081 H         1 UNK         0.0600 
    210 H210       -2.8679  -24.4477  -48.0806 H         1 UNK         0.3000 
    211 H211       -5.0717  -24.5552  -48.3287 H         1 UNK         0.0600 
    212 H212       -4.4339  -26.1320  -50.8733 H         1 UNK         0.0600 
    213 H213       -5.9215  -26.2166  -49.9368 H         1 UNK         0.0600 
    214 H214       -4.4175  -26.7913  -49.2379 H         1 UNK         0.0600 
    215 H215       -3.9140  -22.1619  -49.3481 H         1 UNK         0.3000 
    216 H216       -4.2402  -20.3004  -50.4426 H         1 UNK         0.0600 
    217 H217       -7.0360  -21.3043  -51.1787 H         1 UNK         0.0600 
    218 H218       -6.6022  -20.4491  -49.6976 H         1 UNK         0.0600 
    219 H219       -6.4722  -19.6460  -51.2513 H         1 UNK         0.0600 
    220 H220       -4.8803  -23.1688  -52.3575 H         1 UNK         0.3000 
    221 H221       -4.7373  -22.1273  -54.9643 H         1 UNK         0.0600 
    222 H222       -3.9579  -24.8940  -53.8935 H         1 UNK         0.0600 
    223 H223       -5.5553  -24.4004  -54.4504 H         1 UNK         0.0600 
    224 H224       -4.2222  -24.5045  -55.5905 H         1 UNK         0.0600 
    225 H225       -2.0687  -23.5075  -52.9380 H         1 UNK         0.3000 
    226 H226       -0.0435  -22.8203  -54.9263 H         1 UNK         0.0600 
    227 H227        0.2914  -23.8042  -52.0585 H         1 UNK         0.0600 
    228 H228        0.1595  -24.8390  -53.4764 H         1 UNK         0.0600 
    229 H229        1.5319  -23.7557  -53.2969 H         1 UNK         0.0600 
    230 H230       -1.6632  -21.0598  -52.4934 H         1 UNK         0.3000 
    231 H231        0.3984  -18.9894  -52.1493 H         1 UNK         0.0600 
    232 H232       -1.2966  -17.8741  -50.7763 H         1 UNK         0.0600 
    233 H233       -1.2131  -19.5583  -50.2875 H         1 UNK         0.0600 
    234 H234       -2.5409  -18.9796  -51.2970 H         1 UNK         0.0600 
    235 H235       -1.6225  -19.9208  -54.6345 H         1 UNK         0.3000 
    236 H236       -2.1339  -19.1495  -56.6002 H         1 UNK         0.0600 
    237 H237        0.1699  -18.1662  -56.6198 H         1 UNK         0.0600 
    238 H238       -0.9607  -17.2567  -57.6072 H         1 UNK         0.0600 
    239 H239       -0.4848  -16.6367  -56.0343 H         1 UNK         0.0600 
    240 H240       -3.9463  -18.6806  -54.3877 H         1 UNK         0.3000 
    241 H241       -5.3608  -16.2130  -54.9687 H         1 UNK         0.0600 
    242 H242       -5.2877  -19.1770  -56.7760 H         1 UNK         0.3800 
    243 H243       -6.7939  -18.9108  -57.6140 H         1 UNK         0.3800 
    244 H244       -7.1145  -17.1232  -53.4580 H         1 UNK         0.0800 
    245 H245       -6.2691  -18.6478  -53.3723 H         1 UNK         0.0800 
    246 H246       -7.0556  -17.4098  -50.7611 H         1 UNK         0.0800 
    247 H247       -7.0798  -15.7646  -51.3528 H         1 UNK         0.0800 
@<TRIPOS>BOND
     1    1    2 1    
     2    1  127 1    
     3    1  128 1    
     4    1  129 1    
     5    2    3 2    
     6    2    4 am   BACKBONE|DICT|INTERRES
     7    4    5 1    
     8    4  130 1    
     9    5    6 1    
    10    5   65 1    
    11    5  131 1    
    12    6    7 1    
    13    6  132 1    
    14    6  133 1    
    15    7    8 1    
    16    8    9 1    
    17    8  134 1    
    18    8  135 1    
    19    9   10 ar   
    20    9   14 ar   
    21   10   11 ar   
    22   10  136 1    
    23   11   12 ar   
    24   11  126 1    
    25   12   13 ar   
    26   12  137 1    
    27   13   14 ar   
    28   13   15 1    
    29   14  138 1    
    30   15   16 1    
    31   15  139 1    
    32   15  140 1    
    33   16   17 1    
    34   17   18 1    
    35   17  141 1    
    36   17  142 1    
    37   18   19 1    
    38   18   67 1    
    39   18  143 1    
    40   19   20 am   BACKBONE|DICT|INTERRES
    41   19  144 1    
    42   20   21 2    
    43   20   22 1    
    44   22   23 1    
    45   22   24 1    
    46   22  145 1    
    47   23  146 1    
    48   23  147 1    
    49   23  148 1    
    50   24   25 am   BACKBONE|DICT|INTERRES
    51   24  149 1    
    52   25   26 2    
    53   25   27 1    
    54   27   28 1    
    55   27   29 1    
    56   27  150 1    
    57   28  151 1    
    58   28  152 1    
    59   28  153 1    
    60   29   30 am   BACKBONE|DICT|INTERRES
    61   29  154 1    
    62   30   31 2    
    63   30   32 1    
    64   32   33 1    
    65   32   34 1    
    66   32  155 1    
    67   33  156 1    
    68   33  157 1    
    69   33  158 1    
    70   34   35 am   BACKBONE|DICT|INTERRES
    71   34  159 1    
    72   35   36 2    
    73   35   37 1    
    74   37   38 1    
    75   37   39 1    
    76   37  160 1    
    77   38  161 1    
    78   38  162 1    
    79   38  163 1    
    80   39   40 am   BACKBONE|DICT|INTERRES
    81   39  164 1    
    82   40   41 2    
    83   40   42 1    
    84   42   43 1    
    85   42   44 1    
    86   42  165 1    
    87   43  166 1    
    88   43  167 1    
    89   43  168 1    
    90   44   45 am   BACKBONE|DICT|INTERRES
    91   44  169 1    
    92   45   46 2    
    93   45   47 1    
    94   47   48 1    
    95   47   49 1    
    96   47  170 1    
    97   48  171 1    
    98   48  172 1    
    99   48  173 1    
   100   49   50 am   BACKBONE|DICT|INTERRES
   101   49  174 1    
   102   50   51 2    
   103   50   52 1    
   104   52   53 1    
   105   52   54 1    
   106   52  175 1    
   107   53  176 1    
   108   53  177 1    
   109   53  178 1    
   110   54   55 am   BACKBONE|DICT|INTERRES
   111   54  179 1    
   112   55   56 2    
   113   55   57 1    
   114   57   58 1    
   115   57   59 1    
   116   57  180 1    
   117   58  181 1    
   118   58  182 1    
   119   58  183 1    
   120   59   60 am   BACKBONE|DICT|INTERRES
   121   59  184 1    
   122   60   61 2    
   123   60   62 1    
   124   62   63 1    
   125   62   64 1    
   126   62  185 1    
   127   63  186 1    
   128   63  187 1    
   129   63  188 1    
   130   64   65 am   BACKBONE|DICT|INTERRES
   131   64  189 1    
   132   65   66 2    
   133   67   68 2    
   134   67   69 am   BACKBONE|DICT|INTERRES
   135   69   70 1    
   136   69  190 1    
   137   70   71 1    
   138   70   72 1    
   139   70  191 1    
   140   71  192 1    
   141   71  193 1    
   142   71  194 1    
   143   72   73 2    
   144   72   74 am   BACKBONE|DICT|INTERRES
   145   74   75 1    
   146   74  195 1    
   147   75   76 1    
   148   75   77 1    
   149   75  196 1    
   150   76  197 1    
   151   76  198 1    
   152   76  199 1    
   153   77   78 2    
   154   77   79 am   BACKBONE|DICT|INTERRES
   155   79   80 1    
   156   79  200 1    
   157   80   81 1    
   158   80   82 1    
   159   80  201 1    
   160   81  202 1    
   161   81  203 1    
   162   81  204 1    
   163   82   83 2    
   164   82   84 am   BACKBONE|DICT|INTERRES
   165   84   85 1    
   166   84  205 1    
   167   85   86 1    
   168   85   87 1    
   169   85  206 1    
   170   86  207 1    
   171   86  208 1    
   172   86  209 1    
   173   87   88 2    
   174   87   89 am   BACKBONE|DICT|INTERRES
   175   89   90 1    
   176   89  210 1    
   177   90   91 1    
   178   90   92 1    
   179   90  211 1    
   180   91  212 1    
   181   91  213 1    
   182   91  214 1    
   183   92   93 2    
   184   92   94 am   BACKBONE|DICT|INTERRES
   185   94   95 1    
   186   94  215 1    
   187   95   96 1    
   188   95   97 1    
   189   95  216 1    
   190   96  217 1    
   191   96  218 1    
   192   96  219 1    
   193   97   98 2    
   194   97   99 am   BACKBONE|DICT|INTERRES
   195   99  100 1    
   196   99  220 1    
   197  100  101 1    
   198  100  102 1    
   199  100  221 1    
   200  101  222 1    
   201  101  223 1    
   202  101  224 1    
   203  102  103 2    
   204  102  104 am   BACKBONE|DICT|INTERRES
   205  104  105 1    
   206  104  225 1    
   207  105  106 1    
   208  105  107 1    
   209  105  226 1    
   210  106  227 1    
   211  106  228 1    
   212  106  229 1    
   213  107  108 2    
   214  107  109 am   BACKBONE|DICT|INTERRES
   215  109  110 1    
   216  109  230 1    
   217  110  111 1    
   218  110  112 1    
   219  110  231 1    
   220  111  232 1    
   221  111  233 1    
   222  111  234 1    
   223  112  113 2    
   224  112  114 am   BACKBONE|DICT|INTERRES
   225  114  115 1    
   226  114  235 1    
   227  115  116 1    
   228  115  117 1    
   229  115  236 1    
   230  116  237 1    
   231  116  238 1    
   232  116  239 1    
   233  117  118 2    
   234  117  119 am   BACKBONE|DICT|INTERRES
   235  119  120 1    
   236  119  240 1    
   237  120  121 1    
   238  120  124 1    
   239  120  241 1    
   240  121  122 am   BACKBONE|DICT|INTERRES
   241  121  123 2    
   242  122  242 1    
   243  122  243 1    
   244  124  125 1    
   245  124  244 1    
   246  124  245 1    
   247  125  126 1    
   248  126  246 1    
   249  126  247 1    
@<TRIPOS>SUBSTRUCTURE
     1 UNK         1 GROUP             0       ****    0 ROOT    
