@<TRIPOS>MOLECULE
3R540
247   249    1
SMALL
USER_CHARGES


@<TRIPOS>ATOM
      1 CA         -3.1239  -11.2237  -46.3588 C.3       0 UNK        -0.1800 
      2 C          -1.8651  -11.4609  -47.1818 C.2       0 UNK         0.5000 
      3 O          -1.3497  -10.5277  -47.7984 O.2       0 UNK        -0.5000 
      4 N          -1.3756  -12.7063  -47.1968 N.am      1 UNK        -0.5000 
      5 CA         -0.1236  -13.1090  -47.8464 C.3       1 UNK         0.1400 
      6 C6         -0.0739  -14.6442  -48.0667 C.3       23 UNK        -0.0398 
      7 S7          0.7969  -15.1086  -49.6015 S.3       23 UNK        -0.2404 
      8 C8         -0.5833  -15.6118  -50.6791 C.3       23 UNK        -0.0205 
      9 C9         -1.2075  -16.9264  -50.2335 C.ar      23 UNK        -0.0193 
     10 C10        -2.4273  -16.9367  -49.5504 C.ar      23 UNK        -0.1150 
     11 C11        -2.9984  -18.1435  -49.1393 C.ar      23 UNK        -0.0193 
     12 C12        -2.3529  -19.3470  -49.4344 C.ar      23 UNK        -0.1150 
     13 C13        -1.1435  -19.3517  -50.1342 C.ar      23 UNK        -0.0193 
     14 C14        -0.5695  -18.1367  -50.5184 C.ar      23 UNK        -0.1150 
     15 C15        -0.4683  -20.6704  -50.4840 C.3       23 UNK        -0.0205 
     16 S16         1.1027  -20.9292  -49.5974 S.3       23 UNK        -0.2404 
     17 C17         0.6286  -20.6821  -47.8511 C.3       23 UNK        -0.0398 
     18 CA          0.3414  -21.9891  -47.0781 C.3       11 UNK         0.1400 
     19 N           0.4050  -21.7611  -45.6321 N.am      11 UNK        -0.5000 
     20 C           0.3827  -22.7165  -44.6944 C.2       10 UNK         0.5000 
     21 O           0.3473  -23.9183  -44.9481 O.2       10 UNK        -0.5000 
     22 CA          0.3379  -22.2518  -43.2273 C.3       10 UNK         0.1400 
     23 CB          1.7362  -21.8535  -42.7333 C.3       10 UNK        -0.1800 
     24 N          -0.5995  -21.1464  -43.0207 N.am      10 UNK        -0.5000 
     25 C          -1.9240  -21.2409  -43.2078 C.2       9 UNK         0.5000 
     26 O          -2.4946  -22.2874  -43.5149 O.2       9 UNK        -0.5000 
     27 CA         -2.7448  -19.9451  -43.0782 C.3       9 UNK         0.1400 
     28 CB         -3.0442  -19.6321  -41.6049 C.3       9 UNK        -0.1800 
     29 N          -2.0929  -18.7938  -43.7029 N.am      9 UNK        -0.5000 
     30 C          -1.8156  -18.6860  -45.0103 C.2       8 UNK         0.5000 
     31 O          -2.1105  -19.5400  -45.8442 O.2       8 UNK        -0.5000 
     32 CA         -1.0210  -17.4408  -45.4462 C.3       8 UNK         0.1400 
     33 CB         -1.9310  -16.2021  -45.4945 C.3       8 UNK        -0.1800 
     34 N           0.1218  -17.1888  -44.5639 N.am      8 UNK        -0.5000 
     35 C           1.1460  -18.0389  -44.3907 C.2       7 UNK         0.5000 
     36 O           1.2744  -19.0904  -45.0154 O.2       7 UNK        -0.5000 
     37 CA          2.1628  -17.6927  -43.2906 C.3       7 UNK         0.1400 
     38 CB          3.2653  -16.7674  -43.8266 C.3       7 UNK        -0.1800 
     39 N           1.5101  -17.0811  -42.1331 N.am      7 UNK        -0.5000 
     40 C           0.7559  -17.7573  -41.2539 C.2       6 UNK         0.5000 
     41 O           0.5799  -18.9746  -41.3038 O.2       6 UNK        -0.5000 
     42 CA          0.0437  -16.9310  -40.1648 C.3       6 UNK         0.1400 
     43 CB          0.9760  -16.6996  -38.9665 C.3       6 UNK        -0.1800 
     44 N          -0.4373  -15.6397  -40.6593 N.am      6 UNK        -0.5000 
     45 C          -1.3930  -15.4924  -41.5878 C.2       5 UNK         0.5000 
     46 O          -2.0297  -16.4340  -42.0574 O.2       5 UNK        -0.5000 
     47 CA         -1.6429  -14.0678  -42.1253 C.3       5 UNK         0.1400 
     48 CB         -2.8117  -13.4088  -41.3790 C.3       5 UNK        -0.1800 
     49 N          -0.4704  -13.1878  -42.0610 N.am      5 UNK        -0.5000 
     50 C           0.7031  -13.4240  -42.6629 C.2       4 UNK         0.5000 
     51 O           0.9293  -14.4308  -43.3405 O.2       4 UNK        -0.5000 
     52 CA          1.8209  -12.4036  -42.4024 C.3       4 UNK         0.1400 
     53 CB          2.2436  -12.4228  -40.9190 C.3       4 UNK        -0.1800 
     54 N           2.9672  -12.7234  -43.2465 N.am      4 UNK        -0.5000 
     55 C           3.9814  -11.9012  -43.5379 C.2       3 UNK         0.5000 
     56 O           4.0587  -10.7422  -43.1297 O.2       3 UNK        -0.5000 
     57 CA          5.1078  -12.4558  -44.4344 C.3       3 UNK         0.1400 
     58 CB          6.3362  -12.8024  -43.5789 C.3       3 UNK        -0.1800 
     59 N           4.7149  -13.6536  -45.1827 N.am      3 UNK        -0.5000 
     60 C           3.9929  -13.7168  -46.3101 C.2       2 UNK         0.5000 
     61 O           3.6955  -14.8027  -46.8081 O.2       2 UNK        -0.5000 
     62 CA          3.5615  -12.4207  -47.0364 C.3       2 UNK         0.1400 
     63 CB          4.6012  -12.0275  -48.0971 C.3       2 UNK        -0.1800 
     64 N           2.2712  -12.6173  -47.6919 N.am      2 UNK        -0.5000 
     65 C           1.1025  -12.6245  -47.0420 C.2       1 UNK         0.5000 
     66 O           0.9833  -12.3045  -45.8568 O.2       1 UNK        -0.5000 
     67 C          -0.9964  -22.6360  -47.5028 C.2       11 UNK         0.5000 
     68 O          -0.9981  -23.5475  -48.3343 O.2       11 UNK        -0.5000 
     69 N          -2.1085  -22.1857  -46.9036 N.am      12 UNK        -0.5000 
     70 CA         -3.4416  -22.7562  -47.0944 C.3       12 UNK         0.1400 
     71 CB         -4.5035  -21.8629  -46.4399 C.3       12 UNK        -0.1800 
     72 C          -3.5513  -24.2024  -46.5823 C.2       12 UNK         0.5000 
     73 O          -4.1329  -25.0450  -47.2649 O.2       12 UNK        -0.5000 
     74 N          -2.9664  -24.4714  -45.4075 N.am      13 UNK        -0.5000 
     75 CA         -2.8741  -25.8089  -44.8227 C.3       13 UNK         0.1400 
     76 CB         -2.3846  -25.7009  -43.3704 C.3       13 UNK        -0.1800 
     77 C          -1.9684  -26.7497  -45.6400 C.2       13 UNK         0.5000 
     78 O          -2.2986  -27.9263  -45.7934 O.2       13 UNK        -0.5000 
     79 N          -0.8521  -26.2141  -46.1528 N.am      14 UNK        -0.5000 
     80 CA          0.1189  -26.9348  -46.9720 C.3       14 UNK         0.1400 
     81 CB          1.4065  -26.1063  -47.1006 C.3       14 UNK        -0.1800 
     82 C          -0.4169  -27.3110  -48.3634 C.2       14 UNK         0.5000 
     83 O          -0.1606  -28.4290  -48.8141 O.2       14 UNK        -0.5000 
     84 N          -1.1331  -26.3892  -49.0237 N.am      15 UNK        -0.5000 
     85 CA         -1.6314  -26.5947  -50.3829 C.3       15 UNK         0.1400 
     86 CB         -0.5082  -26.3390  -51.4073 C.3       15 UNK        -0.1800 
     87 C          -2.8609  -25.7446  -50.7249 C.2       15 UNK         0.5000 
     88 O          -3.8139  -26.2844  -51.2880 O.2       15 UNK        -0.5000 
     89 N          -2.7908  -24.4259  -50.4785 N.am      16 UNK        -0.5000 
     90 CA         -3.7038  -23.3636  -50.9487 C.3       16 UNK         0.1400 
     91 CB         -5.1533  -23.5831  -50.4700 C.3       16 UNK        -0.1800 
     92 C          -3.6715  -23.1533  -52.4777 C.2       16 UNK         0.5000 
     93 O          -3.5413  -22.0182  -52.9421 O.2       16 UNK        -0.5000 
     94 N          -3.7545  -24.2535  -53.2370 N.am      17 UNK        -0.5000 
     95 CA         -3.6942  -24.3380  -54.6985 C.3       17 UNK         0.1400 
     96 CB         -3.8995  -25.8005  -55.1176 C.3       17 UNK        -0.1800 
     97 C          -2.3918  -23.7834  -55.3062 C.2       17 UNK         0.5000 
     98 O          -2.3991  -23.3633  -56.4631 O.2       17 UNK        -0.5000 
     99 N          -1.3229  -23.7219  -54.4986 N.am      18 UNK        -0.5000 
    100 CA        -0.0465  -23.0717  -54.8071 C.3       18 UNK         0.1400 
    101 CB         0.9149  -23.2924  -53.6285 C.3       18 UNK        -0.1800 
    102 C         -0.1722  -21.5657  -55.1264 C.2       18 UNK         0.5000 
    103 O          0.6719  -21.0334  -55.8476 O.2       18 UNK        -0.5000 
    104 N         -1.2305  -20.9217  -54.6148 N.am      19 UNK        -0.5000 
    105 CA        -1.6157  -19.5457  -54.9257 C.3       19 UNK         0.1400 
    106 CB        -1.4852  -18.6913  -53.6563 C.3       19 UNK        -0.1800 
    107 C         -3.0390  -19.4934  -55.5111 C.2       19 UNK         0.5000 
    108 O         -3.7195  -18.4796  -55.3572 O.2       19 UNK        -0.5000 
    109 N         -3.4801  -20.5869  -56.1535 N.am      20 UNK        -0.5000 
    110 CA        -4.7927  -20.7650  -56.7864 C.3       20 UNK         0.1400 
    111 CB        -4.8990  -19.8923  -58.0545 C.3       20 UNK        -0.1800 
    112 C         -5.9733  -20.5603  -55.8107 C.2       20 UNK         0.5000 
    113 O         -6.9743  -19.9417  -56.1754 O.2       20 UNK        -0.5000 
    114 N         -5.8160  -21.0840  -54.5855 N.am      21 UNK        -0.5000 
    115 CA        -6.7241  -20.9615  -53.4423 C.3       21 UNK         0.1400 
    116 CB        -8.1155  -21.5587  -53.7428 C.3       21 UNK        -0.1800 
    117 C         -6.7630  -19.5197  -52.9015 C.2       21 UNK         0.5000 
    118 O         -7.8337  -18.9167  -52.8055 O.2       21 UNK        -0.5000 
    119 N         -5.5750  -19.0129  -52.5440 N.am      22 UNK        -0.5000 
    120 CA        -5.3467  -17.6973  -51.9179 C.3       22 UNK         0.1400 
    121 C         -5.6419  -16.4848  -52.8545 C.2       22 UNK         0.5000 
    122 N         -5.3883  -16.5832  -54.1521 N.am      22 UNK        -0.7600 
    123 O         -6.0932  -15.4321  -52.4096 O.2       22 UNK        -0.5000 
    124 C124       -6.0313  -17.5488  -50.5255 C.3       23 UNK        -0.0398 
    125 S125       -5.6538  -18.8968  -49.3512 S.3       23 UNK        -0.2404 
    126 C126       -4.3103  -18.1540  -48.3727 C.3       23 UNK        -0.0205 
    127 H127       -3.9261  -10.8538  -46.9973 H         1 UNK         0.0600 
    128 H128       -2.9311  -10.4798  -45.5857 H         1 UNK         0.0600 
    129 H129       -3.4695  -12.1364  -45.8726 H         1 UNK         0.0600 
    130 H130       -1.8291  -13.4130  -46.6386 H         1 UNK         0.3000 
    131 H131       -0.0989  -12.6130  -48.8195 H         1 UNK         0.0600 
    132 H132        0.4020  -15.1615  -47.2308 H         1 UNK         0.0800 
    133 H133       -1.0838  -15.0467  -48.1137 H         1 UNK         0.0800 
    134 H134       -0.2118  -15.7200  -51.6992 H         1 UNK         0.0800 
    135 H135       -1.3305  -14.8172  -50.7109 H         1 UNK         0.0800 
    136 H136       -2.9303  -16.0048  -49.3341 H         1 UNK         0.1150 
    137 H137       -2.8005  -20.2789  -49.1195 H         1 UNK         0.1150 
    138 H138        0.3728  -18.1341  -51.0479 H         1 UNK         0.1150 
    139 H139       -1.1319  -21.5106  -50.2819 H         1 UNK         0.0800 
    140 H140       -0.2729  -20.6941  -51.5568 H         1 UNK         0.0800 
    141 H141       -0.1969  -19.9779  -47.7540 H         1 UNK         0.0800 
    142 H142        1.4815  -20.1792  -47.3944 H         1 UNK         0.0800 
    143 H143        1.1345  -22.7006  -47.3161 H         1 UNK         0.0600 
    144 H144        0.4823  -20.7918  -45.3346 H         1 UNK         0.3000 
    145 H145       -0.0048  -23.0945  -42.6234 H         1 UNK         0.0600 
    146 H146        2.1394  -21.0116  -43.2952 H         1 UNK         0.0600 
    147 H147        1.7176  -21.5749  -41.6795 H         1 UNK         0.0600 
    148 H148        2.4366  -22.6829  -42.8386 H         1 UNK         0.0600 
    149 H149       -0.2075  -20.2634  -42.7120 H         1 UNK         0.3000 
    150 H150       -3.6958  -20.1029  -43.5905 H         1 UNK         0.0600 
    151 H151       -3.5545  -20.4675  -41.1240 H         1 UNK         0.0600 
    152 H152       -3.6896  -18.7585  -41.5114 H         1 UNK         0.0600 
    153 H153       -2.1324  -19.4348  -41.0409 H         1 UNK         0.0600 
    154 H154       -1.8662  -18.0143  -43.0909 H         1 UNK         0.3000 
    155 H155       -0.6291  -17.6182  -46.4503 H         1 UNK         0.0600 
    156 H156       -2.5523  -16.1137  -44.6039 H         1 UNK         0.0600 
    157 H157       -1.3542  -15.2827  -45.5810 H         1 UNK         0.0600 
    158 H158       -2.6048  -16.2559  -46.3501 H         1 UNK         0.0600 
    159 H159        0.1176  -16.3302  -44.0272 H         1 UNK         0.3000 
    160 H160        2.6368  -18.6208  -42.9647 H         1 UNK         0.0600 
    161 H161        3.8335  -17.2624  -44.6151 H         1 UNK         0.0600 
    162 H162        2.8555  -15.8535  -44.2539 H         1 UNK         0.0600 
    163 H163        3.9688  -16.4901  -43.0416 H         1 UNK         0.0600 
    164 H164        1.5349  -16.0713  -42.0857 H         1 UNK         0.3000 
    165 H165       -0.8190  -17.5060  -39.8218 H         1 UNK         0.0600 
    166 H166        0.4584  -16.1823  -38.1584 H         1 UNK         0.0600 
    167 H167        1.3376  -17.6473  -38.5652 H         1 UNK         0.0600 
    168 H168        1.8481  -16.1052  -39.2420 H         1 UNK         0.0600 
    169 H169        0.0307  -14.8145  -40.3161 H         1 UNK         0.3000 
    170 H170       -1.9215  -14.1622  -43.1763 H         1 UNK         0.0600 
    171 H171       -3.7077  -14.0290  -41.4309 H         1 UNK         0.0600 
    172 H172       -2.5799  -13.2542  -40.3245 H         1 UNK         0.0600 
    173 H173       -3.0631  -12.4415  -41.8143 H         1 UNK         0.0600 
    174 H174       -0.5756  -12.3459  -41.5133 H         1 UNK         0.3000 
    175 H175        1.4442  -11.4147  -42.6713 H         1 UNK         0.0600 
    176 H176        2.6208  -13.4028  -40.6235 H         1 UNK         0.0600 
    177 H177        3.0267  -11.6919  -40.7176 H         1 UNK         0.0600 
    178 H178        1.4085  -12.1790  -40.2617 H         1 UNK         0.0600 
    179 H179        2.9174  -13.6369  -43.6789 H         1 UNK         0.3000 
    180 H180        5.4055  -11.6696  -45.1300 H         1 UNK         0.0600 
    181 H181        6.1140  -13.5854  -42.8526 H         1 UNK         0.0600 
    182 H182        6.6861  -11.9307  -43.0242 H         1 UNK         0.0600 
    183 H183        7.1653  -13.1444  -44.1987 H         1 UNK         0.0600 
    184 H184        5.0091  -14.5260  -44.7705 H         1 UNK         0.3000 
    185 H185        3.4560  -11.5955  -46.3321 H         1 UNK         0.0600 
    186 H186        4.3102  -11.1134  -48.6151 H         1 UNK         0.0600 
    187 H187        5.5760  -11.8466  -47.6428 H         1 UNK         0.0600 
    188 H188        4.7294  -12.8109  -48.8454 H         1 UNK         0.0600 
    189 H189        2.3011  -12.9584  -48.6424 H         1 UNK         0.3000 
    190 H190       -2.0421  -21.3792  -46.2875 H         1 UNK         0.3000 
    191 H191       -3.6341  -22.7653  -48.1648 H         1 UNK         0.0600 
    192 H192       -4.3487  -21.7668  -45.3660 H         1 UNK         0.0600 
    193 H193       -5.5037  -22.2698  -46.5932 H         1 UNK         0.0600 
    194 H194       -4.4933  -20.8644  -46.8707 H         1 UNK         0.0600 
    195 H195       -2.5627  -23.7074  -44.8732 H         1 UNK         0.3000 
    196 H196       -3.8770  -26.2406  -44.8101 H         1 UNK         0.0600 
    197 H197       -2.3339  -26.6841  -42.9013 H         1 UNK         0.0600 
    198 H198       -3.0595  -25.0884  -42.7722 H         1 UNK         0.0600 
    199 H199       -1.3909  -25.2566  -43.3110 H         1 UNK         0.0600 
    200 H200       -0.6129  -25.2581  -45.9046 H         1 UNK         0.3000 
    201 H201        0.3695  -27.8621  -46.4525 H         1 UNK         0.0600 
    202 H202        1.8511  -25.9138  -46.1242 H         1 UNK         0.0600 
    203 H203        1.2201  -25.1455  -47.5805 H         1 UNK         0.0600 
    204 H204        2.1521  -26.6323  -47.6981 H         1 UNK         0.0600 
    205 H205       -1.2945  -25.4818  -48.5970 H         1 UNK         0.3000 
    206 H206       -1.9494  -27.6351  -50.4827 H         1 UNK         0.0600 
    207 H207        0.3072  -27.0525  -51.2886 H         1 UNK         0.0600 
    208 H208       -0.8753  -26.4392  -52.4297 H         1 UNK         0.0600 
    209 H209       -0.0904  -25.3370  -51.3020 H         1 UNK         0.0600 
    210 H210       -1.9758  -24.0902  -49.9741 H         1 UNK         0.3000 
    211 H211       -3.3444  -22.4386  -50.4971 H         1 UNK         0.0600 
    212 H212       -5.6552  -24.3737  -51.0284 H         1 UNK         0.0600 
    213 H213       -5.7424  -22.6742  -50.5937 H         1 UNK         0.0600 
    214 H214       -5.1989  -23.8535  -49.4170 H         1 UNK         0.0600 
    215 H215       -3.8717  -25.1338  -52.7402 H         1 UNK         0.3000 
    216 H216       -4.5198  -23.7469  -55.0985 H         1 UNK         0.0600 
    217 H217       -3.8868  -25.9035  -56.2036 H         1 UNK         0.0600 
    218 H218       -4.8599  -26.1795  -54.7676 H         1 UNK         0.0600 
    219 H219       -3.1179  -26.4466  -54.7157 H         1 UNK         0.0600 
    220 H220       -1.4210  -24.0931  -53.5664 H         1 UNK         0.3000 
    221 H221        0.3702  -23.5596  -55.6905 H         1 UNK         0.0600 
    222 H222        0.5246  -22.8660  -52.7036 H         1 UNK         0.0600 
    223 H223        1.0947  -24.3542  -53.4596 H         1 UNK         0.0600 
    224 H224        1.8831  -22.8279  -53.8205 H         1 UNK         0.0600 
    225 H225       -1.8824  -21.4344  -54.0305 H         1 UNK         0.3000 
    226 H226       -0.9580  -19.1235  -55.6876 H         1 UNK         0.0600 
    227 H227       -0.4642  -18.7220  -53.2782 H         1 UNK         0.0600 
    228 H228       -1.7242  -17.6450  -53.8502 H         1 UNK         0.0600 
    229 H229       -2.1530  -19.0425  -52.8689 H         1 UNK         0.0600 
    230 H230       -2.8513  -21.3781  -56.2401 H         1 UNK         0.3000 
    231 H231       -4.8403  -21.8081  -57.1026 H         1 UNK         0.0600 
    232 H232       -5.8160  -20.1090  -58.6036 H         1 UNK         0.0600 
    233 H233       -4.0657  -20.0788  -58.7318 H         1 UNK         0.0600 
    234 H234       -4.9047  -18.8285  -57.8146 H         1 UNK         0.0600 
    235 H235       -4.9217  -21.5063  -54.3649 H         1 UNK         0.3000 
    236 H236       -6.2912  -21.5673  -52.6469 H         1 UNK         0.0600 
    237 H237       -8.7257  -21.5860  -52.8394 H         1 UNK         0.0600 
    238 H238       -8.0340  -22.5815  -54.1104 H         1 UNK         0.0600 
    239 H239       -8.6640  -20.9772  -54.4839 H         1 UNK         0.0600 
    240 H240       -4.7509  -19.5791  -52.6834 H         1 UNK         0.3000 
    241 H241       -4.2716  -17.6473  -51.7456 H         1 UNK         0.0600 
    242 H242       -5.5815  -15.7973  -54.7510 H         1 UNK         0.3800 
    243 H243       -4.9250  -17.4028  -54.5419 H         1 UNK         0.3800 
    244 H244       -5.7490  -16.6003  -50.0663 H         1 UNK         0.0800 
    245 H245       -7.1149  -17.5049  -50.6420 H         1 UNK         0.0800 
    246 H246       -4.5933  -17.1482  -48.0592 H         1 UNK         0.0800 
    247 H247       -4.1755  -18.7224  -47.4538 H         1 UNK         0.0800 
@<TRIPOS>BOND
     1    1    2 1    
     2    1  127 1    
     3    1  128 1    
     4    1  129 1    
     5    2    3 2    
     6    2    4 am   BACKBONE|DICT|INTERRES
     7    4    5 1    
     8    4  130 1    
     9    5    6 1    
    10    5   65 1    
    11    5  131 1    
    12    6    7 1    
    13    6  132 1    
    14    6  133 1    
    15    7    8 1    
    16    8    9 1    
    17    8  134 1    
    18    8  135 1    
    19    9   10 ar   
    20    9   14 ar   
    21   10   11 ar   
    22   10  136 1    
    23   11   12 ar   
    24   11  126 1    
    25   12   13 ar   
    26   12  137 1    
    27   13   14 ar   
    28   13   15 1    
    29   14  138 1    
    30   15   16 1    
    31   15  139 1    
    32   15  140 1    
    33   16   17 1    
    34   17   18 1    
    35   17  141 1    
    36   17  142 1    
    37   18   19 1    
    38   18   67 1    
    39   18  143 1    
    40   19   20 am   BACKBONE|DICT|INTERRES
    41   19  144 1    
    42   20   21 2    
    43   20   22 1    
    44   22   23 1    
    45   22   24 1    
    46   22  145 1    
    47   23  146 1    
    48   23  147 1    
    49   23  148 1    
    50   24   25 am   BACKBONE|DICT|INTERRES
    51   24  149 1    
    52   25   26 2    
    53   25   27 1    
    54   27   28 1    
    55   27   29 1    
    56   27  150 1    
    57   28  151 1    
    58   28  152 1    
    59   28  153 1    
    60   29   30 am   BACKBONE|DICT|INTERRES
    61   29  154 1    
    62   30   31 2    
    63   30   32 1    
    64   32   33 1    
    65   32   34 1    
    66   32  155 1    
    67   33  156 1    
    68   33  157 1    
    69   33  158 1    
    70   34   35 am   BACKBONE|DICT|INTERRES
    71   34  159 1    
    72   35   36 2    
    73   35   37 1    
    74   37   38 1    
    75   37   39 1    
    76   37  160 1    
    77   38  161 1    
    78   38  162 1    
    79   38  163 1    
    80   39   40 am   BACKBONE|DICT|INTERRES
    81   39  164 1    
    82   40   41 2    
    83   40   42 1    
    84   42   43 1    
    85   42   44 1    
    86   42  165 1    
    87   43  166 1    
    88   43  167 1    
    89   43  168 1    
    90   44   45 am   BACKBONE|DICT|INTERRES
    91   44  169 1    
    92   45   46 2    
    93   45   47 1    
    94   47   48 1    
    95   47   49 1    
    96   47  170 1    
    97   48  171 1    
    98   48  172 1    
    99   48  173 1    
   100   49   50 am   BACKBONE|DICT|INTERRES
   101   49  174 1    
   102   50   51 2    
   103   50   52 1    
   104   52   53 1    
   105   52   54 1    
   106   52  175 1    
   107   53  176 1    
   108   53  177 1    
   109   53  178 1    
   110   54   55 am   BACKBONE|DICT|INTERRES
   111   54  179 1    
   112   55   56 2    
   113   55   57 1    
   114   57   58 1    
   115   57   59 1    
   116   57  180 1    
   117   58  181 1    
   118   58  182 1    
   119   58  183 1    
   120   59   60 am   BACKBONE|DICT|INTERRES
   121   59  184 1    
   122   60   61 2    
   123   60   62 1    
   124   62   63 1    
   125   62   64 1    
   126   62  185 1    
   127   63  186 1    
   128   63  187 1    
   129   63  188 1    
   130   64   65 am   BACKBONE|DICT|INTERRES
   131   64  189 1    
   132   65   66 2    
   133   67   68 2    
   134   67   69 am   BACKBONE|DICT|INTERRES
   135   69   70 1    
   136   69  190 1    
   137   70   71 1    
   138   70   72 1    
   139   70  191 1    
   140   71  192 1    
   141   71  193 1    
   142   71  194 1    
   143   72   73 2    
   144   72   74 am   BACKBONE|DICT|INTERRES
   145   74   75 1    
   146   74  195 1    
   147   75   76 1    
   148   75   77 1    
   149   75  196 1    
   150   76  197 1    
   151   76  198 1    
   152   76  199 1    
   153   77   78 2    
   154   77   79 am   BACKBONE|DICT|INTERRES
   155   79   80 1    
   156   79  200 1    
   157   80   81 1    
   158   80   82 1    
   159   80  201 1    
   160   81  202 1    
   161   81  203 1    
   162   81  204 1    
   163   82   83 2    
   164   82   84 am   BACKBONE|DICT|INTERRES
   165   84   85 1    
   166   84  205 1    
   167   85   86 1    
   168   85   87 1    
   169   85  206 1    
   170   86  207 1    
   171   86  208 1    
   172   86  209 1    
   173   87   88 2    
   174   87   89 am   BACKBONE|DICT|INTERRES
   175   89   90 1    
   176   89  210 1    
   177   90   91 1    
   178   90   92 1    
   179   90  211 1    
   180   91  212 1    
   181   91  213 1    
   182   91  214 1    
   183   92   93 2    
   184   92   94 am   BACKBONE|DICT|INTERRES
   185   94   95 1    
   186   94  215 1    
   187   95   96 1    
   188   95   97 1    
   189   95  216 1    
   190   96  217 1    
   191   96  218 1    
   192   96  219 1    
   193   97   98 2    
   194   97   99 am   BACKBONE|DICT|INTERRES
   195   99  100 1    
   196   99  220 1    
   197  100  101 1    
   198  100  102 1    
   199  100  221 1    
   200  101  222 1    
   201  101  223 1    
   202  101  224 1    
   203  102  103 2    
   204  102  104 am   BACKBONE|DICT|INTERRES
   205  104  105 1    
   206  104  225 1    
   207  105  106 1    
   208  105  107 1    
   209  105  226 1    
   210  106  227 1    
   211  106  228 1    
   212  106  229 1    
   213  107  108 2    
   214  107  109 am   BACKBONE|DICT|INTERRES
   215  109  110 1    
   216  109  230 1    
   217  110  111 1    
   218  110  112 1    
   219  110  231 1    
   220  111  232 1    
   221  111  233 1    
   222  111  234 1    
   223  112  113 2    
   224  112  114 am   BACKBONE|DICT|INTERRES
   225  114  115 1    
   226  114  235 1    
   227  115  116 1    
   228  115  117 1    
   229  115  236 1    
   230  116  237 1    
   231  116  238 1    
   232  116  239 1    
   233  117  118 2    
   234  117  119 am   BACKBONE|DICT|INTERRES
   235  119  120 1    
   236  119  240 1    
   237  120  121 1    
   238  120  124 1    
   239  120  241 1    
   240  121  122 am   BACKBONE|DICT|INTERRES
   241  121  123 2    
   242  122  242 1    
   243  122  243 1    
   244  124  125 1    
   245  124  244 1    
   246  124  245 1    
   247  125  126 1    
   248  126  246 1    
   249  126  247 1    
@<TRIPOS>SUBSTRUCTURE
     1 UNK         1 GROUP             0       ****    0 ROOT    
