@<TRIPOS>MOLECULE
3R540
247   249    1
SMALL
USER_CHARGES


@<TRIPOS>ATOM
      1 CA          1.7347   -8.4626  -49.1049 C.3       0 UNK        -0.1800 
      2 C           1.9903   -9.8952  -49.5513 C.2       0 UNK         0.5000 
      3 O           3.1315  -10.3545  -49.5083 O.2       0 UNK        -0.5000 
      4 N           0.9335  -10.6006  -49.9777 N.am      1 UNK        -0.5000 
      5 CA          0.9680  -12.0094  -50.3959 C.3       1 UNK         0.1400 
      6 C6         -0.3447  -12.3964  -51.1203 C.3       23 UNK        -0.0398 
      7 S7         -0.2156  -13.9531  -52.0607 S.3       23 UNK        -0.2404 
      8 C8         -1.3488  -15.0057  -51.1059 C.3       23 UNK        -0.0205 
      9 C9         -1.1691  -16.4703  -51.4620 C.ar      23 UNK        -0.0193 
     10 C10        -1.7731  -17.0007  -52.6040 C.ar      23 UNK        -0.1150 
     11 C11        -1.6164  -18.3514  -52.9268 C.ar      23 UNK        -0.0193 
     12 C12        -0.8518  -19.1710  -52.0908 C.ar      23 UNK        -0.1150 
     13 C13        -0.2388  -18.6549  -50.9442 C.ar      23 UNK        -0.0193 
     14 C14        -0.3964  -17.2971  -50.6440 C.ar      23 UNK        -0.1150 
     15 C15         0.6313  -19.5678  -50.0820 C.3       23 UNK        -0.0205 
     16 S16         0.6206  -19.1720  -48.2989 S.3       23 UNK        -0.2404 
     17 C17        -1.0180  -19.7863  -47.7818 C.3       23 UNK        -0.0398 
     18 CA         -0.9340  -21.2260  -47.2269 C.3       11 UNK         0.1400 
     19 N          -0.0640  -21.3359  -46.0488 N.am      11 UNK        -0.5000 
     20 C           0.4142  -22.4962  -45.5785 C.2       10 UNK         0.5000 
     21 O           0.1396  -23.5915  -46.0653 O.2       10 UNK        -0.5000 
     22 CA          1.2988  -22.4375  -44.3237 C.3       10 UNK         0.1400 
     23 CB          2.6901  -21.8739  -44.6491 C.3       10 UNK        -0.1800 
     24 N           0.6726  -21.6671  -43.2512 N.am      10 UNK        -0.5000 
     25 C          -0.4653  -22.0233  -42.6379 C.2       9 UNK         0.5000 
     26 O          -1.0638  -23.0744  -42.8698 O.2       9 UNK        -0.5000 
     27 CA         -1.0525  -21.0320  -41.6169 C.3       9 UNK         0.1400 
     28 CB         -0.4202  -21.2472  -40.2341 C.3       9 UNK        -0.1800 
     29 N          -0.9017  -19.6309  -42.0156 N.am      9 UNK        -0.5000 
     30 C          -1.4654  -19.0788  -43.1002 C.2       8 UNK         0.5000 
     31 O          -2.1913  -19.6925  -43.8806 O.2       8 UNK        -0.5000 
     32 CA         -1.1124  -17.6098  -43.3997 C.3       8 UNK         0.1400 
     33 CB         -1.8759  -16.6518  -42.4736 C.3       8 UNK        -0.1800 
     34 N           0.3229  -17.3498  -43.3022 N.am      8 UNK        -0.5000 
     35 C           1.2521  -17.9514  -44.0586 C.2       7 UNK         0.5000 
     36 O           0.9938  -18.7595  -44.9502 O.2       7 UNK        -0.5000 
     37 CA          2.7177  -17.6432  -43.7133 C.3       7 UNK         0.1400 
     38 CB          3.1480  -16.2834  -44.2871 C.3       7 UNK        -0.1800 
     39 N           2.9475  -17.6730  -42.2677 N.am      7 UNK        -0.5000 
     40 C           2.8943  -18.7850  -41.5190 C.2       6 UNK         0.5000 
     41 O           2.6869  -19.9079  -41.9761 O.2       6 UNK        -0.5000 
     42 CA          3.0612  -18.6082  -39.9990 C.3       6 UNK         0.1400 
     43 CB          4.5484  -18.5399  -39.6214 C.3       6 UNK        -0.1800 
     44 N           2.3772  -17.4182  -39.4932 N.am      6 UNK        -0.5000 
     45 C           1.0474  -17.2460  -39.4935 C.2       5 UNK         0.5000 
     46 O           0.2473  -18.0939  -39.8838 O.2       5 UNK        -0.5000 
     47 CA          0.5301  -15.8719  -39.0312 C.3       5 UNK         0.1400 
     48 CB          0.3343  -15.8511  -37.5081 C.3       5 UNK        -0.1800 
     49 N           1.4170  -14.7746  -39.4257 N.am      5 UNK        -0.5000 
     50 C           1.6745  -14.4331  -40.6940 C.2       4 UNK         0.5000 
     51 O           1.1746  -14.9934  -41.6745 O.2       4 UNK        -0.5000 
     52 CA          2.7072  -13.3220  -40.9018 C.3       4 UNK         0.1400 
     53 CB          4.1319  -13.9050  -40.9305 C.3       4 UNK        -0.1800 
     54 N           2.4166  -12.6535  -42.1631 N.am      4 UNK        -0.5000 
     55 C           2.7708  -11.4025  -42.4759 C.2       3 UNK         0.5000 
     56 O           3.4260  -10.6769  -41.7256 O.2       3 UNK        -0.5000 
     57 CA          2.3189  -10.8769  -43.8505 C.3       3 UNK         0.1400 
     58 CB          3.2950   -9.8438  -44.4471 C.3       3 UNK        -0.1800 
     59 N           2.1192  -11.9690  -44.8072 N.am      3 UNK        -0.5000 
     60 C           1.1660  -11.9831  -45.7430 C.2       2 UNK         0.5000 
     61 O           0.3048  -11.1063  -45.8619 O.2       2 UNK        -0.5000 
     62 CA          1.1837  -13.1547  -46.7334 C.3       2 UNK         0.1400 
     63 CB          0.2146  -14.2736  -46.3143 C.3       2 UNK        -0.1800 
     64 N           0.7937  -12.6041  -48.0239 N.am      2 UNK        -0.5000 
     65 C           1.2957  -12.9529  -49.2125 C.2       1 UNK         0.5000 
     66 O           2.0295  -13.9272  -49.3839 O.2       1 UNK        -0.5000 
     67 C          -2.3379  -21.8211  -46.9891 C.2       11 UNK         0.5000 
     68 O          -2.9402  -22.3260  -47.9386 O.2       11 UNK        -0.5000 
     69 N          -2.8239  -21.8085  -45.7385 N.am      12 UNK        -0.5000 
     70 CA         -4.0509  -22.4905  -45.3160 C.3       12 UNK         0.1400 
     71 CB         -4.3737  -22.1554  -43.8531 C.3       12 UNK        -0.1800 
     72 C          -3.9975  -24.0141  -45.5316 C.2       12 UNK         0.5000 
     73 O          -5.0082  -24.6051  -45.9108 O.2       12 UNK        -0.5000 
     74 N          -2.8182  -24.6101  -45.3183 N.am      13 UNK        -0.5000 
     75 CA         -2.5617  -26.0280  -45.5457 C.3       13 UNK         0.1400 
     76 CB         -1.4676  -26.5043  -44.5761 C.3       13 UNK        -0.1800 
     77 C          -2.1649  -26.3089  -47.0054 C.2       13 UNK         0.5000 
     78 O          -2.7732  -27.1647  -47.6484 O.2       13 UNK        -0.5000 
     79 N          -1.1362  -25.6038  -47.4939 N.am      14 UNK        -0.5000 
     80 CA         -0.4537  -25.8989  -48.7544 C.3       14 UNK         0.1400 
     81 CB          0.9324  -25.2354  -48.7416 C.3       14 UNK        -0.1800 
     82 C          -1.2290  -25.4699  -50.0098 C.2       14 UNK         0.5000 
     83 O          -1.1140  -26.1378  -51.0382 O.2       14 UNK        -0.5000 
     84 N          -1.9798  -24.3658  -49.9168 N.am      15 UNK        -0.5000 
     85 CA         -2.6987  -23.7560  -51.0380 C.3       15 UNK         0.1400 
     86 CB         -2.1015  -22.3657  -51.3119 C.3       15 UNK        -0.1800 
     87 C          -4.2124  -23.6772  -50.7839 C.2       15 UNK         0.5000 
     88 O          -4.9098  -22.9808  -51.5248 O.2       15 UNK        -0.5000 
     89 N          -4.6925  -24.3639  -49.7356 N.am      16 UNK        -0.5000 
     90 CA         -6.0871  -24.4202  -49.2850 C.3       16 UNK         0.1400 
     91 CB         -6.9320  -25.2465  -50.2766 C.3       16 UNK        -0.1800 
     92 C          -6.6784  -23.0245  -48.9848 C.2       16 UNK         0.5000 
     93 O          -7.8274  -22.7508  -49.3313 O.2       16 UNK        -0.5000 
     94 N          -5.8545  -22.1623  -48.3697 N.am      17 UNK        -0.5000 
     95 CA         -6.1164  -20.7551  -48.0454 C.3       17 UNK         0.1400 
     96 CB         -7.3102  -20.6036  -47.0785 C.3       17 UNK        -0.1800 
     97 C          -6.2281  -19.8879  -49.3127 C.2       17 UNK         0.5000 
     98 O          -7.1407  -19.0693  -49.4335 O.2       17 UNK        -0.5000 
     99 N          -5.2756  -20.1036  -50.2321 N.am      18 UNK        -0.5000 
    100 CA        -5.1220  -19.4412  -51.5316 C.3       18 UNK         0.1400 
    101 CB        -4.8696  -17.9288  -51.3569 C.3       18 UNK        -0.1800 
    102 C         -6.2610  -19.7522  -52.5263 C.2       18 UNK         0.5000 
    103 O         -6.5188  -18.9574  -53.4318 O.2       18 UNK        -0.5000 
    104 N         -6.9111  -20.9112  -52.3562 N.am      19 UNK        -0.5000 
    105 CA        -7.9026  -21.4455  -53.2893 C.3       19 UNK         0.1400 
    106 CB        -8.8684  -22.3696  -52.5348 C.3       19 UNK        -0.1800 
    107 C         -7.2359  -22.1878  -54.4623 C.2       19 UNK         0.5000 
    108 O         -7.8190  -22.2513  -55.5459 O.2       19 UNK        -0.5000 
    109 N         -6.0274  -22.7237  -54.2361 N.am      20 UNK        -0.5000 
    110 CA        -5.1674  -23.3094  -55.2631 C.3       20 UNK         0.1400 
    111 CB        -4.0203  -24.0654  -54.5758 C.3       20 UNK        -0.1800 
    112 C         -4.6006  -22.2386  -56.2156 C.2       20 UNK         0.5000 
    113 O         -4.5290  -21.0613  -55.8555 O.2       20 UNK        -0.5000 
    114 N         -4.1729  -22.6799  -57.4057 N.am      21 UNK        -0.5000 
    115 CA        -3.5993  -21.8285  -58.4529 C.3       21 UNK         0.1400 
    116 CB        -3.4951  -22.6388  -59.7544 C.3       21 UNK        -0.1800 
    117 C         -2.2304  -21.2181  -58.0885 C.2       21 UNK         0.5000 
    118 O         -1.8901  -20.1666  -58.6301 O.2       21 UNK        -0.5000 
    119 N         -1.4858  -21.8992  -57.2034 N.am      22 UNK        -0.5000 
    120 CA        -0.1941  -21.5562  -56.5653 C.3       22 UNK         0.1400 
    121 C          1.0037  -21.0970  -57.4566 C.2       22 UNK         0.5000 
    122 N          0.8244  -20.7924  -58.7323 N.am      22 UNK        -0.7600 
    123 O          2.1372  -21.0624  -56.9847 O.2       22 UNK        -0.5000 
    124 C124       -0.3538  -20.6856  -55.2856 C.3       23 UNK        -0.0398 
    125 S125       -1.0837  -19.0308  -55.5558 S.3       23 UNK        -0.2404 
    126 C126       -2.2708  -18.9156  -54.1799 C.3       23 UNK        -0.0205 
    127 H127        2.0063   -8.3442  -48.0558 H         1 UNK         0.0600 
    128 H128        0.6871   -8.1827  -49.2183 H         1 UNK         0.0600 
    129 H129        2.3371   -7.7719  -49.6949 H         1 UNK         0.0600 
    130 H130        0.0260  -10.1569  -49.9977 H         1 UNK         0.3000 
    131 H131        1.7851  -12.1035  -51.1148 H         1 UNK         0.0600 
    132 H132       -1.1810  -12.4374  -50.4201 H         1 UNK         0.0800 
    133 H133       -0.6043  -11.6214  -51.8429 H         1 UNK         0.0800 
    134 H134       -2.3787  -14.6994  -51.2961 H         1 UNK         0.0800 
    135 H135       -1.1741  -14.8604  -50.0384 H         1 UNK         0.0800 
    136 H136       -2.3613  -16.3580  -53.2439 H         1 UNK         0.1150 
    137 H137       -0.7135  -20.2094  -52.3492 H         1 UNK         0.1150 
    138 H138        0.0881  -16.8742  -49.7753 H         1 UNK         0.1150 
    139 H139        0.3369  -20.6104  -50.2101 H         1 UNK         0.0800 
    140 H140        1.6578  -19.4923  -50.4423 H         1 UNK         0.0800 
    141 H141       -1.7013  -19.7301  -48.6315 H         1 UNK         0.0800 
    142 H142       -1.4137  -19.1091  -47.0227 H         1 UNK         0.0800 
    143 H143       -0.4844  -21.8417  -48.0093 H         1 UNK         0.0600 
    144 H144        0.2208  -20.4647  -45.6085 H         1 UNK         0.3000 
    145 H145        1.4303  -23.4605  -43.9649 H         1 UNK         0.0600 
    146 H146        3.3453  -21.9185  -43.7792 H         1 UNK         0.0600 
    147 H147        3.1667  -22.4489  -45.4439 H         1 UNK         0.0600 
    148 H148        2.6434  -20.8365  -44.9790 H         1 UNK         0.0600 
    149 H149        1.1428  -20.8148  -42.9661 H         1 UNK         0.3000 
    150 H150       -2.1215  -21.2380  -41.5354 H         1 UNK         0.0600 
    151 H151       -0.5287  -22.2831  -39.9104 H         1 UNK         0.0600 
    152 H152       -0.8974  -20.6201  -39.4809 H         1 UNK         0.0600 
    153 H153        0.6449  -21.0132  -40.2391 H         1 UNK         0.0600 
    154 H154       -0.3480  -19.0441  -41.3965 H         1 UNK         0.3000 
    155 H155       -1.4151  -17.3992  -44.4276 H         1 UNK         0.0600 
    156 H156       -1.6140  -16.8062  -41.4271 H         1 UNK         0.0600 
    157 H157       -2.9529  -16.7959  -42.5671 H         1 UNK         0.0600 
    158 H158       -1.6626  -15.6116  -42.7209 H         1 UNK         0.0600 
    159 H159        0.6208  -16.6737  -42.6062 H         1 UNK         0.3000 
    160 H160        3.3384  -18.4156  -44.1727 H         1 UNK         0.0600 
    161 H161        2.5726  -15.4605  -43.8645 H         1 UNK         0.0600 
    162 H162        3.0075  -16.2575  -45.3685 H         1 UNK         0.0600 
    163 H163        4.2028  -16.0898  -44.0919 H         1 UNK         0.0600 
    164 H164        3.0730  -16.7846  -41.8078 H         1 UNK         0.3000 
    165 H165        2.6244  -19.4826  -39.5119 H         1 UNK         0.0600 
    166 H166        4.6787  -18.4935  -38.5401 H         1 UNK         0.0600 
    167 H167        5.0810  -19.4242  -39.9741 H         1 UNK         0.0600 
    168 H168        5.0368  -17.6670  -40.0566 H         1 UNK         0.0600 
    169 H169        2.9585  -16.6692  -39.1482 H         1 UNK         0.3000 
    170 H170       -0.4408  -15.7069  -39.5029 H         1 UNK         0.0600 
    171 H171       -0.3386  -16.6491  -37.1909 H         1 UNK         0.0600 
    172 H172        1.2774  -15.9864  -36.9773 H         1 UNK         0.0600 
    173 H173       -0.1044  -14.9086  -37.1798 H         1 UNK         0.0600 
    174 H174        1.8694  -14.2693  -38.6772 H         1 UNK         0.3000 
    175 H175        2.6171  -12.6071  -40.0811 H         1 UNK         0.0600 
    176 H176        4.2619  -14.6095  -41.7528 H         1 UNK         0.0600 
    177 H177        4.8780  -13.1187  -41.0460 H         1 UNK         0.0600 
    178 H178        4.3614  -14.4323  -40.0039 H         1 UNK         0.0600 
    179 H179        1.8160  -13.1800  -42.7847 H         1 UNK         0.3000 
    180 H180        1.3670  -10.3745  -43.6663 H         1 UNK         0.0600 
    181 H181        4.2801  -10.2787  -44.6193 H         1 UNK         0.0600 
    182 H182        3.4223   -8.9888  -43.7820 H         1 UNK         0.0600 
    183 H183        2.9286   -9.4576  -45.3985 H         1 UNK         0.0600 
    184 H184        2.7998  -12.7155  -44.7730 H         1 UNK         0.3000 
    185 H185        2.1989  -13.5540  -46.7897 H         1 UNK         0.0600 
    186 H186        0.4840  -14.6812  -45.3390 H         1 UNK         0.0600 
    187 H187       -0.8123  -13.9122  -46.2481 H         1 UNK         0.0600 
    188 H188        0.2340  -15.0981  -47.0275 H         1 UNK         0.0600 
    189 H189        0.2465  -11.7551  -47.9520 H         1 UNK         0.3000 
    190 H190       -2.3212  -21.2950  -45.0207 H         1 UNK         0.3000 
    191 H191       -4.8711  -22.1049  -45.9157 H         1 UNK         0.0600 
    192 H192       -3.5898  -22.4925  -43.1769 H         1 UNK         0.0600 
    193 H193       -5.3020  -22.6352  -43.5404 H         1 UNK         0.0600 
    194 H194       -4.5031  -21.0825  -43.7127 H         1 UNK         0.0600 
    195 H195       -2.0344  -24.0467  -45.0140 H         1 UNK         0.3000 
    196 H196       -3.4665  -26.5999  -45.3281 H         1 UNK         0.0600 
    197 H197       -1.2463  -27.5619  -44.7248 H         1 UNK         0.0600 
    198 H198       -1.7825  -26.3800  -43.5398 H         1 UNK         0.0600 
    199 H199       -0.5369  -25.9510  -44.7071 H         1 UNK         0.0600 
    200 H200       -0.6967  -24.8976  -46.9041 H         1 UNK         0.3000 
    201 H201       -0.3062  -26.9795  -48.8134 H         1 UNK         0.0600 
    202 H202        1.5225  -25.5699  -47.8881 H         1 UNK         0.0600 
    203 H203        0.8577  -24.1483  -48.6911 H         1 UNK         0.0600 
    204 H204        1.4942  -25.4840  -49.6429 H         1 UNK         0.0600 
    205 H205       -2.0480  -23.8792  -49.0302 H         1 UNK         0.3000 
    206 H206       -2.5782  -24.3551  -51.9417 H         1 UNK         0.0600 
    207 H207       -1.0347  -22.4391  -51.5225 H         1 UNK         0.0600 
    208 H208       -2.5700  -21.8970  -52.1779 H         1 UNK         0.0600 
    209 H209       -2.2300  -21.6929  -50.4640 H         1 UNK         0.0600 
    210 H210       -4.0328  -24.8984  -49.1887 H         1 UNK         0.3000 
    211 H211       -6.0870  -24.9556  -48.3352 H         1 UNK         0.0600 
    212 H212       -6.9310  -24.8087  -51.2740 H         1 UNK         0.0600 
    213 H213       -7.9690  -25.3233  -49.9481 H         1 UNK         0.0600 
    214 H214       -6.5461  -26.2621  -50.3632 H         1 UNK         0.0600 
    215 H215       -4.9058  -22.4757  -48.1875 H         1 UNK         0.3000 
    216 H216       -5.2309  -20.3932  -47.5213 H         1 UNK         0.0600 
    217 H217       -7.3946  -19.5749  -46.7264 H         1 UNK         0.0600 
    218 H218       -7.1926  -21.2380  -46.2002 H         1 UNK         0.0600 
    219 H219       -8.2572  -20.8609  -47.5533 H         1 UNK         0.0600 
    220 H220       -4.6114  -20.8410  -50.0460 H         1 UNK         0.3000 
    221 H221       -4.2229  -19.8702  -51.9748 H         1 UNK         0.0600 
    222 H222       -5.7432  -17.4116  -50.9604 H         1 UNK         0.0600 
    223 H223       -4.0334  -17.7447  -50.6823 H         1 UNK         0.0600 
    224 H224       -4.6247  -17.4606  -52.3104 H         1 UNK         0.0600 
    225 H225       -6.6089  -21.5258  -51.6107 H         1 UNK         0.3000 
    226 H226       -8.4855  -20.6208  -53.7047 H         1 UNK         0.0600 
    227 H227       -9.3629  -21.8416  -51.7191 H         1 UNK         0.0600 
    228 H228       -9.6465  -22.7476  -53.1989 H         1 UNK         0.0600 
    229 H229       -8.3530  -23.2296  -52.1105 H         1 UNK         0.0600 
    230 H230       -5.6260  -22.6395  -53.3074 H         1 UNK         0.3000 
    231 H231       -5.7606  -24.0188  -55.8438 H         1 UNK         0.0600 
    232 H232       -4.3999  -24.8030  -53.8685 H         1 UNK         0.0600 
    233 H233       -3.3644  -23.3831  -54.0348 H         1 UNK         0.0600 
    234 H234       -3.4082  -24.5998  -55.3031 H         1 UNK         0.0600 
    235 H235       -4.2609  -23.6619  -57.6253 H         1 UNK         0.3000 
    236 H236       -4.2885  -20.9987  -58.6236 H         1 UNK         0.0600 
    237 H237       -3.0994  -22.0262  -60.5658 H         1 UNK         0.0600 
    238 H238       -2.8347  -23.4995  -59.6414 H         1 UNK         0.0600 
    239 H239       -4.4721  -23.0031  -60.0723 H         1 UNK         0.0600 
    240 H240       -1.8815  -22.7706  -56.8845 H         1 UNK         0.3000 
    241 H241        0.1490  -22.5269  -56.2051 H         1 UNK         0.0600 
    242 H242        1.6065  -20.5115  -59.3021 H         1 UNK         0.3800 
    243 H243       -0.1262  -20.6793  -59.0691 H         1 UNK         0.3800 
    244 H244       -0.9721  -21.2350  -54.5757 H         1 UNK         0.0800 
    245 H245        0.6068  -20.5549  -54.7844 H         1 UNK         0.0800 
    246 H246       -2.7180  -19.8890  -53.9751 H         1 UNK         0.0800 
    247 H247       -3.0964  -18.2736  -54.4908 H         1 UNK         0.0800 
@<TRIPOS>BOND
     1    1    2 1    
     2    1  127 1    
     3    1  128 1    
     4    1  129 1    
     5    2    3 2    
     6    2    4 am   BACKBONE|DICT|INTERRES
     7    4    5 1    
     8    4  130 1    
     9    5    6 1    
    10    5   65 1    
    11    5  131 1    
    12    6    7 1    
    13    6  132 1    
    14    6  133 1    
    15    7    8 1    
    16    8    9 1    
    17    8  134 1    
    18    8  135 1    
    19    9   10 ar   
    20    9   14 ar   
    21   10   11 ar   
    22   10  136 1    
    23   11   12 ar   
    24   11  126 1    
    25   12   13 ar   
    26   12  137 1    
    27   13   14 ar   
    28   13   15 1    
    29   14  138 1    
    30   15   16 1    
    31   15  139 1    
    32   15  140 1    
    33   16   17 1    
    34   17   18 1    
    35   17  141 1    
    36   17  142 1    
    37   18   19 1    
    38   18   67 1    
    39   18  143 1    
    40   19   20 am   BACKBONE|DICT|INTERRES
    41   19  144 1    
    42   20   21 2    
    43   20   22 1    
    44   22   23 1    
    45   22   24 1    
    46   22  145 1    
    47   23  146 1    
    48   23  147 1    
    49   23  148 1    
    50   24   25 am   BACKBONE|DICT|INTERRES
    51   24  149 1    
    52   25   26 2    
    53   25   27 1    
    54   27   28 1    
    55   27   29 1    
    56   27  150 1    
    57   28  151 1    
    58   28  152 1    
    59   28  153 1    
    60   29   30 am   BACKBONE|DICT|INTERRES
    61   29  154 1    
    62   30   31 2    
    63   30   32 1    
    64   32   33 1    
    65   32   34 1    
    66   32  155 1    
    67   33  156 1    
    68   33  157 1    
    69   33  158 1    
    70   34   35 am   BACKBONE|DICT|INTERRES
    71   34  159 1    
    72   35   36 2    
    73   35   37 1    
    74   37   38 1    
    75   37   39 1    
    76   37  160 1    
    77   38  161 1    
    78   38  162 1    
    79   38  163 1    
    80   39   40 am   BACKBONE|DICT|INTERRES
    81   39  164 1    
    82   40   41 2    
    83   40   42 1    
    84   42   43 1    
    85   42   44 1    
    86   42  165 1    
    87   43  166 1    
    88   43  167 1    
    89   43  168 1    
    90   44   45 am   BACKBONE|DICT|INTERRES
    91   44  169 1    
    92   45   46 2    
    93   45   47 1    
    94   47   48 1    
    95   47   49 1    
    96   47  170 1    
    97   48  171 1    
    98   48  172 1    
    99   48  173 1    
   100   49   50 am   BACKBONE|DICT|INTERRES
   101   49  174 1    
   102   50   51 2    
   103   50   52 1    
   104   52   53 1    
   105   52   54 1    
   106   52  175 1    
   107   53  176 1    
   108   53  177 1    
   109   53  178 1    
   110   54   55 am   BACKBONE|DICT|INTERRES
   111   54  179 1    
   112   55   56 2    
   113   55   57 1    
   114   57   58 1    
   115   57   59 1    
   116   57  180 1    
   117   58  181 1    
   118   58  182 1    
   119   58  183 1    
   120   59   60 am   BACKBONE|DICT|INTERRES
   121   59  184 1    
   122   60   61 2    
   123   60   62 1    
   124   62   63 1    
   125   62   64 1    
   126   62  185 1    
   127   63  186 1    
   128   63  187 1    
   129   63  188 1    
   130   64   65 am   BACKBONE|DICT|INTERRES
   131   64  189 1    
   132   65   66 2    
   133   67   68 2    
   134   67   69 am   BACKBONE|DICT|INTERRES
   135   69   70 1    
   136   69  190 1    
   137   70   71 1    
   138   70   72 1    
   139   70  191 1    
   140   71  192 1    
   141   71  193 1    
   142   71  194 1    
   143   72   73 2    
   144   72   74 am   BACKBONE|DICT|INTERRES
   145   74   75 1    
   146   74  195 1    
   147   75   76 1    
   148   75   77 1    
   149   75  196 1    
   150   76  197 1    
   151   76  198 1    
   152   76  199 1    
   153   77   78 2    
   154   77   79 am   BACKBONE|DICT|INTERRES
   155   79   80 1    
   156   79  200 1    
   157   80   81 1    
   158   80   82 1    
   159   80  201 1    
   160   81  202 1    
   161   81  203 1    
   162   81  204 1    
   163   82   83 2    
   164   82   84 am   BACKBONE|DICT|INTERRES
   165   84   85 1    
   166   84  205 1    
   167   85   86 1    
   168   85   87 1    
   169   85  206 1    
   170   86  207 1    
   171   86  208 1    
   172   86  209 1    
   173   87   88 2    
   174   87   89 am   BACKBONE|DICT|INTERRES
   175   89   90 1    
   176   89  210 1    
   177   90   91 1    
   178   90   92 1    
   179   90  211 1    
   180   91  212 1    
   181   91  213 1    
   182   91  214 1    
   183   92   93 2    
   184   92   94 am   BACKBONE|DICT|INTERRES
   185   94   95 1    
   186   94  215 1    
   187   95   96 1    
   188   95   97 1    
   189   95  216 1    
   190   96  217 1    
   191   96  218 1    
   192   96  219 1    
   193   97   98 2    
   194   97   99 am   BACKBONE|DICT|INTERRES
   195   99  100 1    
   196   99  220 1    
   197  100  101 1    
   198  100  102 1    
   199  100  221 1    
   200  101  222 1    
   201  101  223 1    
   202  101  224 1    
   203  102  103 2    
   204  102  104 am   BACKBONE|DICT|INTERRES
   205  104  105 1    
   206  104  225 1    
   207  105  106 1    
   208  105  107 1    
   209  105  226 1    
   210  106  227 1    
   211  106  228 1    
   212  106  229 1    
   213  107  108 2    
   214  107  109 am   BACKBONE|DICT|INTERRES
   215  109  110 1    
   216  109  230 1    
   217  110  111 1    
   218  110  112 1    
   219  110  231 1    
   220  111  232 1    
   221  111  233 1    
   222  111  234 1    
   223  112  113 2    
   224  112  114 am   BACKBONE|DICT|INTERRES
   225  114  115 1    
   226  114  235 1    
   227  115  116 1    
   228  115  117 1    
   229  115  236 1    
   230  116  237 1    
   231  116  238 1    
   232  116  239 1    
   233  117  118 2    
   234  117  119 am   BACKBONE|DICT|INTERRES
   235  119  120 1    
   236  119  240 1    
   237  120  121 1    
   238  120  124 1    
   239  120  241 1    
   240  121  122 am   BACKBONE|DICT|INTERRES
   241  121  123 2    
   242  122  242 1    
   243  122  243 1    
   244  124  125 1    
   245  124  244 1    
   246  124  245 1    
   247  125  126 1    
   248  126  246 1    
   249  126  247 1    
@<TRIPOS>SUBSTRUCTURE
     1 UNK         1 GROUP             0       ****    0 ROOT    
