@<TRIPOS>MOLECULE
3R540
247   249    1
SMALL
USER_CHARGES


@<TRIPOS>ATOM
      1 CA          5.3798  -14.3798  -45.5476 C.3       0 UNK        -0.1800 
      2 C           4.3008  -13.9966  -46.5501 C.2       0 UNK         0.5000 
      3 O           4.6161  -13.6510  -47.6886 O.2       0 UNK        -0.5000 
      4 N           3.0339  -14.0640  -46.1269 N.am      1 UNK        -0.5000 
      5 CA          1.8323  -13.7363  -46.8977 C.3       1 UNK         0.1400 
      6 C6          1.5778  -14.7143  -48.0768 C.3       23 UNK        -0.0398 
      7 S7         -0.2005  -15.0686  -48.2589 S.3       23 UNK        -0.2404 
      8 C8         -0.1675  -16.5532  -49.3069 C.3       23 UNK        -0.0205 
      9 C9         -1.3966  -17.4078  -49.0512 C.ar      23 UNK        -0.0193 
     10 C10        -2.6287  -17.0656  -49.6170 C.ar      23 UNK        -0.1150 
     11 C11        -3.7700  -17.8293  -49.3509 C.ar      23 UNK        -0.0193 
     12 C12        -3.6664  -18.9429  -48.5111 C.ar      23 UNK        -0.1150 
     13 C13        -2.4346  -19.3088  -47.9628 C.ar      23 UNK        -0.0193 
     14 C14        -1.3040  -18.5353  -48.2320 C.ar      23 UNK        -0.1150 
     15 C15        -2.3153  -20.5586  -47.1112 C.3       23 UNK        -0.0205 
     16 S16        -2.1445  -20.1688  -45.3426 S.3       23 UNK        -0.2404 
     17 C17        -2.1750  -21.7968  -44.4939 C.3       23 UNK        -0.0398 
     18 CA         -1.8450  -23.0481  -45.3488 C.3       11 UNK         0.1400 
     19 N          -0.4833  -23.0158  -45.8994 N.am      11 UNK        -0.5000 
     20 C          -0.0194  -23.8531  -46.8413 C.2       10 UNK         0.5000 
     21 O          -0.7121  -24.7335  -47.3525 O.2       10 UNK        -0.5000 
     22 CA          1.4482  -23.7110  -47.2888 C.3       10 UNK         0.1400 
     23 CB          1.5164  -22.9249  -48.6065 C.3       10 UNK        -0.1800 
     24 N           2.3133  -23.0565  -46.3086 N.am      10 UNK        -0.5000 
     25 C           2.5477  -23.4726  -45.0557 C.2       9 UNK         0.5000 
     26 O           2.1116  -24.5263  -44.5920 O.2       9 UNK        -0.5000 
     27 CA          3.3467  -22.5104  -44.1512 C.3       9 UNK         0.1400 
     28 CB          4.8271  -22.9175  -44.1109 C.3       9 UNK        -0.1800 
     29 N           3.2461  -21.0968  -44.5439 N.am      9 UNK        -0.5000 
     30 C           2.1028  -20.4031  -44.6359 C.2       8 UNK         0.5000 
     31 O           0.9931  -20.8893  -44.4044 O.2       8 UNK        -0.5000 
     32 CA          2.2153  -18.9514  -45.1206 C.3       8 UNK         0.1400 
     33 CB          2.6127  -18.8884  -46.6064 C.3       8 UNK        -0.1800 
     34 N           0.9271  -18.2910  -44.9400 N.am      8 UNK        -0.5000 
     35 C           0.7630  -17.0058  -44.6220 C.2       7 UNK         0.5000 
     36 O           1.6971  -16.2117  -44.4766 O.2       7 UNK        -0.5000 
     37 CA         -0.6835  -16.5349  -44.4107 C.3       7 UNK         0.1400 
     38 CB         -1.2772  -17.1192  -43.1150 C.3       7 UNK        -0.1800 
     39 N          -0.6838  -15.0796  -44.3400 N.am      7 UNK        -0.5000 
     40 C          -1.7193  -14.2646  -44.5524 C.2       6 UNK         0.5000 
     41 O          -2.8561  -14.6642  -44.8089 O.2       6 UNK        -0.5000 
     42 CA         -1.4293  -12.7504  -44.4397 C.3       6 UNK         0.1400 
     43 CB         -2.6992  -11.8888  -44.5520 C.3       6 UNK        -0.1800 
     44 N          -0.7420  -12.4049  -43.1934 N.am      6 UNK        -0.5000 
     45 C           0.5657  -12.5486  -42.9483 C.2       5 UNK         0.5000 
     46 O           1.3563  -13.0175  -43.7680 O.2       5 UNK        -0.5000 
     47 CA          1.0617  -12.0779  -41.5681 C.3       5 UNK         0.1400 
     48 CB          2.5831  -12.2410  -41.3980 C.3       5 UNK        -0.1800 
     49 N           0.7111  -10.6763  -41.3487 N.am      5 UNK        -0.5000 
     50 C          -0.4454  -10.2324  -40.8390 C.2       4 UNK         0.5000 
     51 O          -1.3534  -10.9784  -40.4705 O.2       4 UNK        -0.5000 
     52 CA         -0.6330   -8.7046  -40.7496 C.3       4 UNK         0.1400 
     53 CB         -0.2715   -8.2006  -39.3441 C.3       4 UNK        -0.1800 
     54 N           0.1620   -7.9726  -41.7383 N.am      4 UNK        -0.5000 
     55 C          -0.0912   -7.9565  -43.0537 C.2       3 UNK         0.5000 
     56 O          -1.0746   -8.4996  -43.5613 O.2       3 UNK        -0.5000 
     57 CA          0.9155   -7.2223  -43.9670 C.3       3 UNK         0.1400 
     58 CB          2.1776   -6.7028  -43.2401 C.3       3 UNK        -0.1800 
     59 N           1.2903   -8.0447  -45.1225 N.am      3 UNK        -0.5000 
     60 C           1.8574   -9.2589  -45.0923 C.2       2 UNK         0.5000 
     61 O           2.2044   -9.8385  -44.0603 O.2       2 UNK        -0.5000 
     62 CA          2.1012   -9.9206  -46.4539 C.3       2 UNK         0.1400 
     63 CB          3.4577   -9.4883  -47.0385 C.3       2 UNK        -0.1800 
     64 N           2.0679  -11.3715  -46.3046 N.am      2 UNK        -0.5000 
     65 C           1.7729  -12.2393  -47.2795 C.2       1 UNK         0.5000 
     66 O           1.4804  -11.8940  -48.4261 O.2       1 UNK        -0.5000 
     67 C          -2.1400  -24.3495  -44.5712 C.2       11 UNK         0.5000 
     68 O          -3.2972  -24.7676  -44.5257 O.2       11 UNK        -0.5000 
     69 N          -1.0972  -25.0123  -44.0471 N.am      12 UNK        -0.5000 
     70 CA         -1.1828  -26.3455  -43.4426 C.3       12 UNK         0.1400 
     71 CB          0.1158  -26.6294  -42.6728 C.3       12 UNK        -0.1800 
     72 C          -1.4566  -27.4653  -44.4711 C.2       12 UNK         0.5000 
     73 O          -1.8989  -28.5463  -44.0818 O.2       12 UNK        -0.5000 
     74 N          -1.2043  -27.1849  -45.7565 N.am      13 UNK        -0.5000 
     75 CA         -1.4283  -28.0704  -46.8973 C.3       13 UNK         0.1400 
     76 CB         -0.1009  -28.2195  -47.6635 C.3       13 UNK        -0.1800 
     77 C          -2.5573  -27.5346  -47.8017 C.2       13 UNK         0.5000 
     78 O          -2.5561  -27.8137  -49.0010 O.2       13 UNK        -0.5000 
     79 N          -3.4889  -26.7556  -47.2271 N.am      14 UNK        -0.5000 
     80 CA         -4.6465  -26.1342  -47.8851 C.3       14 UNK         0.1400 
     81 CB         -5.6581  -27.2084  -48.3371 C.3       14 UNK        -0.1800 
     82 C          -4.2364  -25.1783  -49.0249 C.2       14 UNK         0.5000 
     83 O          -4.7525  -25.2743  -50.1398 O.2       14 UNK        -0.5000 
     84 N          -3.2697  -24.3010  -48.7212 N.am      15 UNK        -0.5000 
     85 CA         -2.6135  -23.3572  -49.6329 C.3       15 UNK         0.1400 
     86 CB         -3.6114  -22.3101  -50.1658 C.3       15 UNK        -0.1800 
     87 C          -1.8381  -24.0886  -50.7450 C.2       15 UNK         0.5000 
     88 O          -1.9129  -23.6986  -51.9112 O.2       15 UNK        -0.5000 
     89 N          -1.1398  -25.1634  -50.3449 N.am      16 UNK        -0.5000 
     90 CA         -0.4261  -26.1298  -51.1867 C.3       16 UNK         0.1400 
     91 CB          0.8571  -25.5012  -51.7654 C.3       16 UNK        -0.1800 
     92 C          -1.3457  -26.7560  -52.2567 C.2       16 UNK         0.5000 
     93 O          -1.0166  -26.7501  -53.4434 O.2       16 UNK        -0.5000 
     94 N          -2.5026  -27.2543  -51.7967 N.am      17 UNK        -0.5000 
     95 CA         -3.6232  -27.7810  -52.5801 C.3       17 UNK         0.1400 
     96 CB         -3.2325  -29.1018  -53.2756 C.3       17 UNK        -0.1800 
     97 C          -4.2079  -26.7277  -53.5459 C.2       17 UNK         0.5000 
     98 O          -4.3656  -26.9969  -54.7385 O.2       17 UNK        -0.5000 
     99 N          -4.5149  -25.5439  -52.9945 N.am      18 UNK        -0.5000 
    100 CA        -5.0790  -24.3672  -53.6635 C.3       18 UNK         0.1400 
    101 CB        -6.5393  -24.6344  -54.0837 C.3       18 UNK        -0.1800 
    102 C         -4.2022  -23.8327  -54.8173 C.2       18 UNK         0.5000 
    103 O         -4.7167  -23.5138  -55.8911 O.2       18 UNK        -0.5000 
    104 N         -2.8880  -23.7417  -54.5747 N.am      19 UNK        -0.5000 
    105 CA        -1.9168  -23.1608  -55.5035 C.3       19 UNK         0.1400 
    106 CB        -0.5183  -23.7077  -55.1849 C.3       19 UNK        -0.1800 
    107 C         -1.9109  -21.6218  -55.4497 C.2       19 UNK         0.5000 
    108 O         -1.5715  -20.9820  -56.4466 O.2       19 UNK        -0.5000 
    109 N         -2.2806  -21.0559  -54.2921 N.am      20 UNK        -0.5000 
    110 CA        -2.4499  -19.6187  -54.0792 C.3       20 UNK         0.1400 
    111 CB        -2.5305  -19.3496  -52.5690 C.3       20 UNK        -0.1800 
    112 C         -3.7045  -19.0738  -54.7901 C.2       20 UNK         0.5000 
    113 O         -4.5946  -19.8431  -55.1622 O.2       20 UNK        -0.5000 
    114 N         -3.7740  -17.7418  -54.9226 N.am      21 UNK        -0.5000 
    115 CA        -4.8527  -17.0015  -55.5921 C.3       21 UNK         0.1400 
    116 CB        -4.5008  -15.5057  -55.5910 C.3       21 UNK        -0.1800 
    117 C         -6.2613  -17.2219  -54.9998 C.2       21 UNK         0.5000 
    118 O         -7.2509  -17.0439  -55.7113 O.2       21 UNK        -0.5000 
    119 N         -6.3254  -17.6212  -53.7244 N.am      22 UNK        -0.5000 
    120 CA        -7.5422  -18.0792  -53.0382 C.3       22 UNK         0.1400 
    121 C         -8.0514  -19.4888  -53.4713 C.2       22 UNK         0.5000 
    122 N         -7.3038  -20.2747  -54.2379 N.am      22 UNK        -0.7600 
    123 O         -9.1637  -19.8707  -53.1170 O.2       22 UNK        -0.5000 
    124 C124       -7.4048  -17.9637  -51.4975 C.3       23 UNK        -0.0398 
    125 S125       -5.9256  -18.8053  -50.8273 S.3       23 UNK        -0.2404 
    126 C126       -5.1147  -17.4312  -49.9460 C.3       23 UNK        -0.0205 
    127 H127        5.9694  -15.2129  -45.9304 H         1 UNK         0.0600 
    128 H128        4.9532  -14.6774  -44.5891 H         1 UNK         0.0600 
    129 H129        6.0485  -13.5365  -45.3753 H         1 UNK         0.0600 
    130 H130        2.8421  -14.3737  -45.1805 H         1 UNK         0.3000 
    131 H131        1.0255  -13.8766  -46.1813 H         1 UNK         0.0600 
    132 H132        2.0774  -15.6627  -47.8776 H         1 UNK         0.0800 
    133 H133        1.9935  -14.3526  -49.0186 H         1 UNK         0.0800 
    134 H134        0.7355  -17.1338  -49.1125 H         1 UNK         0.0800 
    135 H135       -0.1258  -16.2575  -50.3561 H         1 UNK         0.0800 
    136 H136       -2.6982  -16.1919  -50.2496 H         1 UNK         0.1150 
    137 H137       -4.5460  -19.5342  -48.2991 H         1 UNK         0.1150 
    138 H138       -0.3540  -18.8097  -47.7967 H         1 UNK         0.1150 
    139 H139       -3.1911  -21.1910  -47.2578 H         1 UNK         0.0800 
    140 H140       -1.4471  -21.1198  -47.4528 H         1 UNK         0.0800 
    141 H141       -3.1738  -21.8964  -44.0648 H         1 UNK         0.0800 
    142 H142       -1.4950  -21.7386  -43.6423 H         1 UNK         0.0800 
    143 H143       -2.5356  -23.0706  -46.1910 H         1 UNK         0.0600 
    144 H144        0.1359  -22.3150  -45.5024 H         1 UNK         0.3000 
    145 H145        1.8355  -24.7171  -47.4608 H         1 UNK         0.0600 
    146 H146        1.1665  -21.8991  -48.4824 H         1 UNK         0.0600 
    147 H147        2.5354  -22.8882  -48.9921 H         1 UNK         0.0600 
    148 H148        0.8994  -23.3891  -49.3755 H         1 UNK         0.0600 
    149 H149        2.7204  -22.1775  -46.5900 H         1 UNK         0.3000 
    150 H150        2.9379  -22.6020  -43.1429 H         1 UNK         0.0600 
    151 H151        4.9385  -23.9567  -43.7983 H         1 UNK         0.0600 
    152 H152        5.3860  -22.3057  -43.4024 H         1 UNK         0.0600 
    153 H153        5.2990  -22.8164  -45.0890 H         1 UNK         0.0600 
    154 H154        4.1169  -20.6319  -44.7576 H         1 UNK         0.3000 
    155 H155        2.9776  -18.4567  -44.5150 H         1 UNK         0.0600 
    156 H156        3.5955  -19.3302  -46.7731 H         1 UNK         0.0600 
    157 H157        2.6619  -17.8575  -46.9564 H         1 UNK         0.0600 
    158 H158        1.9009  -19.4221  -47.2369 H         1 UNK         0.0600 
    159 H159        0.1304  -18.9176  -44.9563 H         1 UNK         0.3000 
    160 H160       -1.2759  -16.8554  -45.2709 H         1 UNK         0.0600 
    161 H161       -2.3155  -16.8151  -42.9830 H         1 UNK         0.0600 
    162 H162       -0.7184  -16.7928  -42.2372 H         1 UNK         0.0600 
    163 H163       -1.2619  -18.2094  -43.1269 H         1 UNK         0.0600 
    164 H164        0.2315  -14.6744  -44.1605 H         1 UNK         0.3000 
    165 H165       -0.7833  -12.4853  -45.2786 H         1 UNK         0.0600 
    166 H166       -3.4009  -12.0993  -43.7440 H         1 UNK         0.0600 
    167 H167       -2.4574  -10.8262  -44.5174 H         1 UNK         0.0600 
    168 H168       -3.2158  -12.0711  -45.4952 H         1 UNK         0.0600 
    169 H169       -1.3181  -12.0263  -42.4522 H         1 UNK         0.3000 
    170 H170        0.5747  -12.7018  -40.8159 H         1 UNK         0.0600 
    171 H171        3.1360  -11.6494  -42.1288 H         1 UNK         0.0600 
    172 H172        2.9038  -11.9303  -40.4037 H         1 UNK         0.0600 
    173 H173        2.8815  -13.2825  -41.5246 H         1 UNK         0.0600 
    174 H174        1.3627   -9.9992  -41.7214 H         1 UNK         0.3000 
    175 H175       -1.6889   -8.4903  -40.9279 H         1 UNK         0.0600 
    176 H176        0.7795   -8.3762  -39.1109 H         1 UNK         0.0600 
    177 H177       -0.4641   -7.1320  -39.2463 H         1 UNK         0.0600 
    178 H178       -0.8658   -8.7076  -38.5828 H         1 UNK         0.0600 
    179 H179        0.9867   -7.4996  -41.3979 H         1 UNK         0.3000 
    180 H180        0.3848   -6.3561  -44.3644 H         1 UNK         0.0600 
    181 H181        2.7471   -7.5079  -42.7744 H         1 UNK         0.0600 
    182 H182        1.9196   -5.9814  -42.4639 H         1 UNK         0.0600 
    183 H183        2.8428   -6.1922  -43.9365 H         1 UNK         0.0600 
    184 H184        1.0275   -7.6639  -46.0206 H         1 UNK         0.3000 
    185 H185        1.3004   -9.6121  -47.1294 H         1 UNK         0.0600 
    186 H186        3.6197   -9.9198  -48.0264 H         1 UNK         0.0600 
    187 H187        3.5122   -8.4043  -47.1455 H         1 UNK         0.0600 
    188 H188        4.2849   -9.7986  -46.3988 H         1 UNK         0.0600 
    189 H189        2.2374  -11.7133  -45.3632 H         1 UNK         0.3000 
    190 H190       -0.1668  -24.6262  -44.1522 H         1 UNK         0.3000 
    191 H191       -2.0093  -26.3451  -42.7289 H         1 UNK         0.0600 
    192 H192        0.9774  -26.6713  -43.3400 H         1 UNK         0.0600 
    193 H193        0.3081  -25.8615  -41.9233 H         1 UNK         0.0600 
    194 H194        0.0594  -27.5856  -42.1511 H         1 UNK         0.0600 
    195 H195       -0.8764  -26.2567  -45.9966 H         1 UNK         0.3000 
    196 H196       -1.7394  -29.0606  -46.5597 H         1 UNK         0.0600 
    197 H197        0.6826  -28.6131  -47.0160 H         1 UNK         0.0600 
    198 H198        0.2441  -27.2641  -48.0599 H         1 UNK         0.0600 
    199 H199       -0.2018  -28.9097  -48.5020 H         1 UNK         0.0600 
    200 H200       -3.3934  -26.5620  -46.2391 H         1 UNK         0.3000 
    201 H201       -5.1365  -25.5173  -47.1304 H         1 UNK         0.0600 
    202 H202       -6.5679  -26.7482  -48.7244 H         1 UNK         0.0600 
    203 H203       -5.9486  -27.8504  -47.5057 H         1 UNK         0.0600 
    204 H204       -5.2539  -27.8436  -49.1258 H         1 UNK         0.0600 
    205 H205       -2.8296  -24.3958  -47.8162 H         1 UNK         0.3000 
    206 H206       -1.8657  -22.8251  -49.0465 H         1 UNK         0.0600 
    207 H207       -4.3188  -22.7388  -50.8740 H         1 UNK         0.0600 
    208 H208       -3.0814  -21.5065  -50.6738 H         1 UNK         0.0600 
    209 H209       -4.1867  -21.8587  -49.3587 H         1 UNK         0.0600 
    210 H210       -1.1536  -25.3748  -49.3544 H         1 UNK         0.3000 
    211 H211       -0.1228  -26.9490  -50.5336 H         1 UNK         0.0600 
    212 H212        1.5235  -25.1682  -50.9702 H         1 UNK         0.0600 
    213 H213        1.4102  -26.2224  -52.3680 H         1 UNK         0.0600 
    214 H214        0.6384  -24.6430  -52.3990 H         1 UNK         0.0600 
    215 H215       -2.6425  -27.2561  -50.7884 H         1 UNK         0.3000 
    216 H216       -4.4129  -28.0095  -51.8627 H         1 UNK         0.0600 
    217 H217       -4.0958  -29.5536  -53.7654 H         1 UNK         0.0600 
    218 H218       -2.4673  -28.9506  -54.0374 H         1 UNK         0.0600 
    219 H219       -2.8514  -29.8269  -52.5566 H         1 UNK         0.0600 
    220 H220       -4.3817  -25.4420  -51.9907 H         1 UNK         0.3000 
    221 H221       -5.1000  -23.5750  -52.9152 H         1 UNK         0.0600 
    222 H222       -6.6046  -25.3951  -54.8621 H         1 UNK         0.0600 
    223 H223       -7.1372  -24.9690  -53.2359 H         1 UNK         0.0600 
    224 H224       -7.0067  -23.7284  -54.4708 H         1 UNK         0.0600 
    225 H225       -2.5381  -23.9891  -53.6514 H         1 UNK         0.3000 
    226 H226       -2.1740  -23.4613  -56.5214 H         1 UNK         0.0600 
    227 H227       -0.4949  -24.7954  -55.2485 H         1 UNK         0.0600 
    228 H228        0.2210  -23.3248  -55.8895 H         1 UNK         0.0600 
    229 H229       -0.1973  -23.4198  -54.1840 H         1 UNK         0.0600 
    230 H230       -2.5493  -21.6647  -53.5328 H         1 UNK         0.3000 
    231 H231       -1.5737  -19.1057  -54.4810 H         1 UNK         0.0600 
    232 H232       -2.5555  -18.2799  -52.3592 H         1 UNK         0.0600 
    233 H233       -1.6693  -19.7605  -52.0417 H         1 UNK         0.0600 
    234 H234       -3.4308  -19.7851  -52.1370 H         1 UNK         0.0600 
    235 H235       -3.0102  -17.1820  -54.5718 H         1 UNK         0.3000 
    236 H236       -4.8857  -17.3434  -56.6286 H         1 UNK         0.0600 
    237 H237       -3.5555  -15.3209  -56.1015 H         1 UNK         0.0600 
    238 H238       -5.2651  -14.9229  -56.1072 H         1 UNK         0.0600 
    239 H239       -4.4188  -15.1135  -54.5765 H         1 UNK         0.0600 
    240 H240       -5.4629  -17.7593  -53.2195 H         1 UNK         0.3000 
    241 H241       -8.3423  -17.3950  -53.3272 H         1 UNK         0.0600 
    242 H242       -7.6650  -21.1721  -54.5161 H         1 UNK         0.3800 
    243 H243       -6.3753  -19.9954  -54.5441 H         1 UNK         0.3800 
    244 H244       -7.3706  -16.9080  -51.2258 H         1 UNK         0.0800 
    245 H245       -8.2889  -18.3593  -50.9944 H         1 UNK         0.0800 
    246 H246       -5.7662  -17.0843  -49.1429 H         1 UNK         0.0800 
    247 H247       -4.9923  -16.5940  -50.6351 H         1 UNK         0.0800 
@<TRIPOS>BOND
     1    1    2 1    
     2    1  127 1    
     3    1  128 1    
     4    1  129 1    
     5    2    3 2    
     6    2    4 am   BACKBONE|DICT|INTERRES
     7    4    5 1    
     8    4  130 1    
     9    5    6 1    
    10    5   65 1    
    11    5  131 1    
    12    6    7 1    
    13    6  132 1    
    14    6  133 1    
    15    7    8 1    
    16    8    9 1    
    17    8  134 1    
    18    8  135 1    
    19    9   10 ar   
    20    9   14 ar   
    21   10   11 ar   
    22   10  136 1    
    23   11   12 ar   
    24   11  126 1    
    25   12   13 ar   
    26   12  137 1    
    27   13   14 ar   
    28   13   15 1    
    29   14  138 1    
    30   15   16 1    
    31   15  139 1    
    32   15  140 1    
    33   16   17 1    
    34   17   18 1    
    35   17  141 1    
    36   17  142 1    
    37   18   19 1    
    38   18   67 1    
    39   18  143 1    
    40   19   20 am   BACKBONE|DICT|INTERRES
    41   19  144 1    
    42   20   21 2    
    43   20   22 1    
    44   22   23 1    
    45   22   24 1    
    46   22  145 1    
    47   23  146 1    
    48   23  147 1    
    49   23  148 1    
    50   24   25 am   BACKBONE|DICT|INTERRES
    51   24  149 1    
    52   25   26 2    
    53   25   27 1    
    54   27   28 1    
    55   27   29 1    
    56   27  150 1    
    57   28  151 1    
    58   28  152 1    
    59   28  153 1    
    60   29   30 am   BACKBONE|DICT|INTERRES
    61   29  154 1    
    62   30   31 2    
    63   30   32 1    
    64   32   33 1    
    65   32   34 1    
    66   32  155 1    
    67   33  156 1    
    68   33  157 1    
    69   33  158 1    
    70   34   35 am   BACKBONE|DICT|INTERRES
    71   34  159 1    
    72   35   36 2    
    73   35   37 1    
    74   37   38 1    
    75   37   39 1    
    76   37  160 1    
    77   38  161 1    
    78   38  162 1    
    79   38  163 1    
    80   39   40 am   BACKBONE|DICT|INTERRES
    81   39  164 1    
    82   40   41 2    
    83   40   42 1    
    84   42   43 1    
    85   42   44 1    
    86   42  165 1    
    87   43  166 1    
    88   43  167 1    
    89   43  168 1    
    90   44   45 am   BACKBONE|DICT|INTERRES
    91   44  169 1    
    92   45   46 2    
    93   45   47 1    
    94   47   48 1    
    95   47   49 1    
    96   47  170 1    
    97   48  171 1    
    98   48  172 1    
    99   48  173 1    
   100   49   50 am   BACKBONE|DICT|INTERRES
   101   49  174 1    
   102   50   51 2    
   103   50   52 1    
   104   52   53 1    
   105   52   54 1    
   106   52  175 1    
   107   53  176 1    
   108   53  177 1    
   109   53  178 1    
   110   54   55 am   BACKBONE|DICT|INTERRES
   111   54  179 1    
   112   55   56 2    
   113   55   57 1    
   114   57   58 1    
   115   57   59 1    
   116   57  180 1    
   117   58  181 1    
   118   58  182 1    
   119   58  183 1    
   120   59   60 am   BACKBONE|DICT|INTERRES
   121   59  184 1    
   122   60   61 2    
   123   60   62 1    
   124   62   63 1    
   125   62   64 1    
   126   62  185 1    
   127   63  186 1    
   128   63  187 1    
   129   63  188 1    
   130   64   65 am   BACKBONE|DICT|INTERRES
   131   64  189 1    
   132   65   66 2    
   133   67   68 2    
   134   67   69 am   BACKBONE|DICT|INTERRES
   135   69   70 1    
   136   69  190 1    
   137   70   71 1    
   138   70   72 1    
   139   70  191 1    
   140   71  192 1    
   141   71  193 1    
   142   71  194 1    
   143   72   73 2    
   144   72   74 am   BACKBONE|DICT|INTERRES
   145   74   75 1    
   146   74  195 1    
   147   75   76 1    
   148   75   77 1    
   149   75  196 1    
   150   76  197 1    
   151   76  198 1    
   152   76  199 1    
   153   77   78 2    
   154   77   79 am   BACKBONE|DICT|INTERRES
   155   79   80 1    
   156   79  200 1    
   157   80   81 1    
   158   80   82 1    
   159   80  201 1    
   160   81  202 1    
   161   81  203 1    
   162   81  204 1    
   163   82   83 2    
   164   82   84 am   BACKBONE|DICT|INTERRES
   165   84   85 1    
   166   84  205 1    
   167   85   86 1    
   168   85   87 1    
   169   85  206 1    
   170   86  207 1    
   171   86  208 1    
   172   86  209 1    
   173   87   88 2    
   174   87   89 am   BACKBONE|DICT|INTERRES
   175   89   90 1    
   176   89  210 1    
   177   90   91 1    
   178   90   92 1    
   179   90  211 1    
   180   91  212 1    
   181   91  213 1    
   182   91  214 1    
   183   92   93 2    
   184   92   94 am   BACKBONE|DICT|INTERRES
   185   94   95 1    
   186   94  215 1    
   187   95   96 1    
   188   95   97 1    
   189   95  216 1    
   190   96  217 1    
   191   96  218 1    
   192   96  219 1    
   193   97   98 2    
   194   97   99 am   BACKBONE|DICT|INTERRES
   195   99  100 1    
   196   99  220 1    
   197  100  101 1    
   198  100  102 1    
   199  100  221 1    
   200  101  222 1    
   201  101  223 1    
   202  101  224 1    
   203  102  103 2    
   204  102  104 am   BACKBONE|DICT|INTERRES
   205  104  105 1    
   206  104  225 1    
   207  105  106 1    
   208  105  107 1    
   209  105  226 1    
   210  106  227 1    
   211  106  228 1    
   212  106  229 1    
   213  107  108 2    
   214  107  109 am   BACKBONE|DICT|INTERRES
   215  109  110 1    
   216  109  230 1    
   217  110  111 1    
   218  110  112 1    
   219  110  231 1    
   220  111  232 1    
   221  111  233 1    
   222  111  234 1    
   223  112  113 2    
   224  112  114 am   BACKBONE|DICT|INTERRES
   225  114  115 1    
   226  114  235 1    
   227  115  116 1    
   228  115  117 1    
   229  115  236 1    
   230  116  237 1    
   231  116  238 1    
   232  116  239 1    
   233  117  118 2    
   234  117  119 am   BACKBONE|DICT|INTERRES
   235  119  120 1    
   236  119  240 1    
   237  120  121 1    
   238  120  124 1    
   239  120  241 1    
   240  121  122 am   BACKBONE|DICT|INTERRES
   241  121  123 2    
   242  122  242 1    
   243  122  243 1    
   244  124  125 1    
   245  124  244 1    
   246  124  245 1    
   247  125  126 1    
   248  126  246 1    
   249  126  247 1    
@<TRIPOS>SUBSTRUCTURE
     1 UNK         1 GROUP             0       ****    0 ROOT    
