@<TRIPOS>MOLECULE
3R540
247   249    1
SMALL
USER_CHARGES


@<TRIPOS>ATOM
      1 CA          2.4600  -18.0649  -48.8061 C.3       0 UNK        -0.1800 
      2 C           1.9266  -16.7078  -48.3733 C.2       0 UNK         0.5000 
      3 O           1.3066  -16.5984  -47.3187 O.2       0 UNK        -0.5000 
      4 N           2.1699  -15.6711  -49.1817 N.am      1 UNK        -0.5000 
      5 CA          1.6786  -14.3039  -48.9592 C.3       1 UNK         0.1400 
      6 C6          1.5158  -13.5355  -50.2929 C.3       23 UNK        -0.0398 
      7 S7          0.2787  -14.3335  -51.3727 S.3       23 UNK        -0.2404 
      8 C8         -1.2341  -13.4499  -50.8798 C.3       23 UNK        -0.0205 
      9 C9         -2.4018  -14.4043  -50.6859 C.ar      23 UNK        -0.0193 
     10 C10        -3.1518  -14.8281  -51.7868 C.ar      23 UNK        -0.1150 
     11 C11        -4.2606  -15.6615  -51.6123 C.ar      23 UNK        -0.0193 
     12 C12        -4.6125  -16.0768  -50.3252 C.ar      23 UNK        -0.1150 
     13 C13        -3.8671  -15.6644  -49.2166 C.ar      23 UNK        -0.0193 
     14 C14        -2.7589  -14.8324  -49.4030 C.ar      23 UNK        -0.1150 
     15 C15        -4.2906  -16.0869  -47.8182 C.3       23 UNK        -0.0205 
     16 S16        -3.6569  -17.7340  -47.3855 S.3       23 UNK        -0.2404 
     17 C17        -1.9347  -17.3547  -46.9231 C.3       23 UNK        -0.0398 
     18 CA         -1.1485  -18.4473  -46.1385 C.3       11 UNK         0.1400 
     19 N          -1.6877  -18.8251  -44.8245 N.am      11 UNK        -0.5000 
     20 C          -2.7089  -19.6462  -44.5438 C.2       10 UNK         0.5000 
     21 O          -3.4314  -20.1789  -45.3839 O.2       10 UNK        -0.5000 
     22 CA         -2.8885  -19.9745  -43.0464 C.3       10 UNK         0.1400 
     23 CB         -4.0122  -20.9972  -42.7781 C.3       10 UNK        -0.1800 
     24 N          -1.6356  -20.4186  -42.4231 N.am      10 UNK        -0.5000 
     25 C          -0.8572  -21.4420  -42.8107 C.2       9 UNK         0.5000 
     26 O          -1.1115  -22.1721  -43.7706 O.2       9 UNK        -0.5000 
     27 CA          0.4386  -21.6831  -42.0163 C.3       9 UNK         0.1400 
     28 CB          1.6510  -21.8437  -42.9512 C.3       9 UNK        -0.1800 
     29 N           0.7230  -20.6078  -41.0606 N.am      9 UNK        -0.5000 
     30 C           0.7642  -20.7735  -39.7327 C.2       8 UNK         0.5000 
     31 O           0.4543  -21.8216  -39.1645 O.2       8 UNK        -0.5000 
     32 CA          1.2635  -19.5935  -38.8849 C.3       8 UNK         0.1400 
     33 CB          2.7795  -19.7141  -38.6630 C.3       8 UNK        -0.1800 
     34 N           0.9655  -18.2774  -39.4534 N.am      8 UNK        -0.5000 
     35 C          -0.1844  -17.6250  -39.2362 C.2       7 UNK         0.5000 
     36 O          -1.1758  -18.1446  -38.7224 O.2       7 UNK        -0.5000 
     37 CA         -0.2202  -16.1311  -39.6065 C.3       7 UNK         0.1400 
     38 CB          0.7450  -15.3228  -38.7238 C.3       7 UNK        -0.1800 
     39 N           0.0896  -15.8843  -41.0101 N.am      7 UNK        -0.5000 
     40 C          -0.7439  -16.1405  -42.0262 C.2       6 UNK         0.5000 
     41 O          -1.8717  -16.6159  -41.8934 O.2       6 UNK        -0.5000 
     42 CA         -0.2059  -15.8545  -43.4390 C.3       6 UNK         0.1400 
     43 CB         -0.2829  -14.3585  -43.7750 C.3       6 UNK        -0.1800 
     44 N           1.1628  -16.3346  -43.6224 N.am      6 UNK        -0.5000 
     45 C           1.5574  -17.6072  -43.4845 C.2       5 UNK         0.5000 
     46 O           0.7860  -18.5395  -43.2568 O.2       5 UNK        -0.5000 
     47 CA          3.0665  -17.8820  -43.5743 C.3       5 UNK         0.1400 
     48 CB          3.5073  -18.0468  -45.0349 C.3       5 UNK        -0.1800 
     49 N           3.8597  -16.8340  -42.9315 N.am      5 UNK        -0.5000 
     50 C           3.9038  -16.6259  -41.6082 C.2       4 UNK         0.5000 
     51 O           3.2862  -17.3033  -40.7879 O.2       4 UNK        -0.5000 
     52 CA          4.7461  -15.4329  -41.1241 C.3       4 UNK         0.1400 
     53 CB          6.2426  -15.7785  -41.1391 C.3       4 UNK        -0.1800 
     54 N           4.5134  -14.2286  -41.9206 N.am      4 UNK        -0.5000 
     55 C           3.3520  -13.5606  -41.9545 C.2       3 UNK         0.5000 
     56 O           2.3629  -13.8722  -41.2906 O.2       3 UNK        -0.5000 
     57 CA          3.2702  -12.3683  -42.9271 C.3       3 UNK         0.1400 
     58 CB          3.8004  -11.0913  -42.2582 C.3       3 UNK        -0.1800 
     59 N           3.9708  -12.5768  -44.2004 N.am      3 UNK        -0.5000 
     60 C           3.7146  -13.5719  -45.0599 C.2       2 UNK         0.5000 
     61 O           2.9364  -14.4962  -44.8211 O.2       2 UNK        -0.5000 
     62 CA          4.4787  -13.5558  -46.3964 C.3       2 UNK         0.1400 
     63 CB          5.7557  -14.4029  -46.2868 C.3       2 UNK        -0.1800 
     64 N           3.6531  -14.0834  -47.4838 N.am      2 UNK        -0.5000 
     65 C           2.5344  -13.5071  -47.9478 C.2       1 UNK         0.5000 
     66 O           2.1620  -12.3842  -47.6024 O.2       1 UNK        -0.5000 
     67 C          -0.6693  -19.6596  -46.9636 C.2       11 UNK         0.5000 
     68 O          -0.8922  -19.7290  -48.1720 O.2       11 UNK        -0.5000 
     69 N           0.0134  -20.5796  -46.2623 N.am      12 UNK        -0.5000 
     70 CA          0.5988  -21.8313  -46.7464 C.3       12 UNK         0.1400 
     71 CB          1.7693  -21.5557  -47.7117 C.3       12 UNK        -0.1800 
     72 C          -0.4605  -22.7793  -47.3352 C.2       12 UNK         0.5000 
     73 O          -0.2967  -23.2722  -48.4515 O.2       12 UNK        -0.5000 
     74 N          -1.5240  -23.0340  -46.5608 N.am      13 UNK        -0.5000 
     75 CA         -2.7152  -23.7996  -46.9522 C.3       13 UNK         0.1400 
     76 CB         -3.7244  -23.7723  -45.7943 C.3       13 UNK        -0.1800 
     77 C          -2.4646  -25.2507  -47.4155 C.2       13 UNK         0.5000 
     78 O          -3.3392  -25.8445  -48.0470 O.2       13 UNK        -0.5000 
     79 N          -1.2811  -25.7961  -47.1087 N.am      14 UNK        -0.5000 
     80 CA         -0.8070  -27.0943  -47.5839 C.3       14 UNK         0.1400 
     81 CB          0.4087  -27.5091  -46.7403 C.3       14 UNK        -0.1800 
     82 C          -0.4492  -27.1152  -49.0863 C.2       14 UNK         0.5000 
     83 O          -0.3964  -28.2031  -49.6625 O.2       14 UNK        -0.5000 
     84 N          -0.1916  -25.9447  -49.6893 N.am      15 UNK        -0.5000 
     85 CA          0.2327  -25.8102  -51.0861 C.3       15 UNK         0.1400 
     86 CB          1.7565  -25.6087  -51.1328 C.3       15 UNK        -0.1800 
     87 C          -0.4859  -24.6709  -51.8290 C.2       15 UNK         0.5000 
     88 O          -0.7607  -24.8158  -53.0211 O.2       15 UNK        -0.5000 
     89 N          -0.7669  -23.5649  -51.1327 N.am      16 UNK        -0.5000 
     90 CA         -1.4388  -22.3760  -51.6470 C.3       16 UNK         0.1400 
     91 CB         -0.4890  -21.1714  -51.5006 C.3       16 UNK        -0.1800 
     92 C          -2.7895  -22.1905  -50.9284 C.2       16 UNK         0.5000 
     93 O          -3.4115  -23.1822  -50.5416 O.2       16 UNK        -0.5000 
     94 N          -3.2479  -20.9360  -50.8052 N.am      17 UNK        -0.5000 
     95 CA         -4.4946  -20.4549  -50.1851 C.3       17 UNK         0.1400 
     96 CB         -4.5939  -20.8954  -48.7124 C.3       17 UNK        -0.1800 
     97 C          -5.7854  -20.8295  -50.9431 C.2       17 UNK         0.5000 
     98 O          -6.7132  -20.0210  -50.9952 O.2       17 UNK        -0.5000 
     99 N          -5.8338  -22.0434  -51.5013 N.am      18 UNK        -0.5000 
    100 CA        -6.9255  -22.5736  -52.3111 C.3       18 UNK         0.1400 
    101 CB        -6.6921  -24.0792  -52.5114 C.3       18 UNK        -0.1800 
    102 C         -7.0316  -21.8719  -53.6757 C.2       18 UNK         0.5000 
    103 O         -6.0299  -21.3800  -54.2033 O.2       18 UNK        -0.5000 
    104 N         -8.2353  -21.9100  -54.2629 N.am      19 UNK        -0.5000 
    105 CA        -8.5596  -21.3466  -55.5789 C.3       19 UNK         0.1400 
    106 CB       -10.0635  -21.5152  -55.8401 C.3       19 UNK        -0.1800 
    107 C         -7.7412  -21.9419  -56.7426 C.2       19 UNK         0.5000 
    108 O         -7.5418  -21.2630  -57.7490 O.2       19 UNK        -0.5000 
    109 N         -7.2390  -23.1725  -56.5702 N.am      20 UNK        -0.5000 
    110 CA        -6.3132  -23.8367  -57.4899 C.3       20 UNK         0.1400 
    111 CB        -6.1123  -25.2886  -57.0294 C.3       20 UNK        -0.1800 
    112 C         -4.9522  -23.1194  -57.6191 C.2       20 UNK         0.5000 
    113 O         -4.3160  -23.2262  -58.6683 O.2       20 UNK        -0.5000 
    114 N         -4.5391  -22.4019  -56.5653 N.am      21 UNK        -0.5000 
    115 CA        -3.3311  -21.5807  -56.5376 C.3       21 UNK         0.1400 
    116 CB        -2.6119  -21.7916  -55.1966 C.3       21 UNK        -0.1800 
    117 C         -3.6736  -20.0958  -56.7375 C.2       21 UNK         0.5000 
    118 O         -3.0036  -19.4188  -57.5184 O.2       21 UNK        -0.5000 
    119 N         -4.7007  -19.6167  -56.0244 N.am      22 UNK        -0.5000 
    120 CA        -5.1405  -18.2130  -56.0259 C.3       22 UNK         0.1400 
    121 C         -5.8998  -17.7551  -57.3049 C.2       22 UNK         0.5000 
    122 N         -6.4398  -18.6419  -58.1298 N.am      22 UNK        -0.7600 
    123 O         -5.9909  -16.5578  -57.5619 O.2       22 UNK        -0.5000 
    124 C124       -5.9493  -17.8823  -54.7467 C.3       23 UNK        -0.0398 
    125 S125       -4.8818  -17.8103  -53.2663 S.3       23 UNK        -0.2404 
    126 C126       -5.1121  -16.0652  -52.8053 C.3       23 UNK        -0.0205 
    127 H127        1.6291  -18.7315  -49.0340 H         1 UNK         0.0600 
    128 H128        3.0521  -18.5116  -48.0084 H         1 UNK         0.0600 
    129 H129        3.0883  -17.9899  -49.6938 H         1 UNK         0.0600 
    130 H130        2.6774  -15.8187  -50.0425 H         1 UNK         0.3000 
    131 H131        0.6869  -14.3730  -48.5057 H         1 UNK         0.0600 
    132 H132        1.2226  -12.4976  -50.1242 H         1 UNK         0.0800 
    133 H133        2.4663  -13.4938  -50.8273 H         1 UNK         0.0800 
    134 H134       -1.4796  -12.7107  -51.6438 H         1 UNK         0.0800 
    135 H135       -1.0684  -12.8882  -49.9594 H         1 UNK         0.0800 
    136 H136       -2.8804  -14.4922  -52.7779 H         1 UNK         0.1150 
    137 H137       -5.4750  -16.7141  -50.1862 H         1 UNK         0.1150 
    138 H138       -2.1854  -14.5037  -48.5476 H         1 UNK         0.1150 
    139 H139       -3.9683  -15.3542  -47.0770 H         1 UNK         0.0800 
    140 H140       -5.3799  -16.1098  -47.7627 H         1 UNK         0.0800 
    141 H141       -1.3940  -17.0916  -47.8339 H         1 UNK         0.0800 
    142 H142       -1.9458  -16.4434  -46.3253 H         1 UNK         0.0800 
    143 H143       -0.2100  -17.9648  -45.8722 H         1 UNK         0.0600 
    144 H144       -1.1072  -18.5465  -44.0412 H         1 UNK         0.3000 
    145 H145       -3.1691  -19.0404  -42.5576 H         1 UNK         0.0600 
    146 H146       -4.1503  -21.1571  -41.7090 H         1 UNK         0.0600 
    147 H147       -4.9638  -20.6470  -43.1795 H         1 UNK         0.0600 
    148 H148       -3.7995  -21.9637  -43.2353 H         1 UNK         0.0600 
    149 H149       -1.3177  -19.8698  -41.6370 H         1 UNK         0.3000 
    150 H150        0.2995  -22.6330  -41.4969 H         1 UNK         0.0600 
    151 H151        1.5401  -22.7239  -43.5846 H         1 UNK         0.0600 
    152 H152        2.5714  -21.9754  -42.3821 H         1 UNK         0.0600 
    153 H153        1.7828  -20.9804  -43.6031 H         1 UNK         0.0600 
    154 H154        0.9545  -19.7060  -41.4612 H         1 UNK         0.3000 
    155 H155        0.7847  -19.6690  -37.9058 H         1 UNK         0.0600 
    156 H156        3.0261  -20.6461  -38.1528 H         1 UNK         0.0600 
    157 H157        3.1559  -18.8969  -38.0474 H         1 UNK         0.0600 
    158 H158        3.3272  -19.7042  -39.6060 H         1 UNK         0.0600 
    159 H159        1.7392  -17.7999  -39.9122 H         1 UNK         0.3000 
    160 H160       -1.2308  -15.7659  -39.4107 H         1 UNK         0.0600 
    161 H161        1.7861  -15.5897  -38.9104 H         1 UNK         0.0600 
    162 H162        0.5450  -15.4933  -37.6652 H         1 UNK         0.0600 
    163 H163        0.6403  -14.2532  -38.9066 H         1 UNK         0.0600 
    164 H164        0.9905  -15.4635  -41.2102 H         1 UNK         0.3000 
    165 H165       -0.8437  -16.3771  -44.1484 H         1 UNK         0.0600 
    166 H166        0.0589  -14.1659  -44.7925 H         1 UNK         0.0600 
    167 H167       -1.3083  -13.9948  -43.7005 H         1 UNK         0.0600 
    168 H168        0.3268  -13.7611  -43.0983 H         1 UNK         0.0600 
    169 H169        1.8564  -15.6406  -43.8951 H         1 UNK         0.3000 
    170 H170        3.2600  -18.8230  -43.0549 H         1 UNK         0.0600 
    171 H171        2.9125  -18.8114  -45.5366 H         1 UNK         0.0600 
    172 H172        3.3924  -17.1192  -45.5959 H         1 UNK         0.0600 
    173 H173        4.5520  -18.3506  -45.1002 H         1 UNK         0.0600 
    174 H174        4.3345  -16.1855  -43.5415 H         1 UNK         0.3000 
    175 H175        4.4567  -15.2188  -40.0929 H         1 UNK         0.0600 
    176 H176        6.4426  -16.6695  -40.5424 H         1 UNK         0.0600 
    177 H177        6.6042  -15.9719  -42.1498 H         1 UNK         0.0600 
    178 H178        6.8380  -14.9675  -40.7193 H         1 UNK         0.0600 
    179 H179        5.2722  -13.9061  -42.5025 H         1 UNK         0.3000 
    180 H180        2.2153  -12.2126  -43.1606 H         1 UNK         0.0600 
    181 H181        3.2831  -10.8997  -41.3170 H         1 UNK         0.0600 
    182 H182        4.8662  -11.1640  -42.0383 H         1 UNK         0.0600 
    183 H183        3.6467  -10.2193  -42.8942 H         1 UNK         0.0600 
    184 H184        4.6393  -11.8666  -44.4625 H         1 UNK         0.3000 
    185 H185        4.7532  -12.5272  -46.6390 H         1 UNK         0.0600 
    186 H186        6.4098  -14.0262  -45.4994 H         1 UNK         0.0600 
    187 H187        5.5296  -15.4449  -46.0555 H         1 UNK         0.0600 
    188 H188        6.3239  -14.3818  -47.2169 H         1 UNK         0.0600 
    189 H189        3.8578  -15.0214  -47.7931 H         1 UNK         0.3000 
    190 H190        0.0837  -20.4315  -45.2658 H         1 UNK         0.3000 
    191 H191        1.0095  -22.3394  -45.8744 H         1 UNK         0.0600 
    192 H192        1.4301  -21.0979  -48.6407 H         1 UNK         0.0600 
    193 H193        2.2818  -22.4815  -47.9757 H         1 UNK         0.0600 
    194 H194        2.5074  -20.8944  -47.2583 H         1 UNK         0.0600 
    195 H195       -1.5481  -22.6155  -45.6344 H         1 UNK         0.3000 
    196 H196       -3.1569  -23.2819  -47.8029 H         1 UNK         0.0600 
    197 H197       -4.6201  -24.3462  -46.0351 H         1 UNK         0.0600 
    198 H198       -4.0464  -22.7541  -45.5803 H         1 UNK         0.0600 
    199 H199       -3.2984  -24.1899  -44.8812 H         1 UNK         0.0600 
    200 H200       -0.6274  -25.2387  -46.5797 H         1 UNK         0.3000 
    201 H201       -1.5998  -27.8282  -47.4249 H         1 UNK         0.0600 
    202 H202        0.7752  -28.4922  -47.0390 H         1 UNK         0.0600 
    203 H203        1.2338  -26.8042  -46.8503 H         1 UNK         0.0600 
    204 H204        0.1541  -27.5673  -45.6819 H         1 UNK         0.0600 
    205 H205       -0.2748  -25.0876  -49.1517 H         1 UNK         0.3000 
    206 H206       -0.0029  -26.7240  -51.6356 H         1 UNK         0.0600 
    207 H207        2.2798  -26.4624  -50.7020 H         1 UNK         0.0600 
    208 H208        2.1064  -25.4971  -52.1599 H         1 UNK         0.0600 
    209 H209        2.0592  -24.7170  -50.5821 H         1 UNK         0.0600 
    210 H210       -0.5471  -23.5241  -50.1387 H         1 UNK         0.3000 
    211 H211       -1.6641  -22.5009  -52.7052 H         1 UNK         0.0600 
    212 H212       -0.8943  -20.2767  -51.9738 H         1 UNK         0.0600 
    213 H213        0.4712  -21.3724  -51.9758 H         1 UNK         0.0600 
    214 H214       -0.2953  -20.9408  -50.4530 H         1 UNK         0.0600 
    215 H215       -2.6638  -20.1990  -51.1734 H         1 UNK         0.3000 
    216 H216       -4.4226  -19.3659  -50.1988 H         1 UNK         0.0600 
    217 H217       -5.3697  -20.3322  -48.1929 H         1 UNK         0.0600 
    218 H218       -3.6576  -20.7252  -48.1800 H         1 UNK         0.0600 
    219 H219       -4.8485  -21.9509  -48.6204 H         1 UNK         0.0600 
    220 H220       -5.0271  -22.6446  -51.3648 H         1 UNK         0.3000 
    221 H221       -7.8596  -22.4264  -51.7653 H         1 UNK         0.0600 
    222 H222       -5.7650  -24.2733  -53.0529 H         1 UNK         0.0600 
    223 H223       -6.6343  -24.5993  -51.5549 H         1 UNK         0.0600 
    224 H224       -7.5058  -24.5343  -53.0775 H         1 UNK         0.0600 
    225 H225       -8.9994  -22.3518  -53.7719 H         1 UNK         0.3000 
    226 H226       -8.3375  -20.2784  -55.5438 H         1 UNK         0.0600 
    227 H227      -10.6562  -21.0140  -55.0745 H         1 UNK         0.0600 
    228 H228      -10.3447  -21.0817  -56.8010 H         1 UNK         0.0600 
    229 H229      -10.3537  -22.5665  -55.8567 H         1 UNK         0.0600 
    230 H230       -7.4604  -23.6628  -55.7168 H         1 UNK         0.3000 
    231 H231       -6.7741  -23.8498  -58.4798 H         1 UNK         0.0600 
    232 H232       -7.0576  -25.8312  -57.0096 H         1 UNK         0.0600 
    233 H233       -5.6750  -25.3370  -56.0312 H         1 UNK         0.0600 
    234 H234       -5.4457  -25.8245  -57.7063 H         1 UNK         0.0600 
    235 H235       -5.1433  -22.3313  -55.7546 H         1 UNK         0.3000 
    236 H236       -2.6472  -21.8797  -57.3347 H         1 UNK         0.0600 
    237 H237       -2.3214  -22.8347  -55.0694 H         1 UNK         0.0600 
    238 H238       -1.7032  -21.1909  -55.1409 H         1 UNK         0.0600 
    239 H239       -3.2426  -21.5138  -54.3509 H         1 UNK         0.0600 
    240 H240       -5.1804  -20.2335  -55.3738 H         1 UNK         0.3000 
    241 H241       -4.2390  -17.5968  -56.0053 H         1 UNK         0.0600 
    242 H242       -6.4615  -19.6328  -57.9162 H         1 UNK         0.3800 
    243 H243       -6.9156  -18.3120  -58.9542 H         1 UNK         0.3800 
    244 H244       -6.4719  -16.9295  -54.8496 H         1 UNK         0.0800 
    245 H245       -6.7278  -18.6278  -54.5801 H         1 UNK         0.0800 
    246 H246       -6.1632  -15.8916  -52.5696 H         1 UNK         0.0800 
    247 H247       -4.8805  -15.4343  -53.6652 H         1 UNK         0.0800 
@<TRIPOS>BOND
     1    1    2 1    
     2    1  127 1    
     3    1  128 1    
     4    1  129 1    
     5    2    3 2    
     6    2    4 am   BACKBONE|DICT|INTERRES
     7    4    5 1    
     8    4  130 1    
     9    5    6 1    
    10    5   65 1    
    11    5  131 1    
    12    6    7 1    
    13    6  132 1    
    14    6  133 1    
    15    7    8 1    
    16    8    9 1    
    17    8  134 1    
    18    8  135 1    
    19    9   10 ar   
    20    9   14 ar   
    21   10   11 ar   
    22   10  136 1    
    23   11   12 ar   
    24   11  126 1    
    25   12   13 ar   
    26   12  137 1    
    27   13   14 ar   
    28   13   15 1    
    29   14  138 1    
    30   15   16 1    
    31   15  139 1    
    32   15  140 1    
    33   16   17 1    
    34   17   18 1    
    35   17  141 1    
    36   17  142 1    
    37   18   19 1    
    38   18   67 1    
    39   18  143 1    
    40   19   20 am   BACKBONE|DICT|INTERRES
    41   19  144 1    
    42   20   21 2    
    43   20   22 1    
    44   22   23 1    
    45   22   24 1    
    46   22  145 1    
    47   23  146 1    
    48   23  147 1    
    49   23  148 1    
    50   24   25 am   BACKBONE|DICT|INTERRES
    51   24  149 1    
    52   25   26 2    
    53   25   27 1    
    54   27   28 1    
    55   27   29 1    
    56   27  150 1    
    57   28  151 1    
    58   28  152 1    
    59   28  153 1    
    60   29   30 am   BACKBONE|DICT|INTERRES
    61   29  154 1    
    62   30   31 2    
    63   30   32 1    
    64   32   33 1    
    65   32   34 1    
    66   32  155 1    
    67   33  156 1    
    68   33  157 1    
    69   33  158 1    
    70   34   35 am   BACKBONE|DICT|INTERRES
    71   34  159 1    
    72   35   36 2    
    73   35   37 1    
    74   37   38 1    
    75   37   39 1    
    76   37  160 1    
    77   38  161 1    
    78   38  162 1    
    79   38  163 1    
    80   39   40 am   BACKBONE|DICT|INTERRES
    81   39  164 1    
    82   40   41 2    
    83   40   42 1    
    84   42   43 1    
    85   42   44 1    
    86   42  165 1    
    87   43  166 1    
    88   43  167 1    
    89   43  168 1    
    90   44   45 am   BACKBONE|DICT|INTERRES
    91   44  169 1    
    92   45   46 2    
    93   45   47 1    
    94   47   48 1    
    95   47   49 1    
    96   47  170 1    
    97   48  171 1    
    98   48  172 1    
    99   48  173 1    
   100   49   50 am   BACKBONE|DICT|INTERRES
   101   49  174 1    
   102   50   51 2    
   103   50   52 1    
   104   52   53 1    
   105   52   54 1    
   106   52  175 1    
   107   53  176 1    
   108   53  177 1    
   109   53  178 1    
   110   54   55 am   BACKBONE|DICT|INTERRES
   111   54  179 1    
   112   55   56 2    
   113   55   57 1    
   114   57   58 1    
   115   57   59 1    
   116   57  180 1    
   117   58  181 1    
   118   58  182 1    
   119   58  183 1    
   120   59   60 am   BACKBONE|DICT|INTERRES
   121   59  184 1    
   122   60   61 2    
   123   60   62 1    
   124   62   63 1    
   125   62   64 1    
   126   62  185 1    
   127   63  186 1    
   128   63  187 1    
   129   63  188 1    
   130   64   65 am   BACKBONE|DICT|INTERRES
   131   64  189 1    
   132   65   66 2    
   133   67   68 2    
   134   67   69 am   BACKBONE|DICT|INTERRES
   135   69   70 1    
   136   69  190 1    
   137   70   71 1    
   138   70   72 1    
   139   70  191 1    
   140   71  192 1    
   141   71  193 1    
   142   71  194 1    
   143   72   73 2    
   144   72   74 am   BACKBONE|DICT|INTERRES
   145   74   75 1    
   146   74  195 1    
   147   75   76 1    
   148   75   77 1    
   149   75  196 1    
   150   76  197 1    
   151   76  198 1    
   152   76  199 1    
   153   77   78 2    
   154   77   79 am   BACKBONE|DICT|INTERRES
   155   79   80 1    
   156   79  200 1    
   157   80   81 1    
   158   80   82 1    
   159   80  201 1    
   160   81  202 1    
   161   81  203 1    
   162   81  204 1    
   163   82   83 2    
   164   82   84 am   BACKBONE|DICT|INTERRES
   165   84   85 1    
   166   84  205 1    
   167   85   86 1    
   168   85   87 1    
   169   85  206 1    
   170   86  207 1    
   171   86  208 1    
   172   86  209 1    
   173   87   88 2    
   174   87   89 am   BACKBONE|DICT|INTERRES
   175   89   90 1    
   176   89  210 1    
   177   90   91 1    
   178   90   92 1    
   179   90  211 1    
   180   91  212 1    
   181   91  213 1    
   182   91  214 1    
   183   92   93 2    
   184   92   94 am   BACKBONE|DICT|INTERRES
   185   94   95 1    
   186   94  215 1    
   187   95   96 1    
   188   95   97 1    
   189   95  216 1    
   190   96  217 1    
   191   96  218 1    
   192   96  219 1    
   193   97   98 2    
   194   97   99 am   BACKBONE|DICT|INTERRES
   195   99  100 1    
   196   99  220 1    
   197  100  101 1    
   198  100  102 1    
   199  100  221 1    
   200  101  222 1    
   201  101  223 1    
   202  101  224 1    
   203  102  103 2    
   204  102  104 am   BACKBONE|DICT|INTERRES
   205  104  105 1    
   206  104  225 1    
   207  105  106 1    
   208  105  107 1    
   209  105  226 1    
   210  106  227 1    
   211  106  228 1    
   212  106  229 1    
   213  107  108 2    
   214  107  109 am   BACKBONE|DICT|INTERRES
   215  109  110 1    
   216  109  230 1    
   217  110  111 1    
   218  110  112 1    
   219  110  231 1    
   220  111  232 1    
   221  111  233 1    
   222  111  234 1    
   223  112  113 2    
   224  112  114 am   BACKBONE|DICT|INTERRES
   225  114  115 1    
   226  114  235 1    
   227  115  116 1    
   228  115  117 1    
   229  115  236 1    
   230  116  237 1    
   231  116  238 1    
   232  116  239 1    
   233  117  118 2    
   234  117  119 am   BACKBONE|DICT|INTERRES
   235  119  120 1    
   236  119  240 1    
   237  120  121 1    
   238  120  124 1    
   239  120  241 1    
   240  121  122 am   BACKBONE|DICT|INTERRES
   241  121  123 2    
   242  122  242 1    
   243  122  243 1    
   244  124  125 1    
   245  124  244 1    
   246  124  245 1    
   247  125  126 1    
   248  126  246 1    
   249  126  247 1    
@<TRIPOS>SUBSTRUCTURE
     1 UNK         1 GROUP             0       ****    0 ROOT    
