@<TRIPOS>MOLECULE
3R540
247   249    1
SMALL
USER_CHARGES


@<TRIPOS>ATOM
      1 CA         -4.5073  -20.5662  -43.0563 C.3       0 UNK        -0.1800 
      2 C          -4.9172  -19.8047  -44.3091 C.2       0 UNK         0.5000 
      3 O          -6.1074  -19.5762  -44.5256 O.2       0 UNK        -0.5000 
      4 N          -3.9377  -19.4257  -45.1383 N.am      1 UNK        -0.5000 
      5 CA         -4.1196  -18.6115  -46.3430 C.3       1 UNK         0.1400 
      6 C6         -2.8254  -18.6031  -47.1986 C.3       23 UNK        -0.0398 
      7 S7         -3.1376  -18.0844  -48.9223 S.3       23 UNK        -0.2404 
      8 C8         -2.2190  -19.3235  -49.8803 C.3       23 UNK        -0.0205 
      9 C9         -0.7167  -19.1126  -49.7916 C.ar      23 UNK        -0.0193 
     10 C10        -0.1407  -17.9631  -50.3334 C.ar      23 UNK        -0.1150 
     11 C11         1.2450  -17.7998  -50.3441 C.ar      23 UNK        -0.0193 
     12 C12         2.0592  -18.7978  -49.8020 C.ar      23 UNK        -0.1150 
     13 C13         1.4986  -19.9469  -49.2335 C.ar      23 UNK        -0.0193 
     14 C14         0.1049  -20.0901  -49.2272 C.ar      23 UNK        -0.1150 
     15 C15         2.4313  -21.0308  -48.6930 C.3       23 UNK        -0.0205 
     16 S16         1.7000  -22.1376  -47.4395 S.3       23 UNK        -0.2404 
     17 C17         1.5655  -21.0069  -46.0178 C.3       23 UNK        -0.0398 
     18 CA          0.8747  -21.6880  -44.8142 C.3       11 UNK         0.1400 
     19 N           1.3253  -21.1156  -43.5471 N.am      11 UNK        -0.5000 
     20 C           1.1903  -21.7011  -42.3491 C.2       10 UNK         0.5000 
     21 O           0.6062  -22.7731  -42.1800 O.2       10 UNK        -0.5000 
     22 CA          1.8454  -20.9772  -41.1499 C.3       10 UNK         0.1400 
     23 CB          2.1121  -21.9108  -39.9504 C.3       10 UNK        -0.1800 
     24 N           3.0596  -20.2366  -41.5208 N.am      10 UNK        -0.5000 
     25 C           4.1874  -20.7448  -42.0431 C.2       9 UNK         0.5000 
     26 O           4.3913  -21.9512  -42.1851 O.2       9 UNK        -0.5000 
     27 CA          5.2655  -19.7506  -42.5126 C.3       9 UNK         0.1400 
     28 CB          5.5439  -19.9177  -44.0176 C.3       9 UNK        -0.1800 
     29 N           4.9041  -18.3510  -42.2634 N.am      9 UNK        -0.5000 
     30 C           5.6885  -17.4693  -41.6293 C.2       8 UNK         0.5000 
     31 O           6.7616  -17.7628  -41.1003 O.2       8 UNK        -0.5000 
     32 CA          5.2184  -16.0040  -41.5936 C.3       8 UNK         0.1400 
     33 CB          5.6688  -15.2645  -42.8629 C.3       8 UNK        -0.1800 
     34 N           3.7738  -15.8425  -41.4344 N.am      8 UNK        -0.5000 
     35 C           3.1092  -16.0596  -40.2907 C.2       7 UNK         0.5000 
     36 O           3.6259  -16.5260  -39.2753 O.2       7 UNK        -0.5000 
     37 CA          1.6180  -15.6887  -40.2802 C.3       7 UNK         0.1400 
     38 CB          1.4353  -14.1660  -40.1733 C.3       7 UNK        -0.1800 
     39 N           0.9634  -16.1714  -41.4931 N.am      7 UNK        -0.5000 
     40 C           0.2485  -17.3009  -41.5677 C.2       6 UNK         0.5000 
     41 O          -0.0221  -18.0008  -40.5926 O.2       6 UNK        -0.5000 
     42 CA         -0.2376  -17.7426  -42.9604 C.3       6 UNK         0.1400 
     43 CB         -1.7206  -17.4143  -43.1394 C.3       6 UNK        -0.1800 
     44 N           0.5228  -17.1447  -44.0593 N.am      6 UNK        -0.5000 
     45 C           1.7807  -17.4850  -44.3737 C.2       5 UNK         0.5000 
     46 O           2.3958  -18.3863  -43.8047 O.2       5 UNK        -0.5000 
     47 CA          2.4970  -16.6669  -45.4660 C.3       5 UNK         0.1400 
     48 CB          2.4261  -17.3983  -46.8108 C.3       5 UNK        -0.1800 
     49 N           1.9714  -15.3124  -45.6360 N.am      5 UNK        -0.5000 
     50 C           1.9264  -14.3666  -44.6877 C.2       4 UNK         0.5000 
     51 O           2.3878  -14.5185  -43.5560 O.2       4 UNK        -0.5000 
     52 CA          1.1862  -13.0609  -45.0399 C.3       4 UNK         0.1400 
     53 CB          2.1915  -11.9693  -45.4342 C.3       4 UNK        -0.1800 
     54 N           0.1833  -13.2018  -46.1051 N.am      4 UNK        -0.5000 
     55 C          -0.8842  -14.0112  -46.0615 C.2       3 UNK         0.5000 
     56 O          -1.1251  -14.7779  -45.1249 O.2       3 UNK        -0.5000 
     57 CA         -1.7993  -14.0022  -47.2922 C.3       3 UNK         0.1400 
     58 CB         -1.1959  -14.8635  -48.4177 C.3       3 UNK        -0.1800 
     59 N          -3.0999  -14.5367  -46.9074 N.am      3 UNK        -0.5000 
     60 C          -4.2649  -14.3066  -47.5213 C.2       2 UNK         0.5000 
     61 O          -4.3820  -13.5633  -48.4973 O.2       2 UNK        -0.5000 
     62 CA         -5.4898  -15.0710  -46.9692 C.3       2 UNK         0.1400 
     63 CB         -6.7743  -14.8050  -47.7749 C.3       2 UNK        -0.1800 
     64 N          -5.2257  -16.5105  -46.9696 N.am      2 UNK        -0.5000 
     65 C          -4.5736  -17.1700  -46.0054 C.2       1 UNK         0.5000 
     66 O          -4.2687  -16.6513  -44.9300 O.2       1 UNK        -0.5000 
     67 C          -0.6622  -21.6514  -44.9448 C.2       11 UNK         0.5000 
     68 O          -1.2781  -20.6144  -44.6835 O.2       11 UNK        -0.5000 
     69 N          -1.2416  -22.7775  -45.3770 N.am      12 UNK        -0.5000 
     70 CA         -2.6823  -22.9867  -45.5252 C.3       12 UNK         0.1400 
     71 CB         -3.2021  -23.8067  -44.3308 C.3       12 UNK        -0.1800 
     72 C          -3.0257  -23.6320  -46.8800 C.2       12 UNK         0.5000 
     73 O          -4.0500  -24.3063  -46.9940 O.2       12 UNK        -0.5000 
     74 N          -2.1822  -23.3982  -47.8989 N.am      13 UNK        -0.5000 
     75 CA         -2.3020  -23.9540  -49.2562 C.3       13 UNK         0.1400 
     76 CB         -1.0961  -23.5021  -50.0927 C.3       13 UNK        -0.1800 
     77 C          -3.6198  -23.6046  -49.9809 C.2       13 UNK         0.5000 
     78 O          -4.0362  -24.3401  -50.8778 O.2       13 UNK        -0.5000 
     79 N          -4.2864  -22.5284  -49.5380 N.am      14 UNK        -0.5000 
     80 CA         -5.6125  -22.0994  -49.9826 C.3       14 UNK         0.1400 
     81 CB         -5.9739  -20.7795  -49.2876 C.3       14 UNK        -0.1800 
     82 C          -6.7183  -23.1475  -49.7459 C.2       14 UNK         0.5000 
     83 O          -7.7047  -23.1458  -50.4812 O.2       14 UNK        -0.5000 
     84 N          -6.5206  -24.0608  -48.7815 N.am      15 UNK        -0.5000 
     85 CA         -7.3929  -25.2142  -48.5378 C.3       15 UNK         0.1400 
     86 CB         -6.9680  -25.9005  -47.2312 C.3       15 UNK        -0.1800 
     87 C          -7.4016  -26.2287  -49.7017 C.2       15 UNK         0.5000 
     88 O          -8.3958  -26.9320  -49.8830 O.2       15 UNK        -0.5000 
     89 N          -6.3120  -26.2634  -50.4811 N.am      16 UNK        -0.5000 
     90 CA         -6.1689  -27.0405  -51.7133 C.3       16 UNK         0.1400 
     91 CB         -4.7863  -27.7155  -51.6987 C.3       16 UNK        -0.1800 
     92 C          -6.3341  -26.1569  -52.9689 C.2       16 UNK         0.5000 
     93 O          -6.1258  -26.6478  -54.0791 O.2       16 UNK        -0.5000 
     94 N          -6.6766  -24.8722  -52.7750 N.am      17 UNK        -0.5000 
     95 CA         -6.7724  -23.8006  -53.7736 C.3       17 UNK         0.1400 
     96 CB         -7.9224  -24.0750  -54.7648 C.3       17 UNK        -0.1800 
     97 C          -5.4320  -23.4895  -54.4775 C.2       17 UNK         0.5000 
     98 O          -5.4332  -22.9987  -55.6082 O.2       17 UNK        -0.5000 
     99 N          -4.3128  -23.7754  -53.8015 N.am      18 UNK        -0.5000 
    100 CA        -2.9574  -23.5616  -54.2961 C.3       18 UNK         0.1400 
    101 CB        -2.0972  -24.7673  -53.8862 C.3       18 UNK        -0.1800 
    102 C         -2.3753  -22.2524  -53.7387 C.2       18 UNK         0.5000 
    103 O         -2.8080  -21.7801  -52.6855 O.2       18 UNK        -0.5000 
    104 N         -1.3910  -21.7009  -54.4644 N.am      19 UNK        -0.5000 
    105 CA        -0.6169  -20.4931  -54.1403 C.3       19 UNK         0.1400 
    106 CB         0.2664  -20.7344  -52.8995 C.3       19 UNK        -0.1800 
    107 C         -1.4593  -19.2017  -54.0303 C.2       19 UNK         0.5000 
    108 O         -1.0331  -18.2398  -53.3948 O.2       19 UNK        -0.5000 
    109 N         -2.6307  -19.1754  -54.6818 N.am      20 UNK        -0.5000 
    110 CA        -3.5830  -18.0613  -54.6427 C.3       20 UNK         0.1400 
    111 CB        -4.8727  -18.4850  -55.3619 C.3       20 UNK        -0.1800 
    112 C         -3.0390  -16.7432  -55.2322 C.2       20 UNK         0.5000 
    113 O         -3.4921  -15.6701  -54.8325 O.2       20 UNK        -0.5000 
    114 N         -2.0627  -16.8448  -56.1461 N.am      21 UNK        -0.5000 
    115 CA        -1.4078  -15.7290  -56.8334 C.3       21 UNK         0.1400 
    116 CB        -0.4334  -16.2941  -57.8785 C.3       21 UNK        -0.1800 
    117 C         -0.6803  -14.7355  -55.9042 C.2       21 UNK         0.5000 
    118 O         -0.5861  -13.5574  -56.2520 O.2       21 UNK        -0.5000 
    119 N         -0.1955  -15.2128  -54.7506 N.am      22 UNK        -0.5000 
    120 CA         0.4196  -14.3947  -53.6909 C.3       22 UNK         0.1400 
    121 C         -0.5268  -14.1253  -52.4833 C.2       22 UNK         0.5000 
    122 N         -1.7985  -14.5066  -52.5281 N.am      22 UNK        -0.7600 
    123 O         -0.1110  -13.5225  -51.4981 O.2       22 UNK        -0.5000 
    124 C124        1.8212  -14.9238  -53.2735 C.3       23 UNK        -0.0398 
    125 S125        1.8632  -16.6806  -52.7799 S.3       23 UNK        -0.2404 
    126 C126        1.8461  -16.5514  -50.9650 C.3       23 UNK        -0.0205 
    127 H127       -3.4265  -20.6945  -42.9938 H         1 UNK         0.0600 
    128 H128       -4.9690  -21.5534  -43.0485 H         1 UNK         0.0600 
    129 H129       -4.8352  -20.0277  -42.1673 H         1 UNK         0.0600 
    130 H130       -2.9768  -19.6569  -44.9000 H         1 UNK         0.3000 
    131 H131       -4.9151  -19.0844  -46.9220 H         1 UNK         0.0600 
    132 H132       -2.0619  -17.9563  -46.7615 H         1 UNK         0.0800 
    133 H133       -2.3895  -19.6029  -47.2160 H         1 UNK         0.0800 
    134 H134       -2.5185  -19.2515  -50.9272 H         1 UNK         0.0800 
    135 H135       -2.4984  -20.3253  -49.5556 H         1 UNK         0.0800 
    136 H136       -0.7722  -17.2083  -50.7819 H         1 UNK         0.1150 
    137 H137        3.1334  -18.6810  -49.8274 H         1 UNK         0.1150 
    138 H138       -0.3471  -20.9770  -48.8139 H         1 UNK         0.1150 
    139 H139        2.7602  -21.6409  -49.5350 H         1 UNK         0.0800 
    140 H140        3.3294  -20.5755  -48.2728 H         1 UNK         0.0800 
    141 H141        1.0516  -20.0892  -46.3107 H         1 UNK         0.0800 
    142 H142        2.5819  -20.7134  -45.7512 H         1 UNK         0.0800 
    143 H143        1.1896  -22.7342  -44.7936 H         1 UNK         0.0600 
    144 H144        1.7903  -20.2144  -43.5976 H         1 UNK         0.3000 
    145 H145        1.1206  -20.2367  -40.8198 H         1 UNK         0.0600 
    146 H146        2.5710  -21.3685  -39.1238 H         1 UNK         0.0600 
    147 H147        1.1823  -22.3415  -39.5771 H         1 UNK         0.0600 
    148 H148        2.7701  -22.7384  -40.2161 H         1 UNK         0.0600 
    149 H149        2.9950  -19.2319  -41.4533 H         1 UNK         0.3000 
    150 H150        6.1740  -20.0167  -41.9691 H         1 UNK         0.0600 
    151 H151        5.8465  -20.9387  -44.2533 H         1 UNK         0.0600 
    152 H152        6.3493  -19.2594  -44.3434 H         1 UNK         0.0600 
    153 H153        4.6629  -19.6894  -44.6180 H         1 UNK         0.0600 
    154 H154        4.0410  -18.0367  -42.6925 H         1 UNK         0.3000 
    155 H155        5.7049  -15.5255  -40.7407 H         1 UNK         0.0600 
    156 H156        6.7507  -15.3246  -42.9874 H         1 UNK         0.0600 
    157 H157        5.4048  -14.2077  -42.8182 H         1 UNK         0.0600 
    158 H158        5.2118  -15.6847  -43.7584 H         1 UNK         0.0600 
    159 H159        3.2802  -15.4125  -42.2128 H         1 UNK         0.3000 
    160 H160        1.1651  -16.1401  -39.3949 H         1 UNK         0.0600 
    161 H161        1.8725  -13.6405  -41.0228 H         1 UNK         0.0600 
    162 H162        1.9088  -13.7797  -39.2698 H         1 UNK         0.0600 
    163 H163        0.3791  -13.9008  -40.1253 H         1 UNK         0.0600 
    164 H164        1.1606  -15.6592  -42.3443 H         1 UNK         0.3000 
    165 H165       -0.1286  -18.8258  -43.0162 H         1 UNK         0.0600 
    166 H166       -2.0549  -17.7247  -44.1263 H         1 UNK         0.0600 
    167 H167       -2.3340  -17.9377  -42.4052 H         1 UNK         0.0600 
    168 H168       -1.9175  -16.3465  -43.0379 H         1 UNK         0.0600 
    169 H169        0.0745  -16.3779  -44.5501 H         1 UNK         0.3000 
    170 H170        3.5457  -16.5834  -45.1777 H         1 UNK         0.0600 
    171 H171        2.9571  -16.8494  -47.5886 H         1 UNK         0.0600 
    172 H172        2.8872  -18.3840  -46.7437 H         1 UNK         0.0600 
    173 H173        1.3952  -17.5357  -47.1411 H         1 UNK         0.0600 
    174 H174        1.5616  -15.0985  -46.5326 H         1 UNK         0.3000 
    175 H175        0.6644  -12.7362  -44.1375 H         1 UNK         0.0600 
    176 H176        2.9373  -11.8232  -44.6513 H         1 UNK         0.0600 
    177 H177        2.7239  -12.2248  -46.3512 H         1 UNK         0.0600 
    178 H178        1.6944  -11.0115  -45.5889 H         1 UNK         0.0600 
    179 H179        0.3169  -12.6187  -46.9191 H         1 UNK         0.3000 
    180 H180       -1.9160  -12.9717  -47.6337 H         1 UNK         0.0600 
    181 H181       -0.2354  -14.4664  -48.7475 H         1 UNK         0.0600 
    182 H182       -1.0317  -15.8921  -48.0941 H         1 UNK         0.0600 
    183 H183       -1.8470  -14.8918  -49.2914 H         1 UNK         0.0600 
    184 H184       -3.0833  -15.1188  -46.0756 H         1 UNK         0.3000 
    185 H185       -5.6601  -14.7253  -45.9474 H         1 UNK         0.0600 
    186 H186       -7.0239  -13.7433  -47.7738 H         1 UNK         0.0600 
    187 H187       -6.6713  -15.1189  -48.8144 H         1 UNK         0.0600 
    188 H188       -7.6241  -15.3372  -47.3470 H         1 UNK         0.0600 
    189 H189       -5.3820  -16.9817  -47.8496 H         1 UNK         0.3000 
    190 H190       -0.6602  -23.5794  -45.5807 H         1 UNK         0.3000 
    191 H191       -3.1997  -22.0281  -45.5252 H         1 UNK         0.0600 
    192 H192       -2.7698  -24.8076  -44.3144 H         1 UNK         0.0600 
    193 H193       -4.2868  -23.9151  -44.3676 H         1 UNK         0.0600 
    194 H194       -2.9582  -23.3223  -43.3851 H         1 UNK         0.0600 
    195 H195       -1.3630  -22.8383  -47.7155 H         1 UNK         0.3000 
    196 H196       -2.2636  -25.0410  -49.1621 H         1 UNK         0.0600 
    197 H197       -0.1551  -23.6625  -49.5664 H         1 UNK         0.0600 
    198 H198       -1.1647  -22.4477  -50.3573 H         1 UNK         0.0600 
    199 H199       -1.0387  -24.0603  -51.0258 H         1 UNK         0.0600 
    200 H200       -3.8752  -22.0033  -48.7832 H         1 UNK         0.3000 
    201 H201       -5.5557  -21.9195  -51.0583 H         1 UNK         0.0600 
    202 H202       -6.9627  -20.4339  -49.5922 H         1 UNK         0.0600 
    203 H203       -5.9830  -20.8859  -48.2023 H         1 UNK         0.0600 
    204 H204       -5.2672  -19.9936  -49.5487 H         1 UNK         0.0600 
    205 H205       -5.6758  -24.0127  -48.2205 H         1 UNK         0.3000 
    206 H206       -8.4128  -24.8442  -48.4144 H         1 UNK         0.0600 
    207 H207       -6.9954  -25.2050  -46.3921 H         1 UNK         0.0600 
    208 H208       -7.6351  -26.7290  -46.9898 H         1 UNK         0.0600 
    209 H209       -5.9564  -26.3026  -47.2997 H         1 UNK         0.0600 
    210 H210       -5.5453  -25.6316  -50.2779 H         1 UNK         0.3000 
    211 H211       -6.9302  -27.8214  -51.7623 H         1 UNK         0.0600 
    212 H212       -4.6532  -28.3594  -52.5688 H         1 UNK         0.0600 
    213 H213       -4.6619  -28.3394  -50.8135 H         1 UNK         0.0600 
    214 H214       -3.9796  -26.9814  -51.7077 H         1 UNK         0.0600 
    215 H215       -6.8669  -24.5800  -51.8249 H         1 UNK         0.3000 
    216 H216       -7.0304  -22.8974  -53.2192 H         1 UNK         0.0600 
    217 H217       -8.1009  -23.2114  -55.4064 H         1 UNK         0.0600 
    218 H218       -8.8541  -24.2835  -54.2389 H         1 UNK         0.0600 
    219 H219       -7.7052  -24.9237  -55.4138 H         1 UNK         0.0600 
    220 H220       -4.3821  -24.0903  -52.8388 H         1 UNK         0.3000 
    221 H221       -2.9589  -23.5007  -55.3864 H         1 UNK         0.0600 
    222 H222       -2.1364  -24.9448  -52.8123 H         1 UNK         0.0600 
    223 H223       -2.4424  -25.6758  -54.3800 H         1 UNK         0.0600 
    224 H224       -1.0517  -24.6243  -54.1621 H         1 UNK         0.0600 
    225 H225       -1.1173  -22.1640  -55.3201 H         1 UNK         0.3000 
    226 H226        0.0535  -20.3297  -54.9849 H         1 UNK         0.0600 
    227 H227        0.8980  -21.6131  -53.0268 H         1 UNK         0.0600 
    228 H228        0.9257  -19.8863  -52.7101 H         1 UNK         0.0600 
    229 H229       -0.3355  -20.8828  -52.0045 H         1 UNK         0.0600 
    230 H230       -2.9153  -20.0008  -55.1876 H         1 UNK         0.3000 
    231 H231       -3.8235  -17.8714  -53.5945 H         1 UNK         0.0600 
    232 H232       -5.3128  -19.3672  -54.8962 H         1 UNK         0.0600 
    233 H233       -4.6904  -18.7147  -56.4124 H         1 UNK         0.0600 
    234 H234       -5.6203  -17.6915  -55.3238 H         1 UNK         0.0600 
    235 H235       -1.7497  -17.7711  -56.3948 H         1 UNK         0.3000 
    236 H236       -2.1846  -15.1699  -57.3589 H         1 UNK         0.0600 
    237 H237        0.0544  -15.4914  -58.4331 H         1 UNK         0.0600 
    238 H238       -0.9517  -16.9199  -58.6053 H         1 UNK         0.0600 
    239 H239        0.3495  -16.8948  -57.4136 H         1 UNK         0.0600 
    240 H240       -0.3331  -16.1891  -54.5195 H         1 UNK         0.3000 
    241 H241        0.6006  -13.3950  -54.0887 H         1 UNK         0.0600 
    242 H242       -2.3966  -14.3069  -51.7432 H         1 UNK         0.3800 
    243 H243       -2.1851  -14.9502  -53.3516 H         1 UNK         0.3800 
    244 H244        2.4992  -14.8175  -54.1210 H         1 UNK         0.0800 
    245 H245        2.2548  -14.3072  -52.4843 H         1 UNK         0.0800 
    246 H246        1.2610  -15.6869  -50.6512 H         1 UNK         0.0800 
    247 H247        2.8616  -16.3860  -50.6024 H         1 UNK         0.0800 
@<TRIPOS>BOND
     1    1    2 1    
     2    1  127 1    
     3    1  128 1    
     4    1  129 1    
     5    2    3 2    
     6    2    4 am   BACKBONE|DICT|INTERRES
     7    4    5 1    
     8    4  130 1    
     9    5    6 1    
    10    5   65 1    
    11    5  131 1    
    12    6    7 1    
    13    6  132 1    
    14    6  133 1    
    15    7    8 1    
    16    8    9 1    
    17    8  134 1    
    18    8  135 1    
    19    9   10 ar   
    20    9   14 ar   
    21   10   11 ar   
    22   10  136 1    
    23   11   12 ar   
    24   11  126 1    
    25   12   13 ar   
    26   12  137 1    
    27   13   14 ar   
    28   13   15 1    
    29   14  138 1    
    30   15   16 1    
    31   15  139 1    
    32   15  140 1    
    33   16   17 1    
    34   17   18 1    
    35   17  141 1    
    36   17  142 1    
    37   18   19 1    
    38   18   67 1    
    39   18  143 1    
    40   19   20 am   BACKBONE|DICT|INTERRES
    41   19  144 1    
    42   20   21 2    
    43   20   22 1    
    44   22   23 1    
    45   22   24 1    
    46   22  145 1    
    47   23  146 1    
    48   23  147 1    
    49   23  148 1    
    50   24   25 am   BACKBONE|DICT|INTERRES
    51   24  149 1    
    52   25   26 2    
    53   25   27 1    
    54   27   28 1    
    55   27   29 1    
    56   27  150 1    
    57   28  151 1    
    58   28  152 1    
    59   28  153 1    
    60   29   30 am   BACKBONE|DICT|INTERRES
    61   29  154 1    
    62   30   31 2    
    63   30   32 1    
    64   32   33 1    
    65   32   34 1    
    66   32  155 1    
    67   33  156 1    
    68   33  157 1    
    69   33  158 1    
    70   34   35 am   BACKBONE|DICT|INTERRES
    71   34  159 1    
    72   35   36 2    
    73   35   37 1    
    74   37   38 1    
    75   37   39 1    
    76   37  160 1    
    77   38  161 1    
    78   38  162 1    
    79   38  163 1    
    80   39   40 am   BACKBONE|DICT|INTERRES
    81   39  164 1    
    82   40   41 2    
    83   40   42 1    
    84   42   43 1    
    85   42   44 1    
    86   42  165 1    
    87   43  166 1    
    88   43  167 1    
    89   43  168 1    
    90   44   45 am   BACKBONE|DICT|INTERRES
    91   44  169 1    
    92   45   46 2    
    93   45   47 1    
    94   47   48 1    
    95   47   49 1    
    96   47  170 1    
    97   48  171 1    
    98   48  172 1    
    99   48  173 1    
   100   49   50 am   BACKBONE|DICT|INTERRES
   101   49  174 1    
   102   50   51 2    
   103   50   52 1    
   104   52   53 1    
   105   52   54 1    
   106   52  175 1    
   107   53  176 1    
   108   53  177 1    
   109   53  178 1    
   110   54   55 am   BACKBONE|DICT|INTERRES
   111   54  179 1    
   112   55   56 2    
   113   55   57 1    
   114   57   58 1    
   115   57   59 1    
   116   57  180 1    
   117   58  181 1    
   118   58  182 1    
   119   58  183 1    
   120   59   60 am   BACKBONE|DICT|INTERRES
   121   59  184 1    
   122   60   61 2    
   123   60   62 1    
   124   62   63 1    
   125   62   64 1    
   126   62  185 1    
   127   63  186 1    
   128   63  187 1    
   129   63  188 1    
   130   64   65 am   BACKBONE|DICT|INTERRES
   131   64  189 1    
   132   65   66 2    
   133   67   68 2    
   134   67   69 am   BACKBONE|DICT|INTERRES
   135   69   70 1    
   136   69  190 1    
   137   70   71 1    
   138   70   72 1    
   139   70  191 1    
   140   71  192 1    
   141   71  193 1    
   142   71  194 1    
   143   72   73 2    
   144   72   74 am   BACKBONE|DICT|INTERRES
   145   74   75 1    
   146   74  195 1    
   147   75   76 1    
   148   75   77 1    
   149   75  196 1    
   150   76  197 1    
   151   76  198 1    
   152   76  199 1    
   153   77   78 2    
   154   77   79 am   BACKBONE|DICT|INTERRES
   155   79   80 1    
   156   79  200 1    
   157   80   81 1    
   158   80   82 1    
   159   80  201 1    
   160   81  202 1    
   161   81  203 1    
   162   81  204 1    
   163   82   83 2    
   164   82   84 am   BACKBONE|DICT|INTERRES
   165   84   85 1    
   166   84  205 1    
   167   85   86 1    
   168   85   87 1    
   169   85  206 1    
   170   86  207 1    
   171   86  208 1    
   172   86  209 1    
   173   87   88 2    
   174   87   89 am   BACKBONE|DICT|INTERRES
   175   89   90 1    
   176   89  210 1    
   177   90   91 1    
   178   90   92 1    
   179   90  211 1    
   180   91  212 1    
   181   91  213 1    
   182   91  214 1    
   183   92   93 2    
   184   92   94 am   BACKBONE|DICT|INTERRES
   185   94   95 1    
   186   94  215 1    
   187   95   96 1    
   188   95   97 1    
   189   95  216 1    
   190   96  217 1    
   191   96  218 1    
   192   96  219 1    
   193   97   98 2    
   194   97   99 am   BACKBONE|DICT|INTERRES
   195   99  100 1    
   196   99  220 1    
   197  100  101 1    
   198  100  102 1    
   199  100  221 1    
   200  101  222 1    
   201  101  223 1    
   202  101  224 1    
   203  102  103 2    
   204  102  104 am   BACKBONE|DICT|INTERRES
   205  104  105 1    
   206  104  225 1    
   207  105  106 1    
   208  105  107 1    
   209  105  226 1    
   210  106  227 1    
   211  106  228 1    
   212  106  229 1    
   213  107  108 2    
   214  107  109 am   BACKBONE|DICT|INTERRES
   215  109  110 1    
   216  109  230 1    
   217  110  111 1    
   218  110  112 1    
   219  110  231 1    
   220  111  232 1    
   221  111  233 1    
   222  111  234 1    
   223  112  113 2    
   224  112  114 am   BACKBONE|DICT|INTERRES
   225  114  115 1    
   226  114  235 1    
   227  115  116 1    
   228  115  117 1    
   229  115  236 1    
   230  116  237 1    
   231  116  238 1    
   232  116  239 1    
   233  117  118 2    
   234  117  119 am   BACKBONE|DICT|INTERRES
   235  119  120 1    
   236  119  240 1    
   237  120  121 1    
   238  120  124 1    
   239  120  241 1    
   240  121  122 am   BACKBONE|DICT|INTERRES
   241  121  123 2    
   242  122  242 1    
   243  122  243 1    
   244  124  125 1    
   245  124  244 1    
   246  124  245 1    
   247  125  126 1    
   248  126  246 1    
   249  126  247 1    
@<TRIPOS>SUBSTRUCTURE
     1 UNK         1 GROUP             0       ****    0 ROOT    
