@<TRIPOS>MOLECULE
3R540
247   249    1
SMALL
USER_CHARGES


@<TRIPOS>ATOM
      1 CA         -4.2335  -16.6114  -43.1214 C.3       0 UNK        -0.1800 
      2 C          -4.3609  -15.9515  -44.4838 C.2       0 UNK         0.5000 
      3 O          -5.4699  -15.6079  -44.8920 O.2       0 UNK        -0.5000 
      4 N          -3.2368  -15.7987  -45.1930 N.am      1 UNK        -0.5000 
      5 CA         -3.1724  -15.1815  -46.5192 C.3       1 UNK         0.1400 
      6 C6         -2.2740  -16.0030  -47.4793 C.3       23 UNK        -0.0398 
      7 S7         -0.4766  -15.9400  -47.1544 S.3       23 UNK        -0.2404 
      8 C8          0.2049  -16.0049  -48.8463 C.3       23 UNK        -0.0205 
      9 C9          0.2088  -17.4170  -49.4212 C.ar      23 UNK        -0.0193 
     10 C10        -0.9856  -18.0259  -49.8148 C.ar      23 UNK        -0.1150 
     11 C11        -1.0007  -19.3245  -50.3269 C.ar      23 UNK        -0.0193 
     12 C12         0.2109  -20.0111  -50.4754 C.ar      23 UNK        -0.1150 
     13 C13         1.4206  -19.4025  -50.1237 C.ar      23 UNK        -0.0193 
     14 C14         1.4108  -18.1117  -49.5848 C.ar      23 UNK        -0.1150 
     15 C15         2.7432  -20.1189  -50.3605 C.3       23 UNK        -0.0205 
     16 S16         3.5348  -20.6548  -48.8123 S.3       23 UNK        -0.2404 
     17 C17         2.4517  -22.0311  -48.3059 C.3       23 UNK        -0.0398 
     18 CA          3.1976  -23.0634  -47.4247 C.3       11 UNK         0.1400 
     19 N           3.6017  -22.4875  -46.1378 N.am      11 UNK        -0.5000 
     20 C           4.5102  -23.0219  -45.3116 C.2       10 UNK         0.5000 
     21 O           5.1809  -24.0187  -45.5826 O.2       10 UNK        -0.5000 
     22 CA          4.6610  -22.3556  -43.9322 C.3       10 UNK         0.1400 
     23 CB          5.5873  -21.1331  -44.0162 C.3       10 UNK        -0.1800 
     24 N           3.3724  -21.9701  -43.3476 N.am      10 UNK        -0.5000 
     25 C           2.4253  -22.8391  -42.9623 C.2       9 UNK         0.5000 
     26 O           2.5545  -24.0611  -43.0281 O.2       9 UNK        -0.5000 
     27 CA          1.0996  -22.2591  -42.4396 C.3       9 UNK         0.1400 
     28 CB          1.2257  -21.8816  -40.9562 C.3       9 UNK        -0.1800 
     29 N           0.6415  -21.1017  -43.2065 N.am      9 UNK        -0.5000 
     30 C           0.2058  -21.1426  -44.4741 C.2       8 UNK         0.5000 
     31 O           0.0986  -22.1794  -45.1293 O.2       8 UNK        -0.5000 
     32 CA         -0.1141  -19.7906  -45.1418 C.3       8 UNK         0.1400 
     33 CB         -1.5222  -19.3080  -44.7662 C.3       8 UNK        -0.1800 
     34 N           0.8659  -18.7516  -44.8192 N.am      8 UNK        -0.5000 
     35 C           2.1700  -18.8330  -45.1212 C.2       7 UNK         0.5000 
     36 O           2.6810  -19.7919  -45.6968 O.2       7 UNK        -0.5000 
     37 CA          3.0653  -17.6793  -44.6464 C.3       7 UNK         0.1400 
     38 CB          2.9041  -16.4554  -45.5516 C.3       7 UNK        -0.1800 
     39 N           2.7916  -17.3048  -43.2606 N.am      7 UNK        -0.5000 
     40 C           3.0733  -18.0829  -42.2064 C.2       6 UNK         0.5000 
     41 O           3.6110  -19.1863  -42.2919 O.2       6 UNK        -0.5000 
     42 CA          2.6355  -17.5600  -40.8278 C.3       6 UNK         0.1400 
     43 CB          3.6144  -16.4950  -40.3106 C.3       6 UNK        -0.1800 
     44 N           1.2795  -17.0113  -40.8356 N.am      6 UNK        -0.5000 
     45 C           0.1759  -17.7078  -41.1420 C.2       5 UNK         0.5000 
     46 O           0.1791  -18.8964  -41.4546 O.2       5 UNK        -0.5000 
     47 CA         -1.1573  -16.9465  -41.1257 C.3       5 UNK         0.1400 
     48 CB         -1.8474  -17.0859  -39.7614 C.3       5 UNK        -0.1800 
     49 N          -1.0166  -15.5283  -41.4554 N.am      5 UNK        -0.5000 
     50 C          -0.6787  -15.0541  -42.6615 C.2       4 UNK         0.5000 
     51 O          -0.4814  -15.7772  -43.6425 O.2       4 UNK        -0.5000 
     52 CA         -0.6082  -13.5184  -42.7739 C.3       4 UNK         0.1400 
     53 CB          0.1589  -12.8638  -41.6026 C.3       4 UNK        -0.1800 
     54 N          -0.1030  -13.0509  -44.0660 N.am      4 UNK        -0.5000 
     55 C           1.1480  -13.1053  -44.5474 C.2       3 UNK         0.5000 
     56 O           2.0986  -13.5886  -43.9304 O.2       3 UNK        -0.5000 
     57 CA          1.3736  -12.4865  -45.9470 C.3       3 UNK         0.1400 
     58 CB          2.4691  -13.2025  -46.7548 C.3       3 UNK        -0.1800 
     59 N           0.1422  -12.4743  -46.7379 N.am      3 UNK        -0.5000 
     60 C          -0.6599  -11.4176  -46.9240 C.2       2 UNK         0.5000 
     61 O          -0.4063  -10.2839  -46.5169 O.2       2 UNK        -0.5000 
     62 CA         -1.9925  -11.6794  -47.6590 C.3       2 UNK         0.1400 
     63 CB         -1.8676  -11.3033  -49.1432 C.3       2 UNK        -0.1800 
     64 N          -2.4635  -13.0663  -47.5593 N.am      2 UNK        -0.5000 
     65 C          -2.7964  -13.6860  -46.4168 C.2       1 UNK         0.5000 
     66 O          -2.7886  -13.1184  -45.3215 O.2       1 UNK        -0.5000 
     67 C           2.3388  -24.3364  -47.2499 C.2       11 UNK         0.5000 
     68 O           2.2626  -25.1364  -48.1831 O.2       11 UNK        -0.5000 
     69 N           1.7018  -24.4860  -46.0768 N.am      12 UNK        -0.5000 
     70 CA          0.7059  -25.4994  -45.7099 C.3       12 UNK         0.1400 
     71 CB          1.3538  -26.8955  -45.6115 C.3       12 UNK        -0.1800 
     72 C          -0.5121  -25.4494  -46.6548 C.2       12 UNK         0.5000 
     73 O          -0.9561  -26.4818  -47.1618 O.2       12 UNK        -0.5000 
     74 N          -0.9799  -24.2244  -46.9166 N.am      13 UNK        -0.5000 
     75 CA         -1.9115  -23.8922  -47.9865 C.3       13 UNK         0.1400 
     76 CB         -1.2055  -22.9034  -48.9201 C.3       13 UNK        -0.1800 
     77 C          -3.2127  -23.2895  -47.4376 C.2       13 UNK         0.5000 
     78 O          -3.2564  -22.8179  -46.2983 O.2       13 UNK        -0.5000 
     79 N          -4.2537  -23.3119  -48.2773 N.am      14 UNK        -0.5000 
     80 CA         -5.6378  -22.9357  -47.9782 C.3       14 UNK         0.1400 
     81 CB         -6.5511  -23.5899  -49.0320 C.3       14 UNK        -0.1800 
     82 C          -5.8873  -21.4143  -47.8447 C.2       14 UNK         0.5000 
     83 O          -6.8232  -20.8939  -48.4545 O.2       14 UNK        -0.5000 
     84 N          -5.0764  -20.7414  -47.0169 N.am      15 UNK        -0.5000 
     85 CA         -5.1985  -19.3422  -46.5913 C.3       15 UNK         0.1400 
     86 CB         -6.3796  -19.2008  -45.6047 C.3       15 UNK        -0.1800 
     87 C          -5.2358  -18.3417  -47.7696 C.2       15 UNK         0.5000 
     88 O          -4.4234  -18.4626  -48.6866 O.2       15 UNK        -0.5000 
     89 N          -6.1310  -17.3468  -47.7089 N.am      16 UNK        -0.5000 
     90 CA         -6.3309  -16.3181  -48.7271 C.3       16 UNK         0.1400 
     91 CB         -7.1406  -15.1615  -48.1155 C.3       16 UNK        -0.1800 
     92 C          -7.0075  -16.8952  -49.9851 C.2       16 UNK         0.5000 
     93 O          -8.2366  -16.9134  -50.0776 O.2       16 UNK        -0.5000 
     94 N          -6.1825  -17.3597  -50.9240 N.am      17 UNK        -0.5000 
     95 CA         -6.5547  -17.9167  -52.2177 C.3       17 UNK         0.1400 
     96 CB         -7.0587  -19.3619  -52.0392 C.3       17 UNK        -0.1800 
     97 C          -5.3364  -17.8207  -53.1520 C.2       17 UNK         0.5000 
     98 O          -4.2364  -17.5033  -52.6899 O.2       17 UNK        -0.5000 
     99 N          -5.5540  -18.0618  -54.4516 N.am      18 UNK        -0.5000 
    100 CA        -4.5246  -18.0025  -55.4925 C.3       18 UNK         0.1400 
    101 CB        -5.1880  -18.1687  -56.8683 C.3       18 UNK        -0.1800 
    102 C         -3.4375  -19.0725  -55.2913 C.2       18 UNK         0.5000 
    103 O         -3.7742  -20.2348  -55.0590 O.2       18 UNK        -0.5000 
    104 N         -2.1662  -18.6692  -55.4227 N.am      19 UNK        -0.5000 
    105 CA        -0.9718  -19.4750  -55.1363 C.3       19 UNK         0.1400 
    106 CB         0.2789  -18.6204  -55.3926 C.3       19 UNK        -0.1800 
    107 C         -0.8764  -20.8080  -55.9056 C.2       19 UNK         0.5000 
    108 O         -0.3020  -21.7680  -55.3918 O.2       19 UNK        -0.5000 
    109 N         -1.4437  -20.8447  -57.1176 N.am      20 UNK        -0.5000 
    110 CA        -1.5008  -22.0319  -57.9698 C.3       20 UNK         0.1400 
    111 CB        -1.6808  -21.5782  -59.4272 C.3       20 UNK        -0.1800 
    112 C         -2.6204  -23.0172  -57.5763 C.2       20 UNK         0.5000 
    113 O         -2.5560  -24.1799  -57.9783 O.2       20 UNK        -0.5000 
    114 N         -3.6319  -22.5444  -56.8357 N.am      21 UNK        -0.5000 
    115 CA        -4.8373  -23.3006  -56.4926 C.3       21 UNK         0.1400 
    116 CB        -6.0654  -22.4413  -56.8350 C.3       21 UNK        -0.1800 
    117 C         -4.8825  -23.7056  -55.0102 C.2       21 UNK         0.5000 
    118 O         -5.4834  -24.7313  -54.6886 O.2       21 UNK        -0.5000 
    119 N         -4.2819  -22.8924  -54.1327 N.am      22 UNK        -0.5000 
    120 CA        -4.3644  -23.0265  -52.6703 C.3       22 UNK         0.1400 
    121 C         -3.5754  -24.2070  -52.0319 C.2       22 UNK         0.5000 
    122 N         -2.7423  -24.9297  -52.7689 N.am      22 UNK        -0.7600 
    123 O         -3.7339  -24.4728  -50.8434 O.2       22 UNK        -0.5000 
    124 C124       -4.0790  -21.6755  -51.9715 C.3       23 UNK        -0.0398 
    125 S125       -2.3444  -21.1186  -52.0538 S.3       23 UNK        -0.2404 
    126 C126       -2.3506  -19.9581  -50.6516 C.3       23 UNK        -0.0205 
    127 H127       -3.7460  -15.9383  -42.4171 H         1 UNK         0.0600 
    128 H128       -3.6569  -17.5324  -43.1983 H         1 UNK         0.0600 
    129 H129       -5.2160  -16.8656  -42.7232 H         1 UNK         0.0600 
    130 H130       -2.3384  -16.0234  -44.7797 H         1 UNK         0.3000 
    131 H131       -4.1702  -15.1919  -46.9592 H         1 UNK         0.0600 
    132 H132       -2.5677  -17.0514  -47.4393 H         1 UNK         0.0800 
    133 H133       -2.4678  -15.6864  -48.5041 H         1 UNK         0.0800 
    134 H134       -0.3519  -15.3376  -49.5052 H         1 UNK         0.0800 
    135 H135        1.2228  -15.6140  -48.8182 H         1 UNK         0.0800 
    136 H136       -1.9208  -17.4982  -49.7121 H         1 UNK         0.1150 
    137 H137        0.2158  -21.0164  -50.8712 H         1 UNK         0.1150 
    138 H138        2.3449  -17.6472  -49.3014 H         1 UNK         0.1150 
    139 H139        2.6107  -20.9766  -51.0218 H         1 UNK         0.0800 
    140 H140        3.4217  -19.4411  -50.8802 H         1 UNK         0.0800 
    141 H141        1.5866  -21.6221  -47.7803 H         1 UNK         0.0800 
    142 H142        2.0688  -22.5087  -49.2095 H         1 UNK         0.0800 
    143 H143        4.1021  -23.3686  -47.9553 H         1 UNK         0.0600 
    144 H144        3.1564  -21.6097  -45.8774 H         1 UNK         0.3000 
    145 H145        5.1256  -23.0832  -43.2636 H         1 UNK         0.0600 
    146 H146        5.7797  -20.7165  -43.0275 H         1 UNK         0.0600 
    147 H147        5.1596  -20.3444  -44.6353 H         1 UNK         0.0600 
    148 H148        6.5520  -21.4026  -44.4476 H         1 UNK         0.0600 
    149 H149        3.2134  -20.9762  -43.2195 H         1 UNK         0.3000 
    150 H150        0.3398  -23.0388  -42.5260 H         1 UNK         0.0600 
    151 H151        1.5584  -22.7334  -40.3617 H         1 UNK         0.0600 
    152 H152        0.2677  -21.5565  -40.5503 H         1 UNK         0.0600 
    153 H153        1.9437  -21.0743  -40.8065 H         1 UNK         0.0600 
    154 H154        0.6474  -20.2096  -42.7180 H         1 UNK         0.3000 
    155 H155       -0.0867  -19.9431  -46.2232 H         1 UNK         0.0600 
    156 H156       -2.2680  -20.0658  -45.0092 H         1 UNK         0.0600 
    157 H157       -1.7851  -18.4018  -45.3116 H         1 UNK         0.0600 
    158 H158       -1.6035  -19.0964  -43.7001 H         1 UNK         0.0600 
    159 H159        0.5252  -17.9257  -44.3454 H         1 UNK         0.3000 
    160 H160        4.1028  -18.0135  -44.7135 H         1 UNK         0.0600 
    161 H161        1.9113  -16.0185  -45.4469 H         1 UNK         0.0600 
    162 H162        3.0430  -16.7173  -46.6014 H         1 UNK         0.0600 
    163 H163        3.6357  -15.6862  -45.3044 H         1 UNK         0.0600 
    164 H164        2.3222  -16.4227  -43.1110 H         1 UNK         0.3000 
    165 H165        2.6496  -18.4034  -40.1342 H         1 UNK         0.0600 
    166 H166        3.3614  -16.1864  -39.2962 H         1 UNK         0.0600 
    167 H167        4.6341  -16.8816  -40.2867 H         1 UNK         0.0600 
    168 H168        3.6148  -15.6055  -40.9421 H         1 UNK         0.0600 
    169 H169        1.1805  -16.0356  -40.5992 H         1 UNK         0.3000 
    170 H170       -1.7934  -17.4126  -41.8773 H         1 UNK         0.0600 
    171 H171       -1.9823  -18.1359  -39.4979 H         1 UNK         0.0600 
    172 H172       -1.2656  -16.6196  -38.9653 H         1 UNK         0.0600 
    173 H173       -2.8356  -16.6256  -39.7709 H         1 UNK         0.0600 
    174 H174       -1.1858  -14.8749  -40.7044 H         1 UNK         0.3000 
    175 H175       -1.6402  -13.1681  -42.7266 H         1 UNK         0.0600 
    176 H176        1.1577  -13.2847  -41.4825 H         1 UNK         0.0600 
    177 H177        0.2663  -11.7897  -41.7546 H         1 UNK         0.0600 
    178 H178       -0.3668  -12.9966  -40.6568 H         1 UNK         0.0600 
    179 H179       -0.8265  -12.7074  -44.6860 H         1 UNK         0.3000 
    180 H180        1.7153  -11.4645  -45.7728 H         1 UNK         0.0600 
    181 H181        3.4055  -13.2580  -46.1988 H         1 UNK         0.0600 
    182 H182        2.6780  -12.6701  -47.6827 H         1 UNK         0.0600 
    183 H183        2.1749  -14.2168  -47.0177 H         1 UNK         0.0600 
    184 H184       -0.1648  -13.3731  -47.0833 H         1 UNK         0.3000 
    185 H185       -2.7484  -11.0360  -47.2039 H         1 UNK         0.0600 
    186 H186       -1.5454  -10.2674  -49.2582 H         1 UNK         0.0600 
    187 H187       -1.1399  -11.9321  -49.6579 H         1 UNK         0.0600 
    188 H188       -2.8233  -11.4028  -49.6582 H         1 UNK         0.0600 
    189 H189       -2.5024  -13.5781  -48.4279 H         1 UNK         0.3000 
    190 H190        1.8191  -23.7468  -45.3970 H         1 UNK         0.3000 
    191 H191        0.3413  -25.2301  -44.7175 H         1 UNK         0.0600 
    192 H192        0.6414  -27.6295  -45.2338 H         1 UNK         0.0600 
    193 H193        2.2030  -26.8852  -44.9280 H         1 UNK         0.0600 
    194 H194        1.7068  -27.2502  -46.5801 H         1 UNK         0.0600 
    195 H195       -0.6242  -23.4409  -46.3735 H         1 UNK         0.3000 
    196 H196       -2.1684  -24.7852  -48.5602 H         1 UNK         0.0600 
    197 H197       -0.2672  -23.3133  -49.2930 H         1 UNK         0.0600 
    198 H198       -1.8265  -22.6975  -49.7877 H         1 UNK         0.0600 
    199 H199       -0.9899  -21.9560  -48.4240 H         1 UNK         0.0600 
    200 H200       -4.1002  -23.7110  -49.2019 H         1 UNK         0.3000 
    201 H201       -5.8952  -23.3725  -47.0112 H         1 UNK         0.0600 
    202 H202       -7.6038  -23.4232  -48.8002 H         1 UNK         0.0600 
    203 H203       -6.3983  -24.6685  -49.0730 H         1 UNK         0.0600 
    204 H204       -6.3654  -23.1881  -50.0285 H         1 UNK         0.0600 
    205 H205       -4.3218  -21.2742  -46.5925 H         1 UNK         0.3000 
    206 H206       -4.2857  -19.1118  -46.0418 H         1 UNK         0.0600 
    207 H207       -6.2904  -19.9163  -44.7871 H         1 UNK         0.0600 
    208 H208       -6.4101  -18.2101  -45.1514 H         1 UNK         0.0600 
    209 H209       -7.3395  -19.3761  -46.0923 H         1 UNK         0.0600 
    210 H210       -6.7604  -17.3160  -46.9203 H         1 UNK         0.3000 
    211 H211       -5.3560  -15.9210  -49.0174 H         1 UNK         0.0600 
    212 H212       -8.1109  -15.4966  -47.7468 H         1 UNK         0.0600 
    213 H213       -7.3217  -14.3793  -48.8537 H         1 UNK         0.0600 
    214 H214       -6.6090  -14.7027  -47.2820 H         1 UNK         0.0600 
    215 H215       -5.1807  -17.3266  -50.7716 H         1 UNK         0.3000 
    216 H216       -7.3485  -17.3079  -52.6554 H         1 UNK         0.0600 
    217 H217       -6.4164  -19.9292  -51.3661 H         1 UNK         0.0600 
    218 H218       -7.1123  -19.8975  -52.9877 H         1 UNK         0.0600 
    219 H219       -8.0596  -19.3708  -51.6074 H         1 UNK         0.0600 
    220 H220       -6.4774  -18.3368  -54.7520 H         1 UNK         0.3000 
    221 H221       -4.0619  -17.0143  -55.4494 H         1 UNK         0.0600 
    222 H222       -5.9247  -17.3857  -57.0488 H         1 UNK         0.0600 
    223 H223       -4.4494  -18.1088  -57.6688 H         1 UNK         0.0600 
    224 H224       -5.6924  -19.1314  -56.9596 H         1 UNK         0.0600 
    225 H225       -1.9937  -17.6981  -55.6383 H         1 UNK         0.3000 
    226 H226       -0.9902  -19.7144  -54.0737 H         1 UNK         0.0600 
    227 H227        0.2836  -17.7291  -54.7648 H         1 UNK         0.0600 
    228 H228        1.1878  -19.1791  -55.1646 H         1 UNK         0.0600 
    229 H229        0.3415  -18.3011  -56.4336 H         1 UNK         0.0600 
    230 H230       -1.8905  -20.0090  -57.4650 H         1 UNK         0.3000 
    231 H231       -0.5513  -22.5665  -57.8966 H         1 UNK         0.0600 
    232 H232       -1.6955  -22.4331  -60.1045 H         1 UNK         0.0600 
    233 H233       -0.8627  -20.9303  -59.7428 H         1 UNK         0.0600 
    234 H234       -2.6152  -21.0330  -59.5667 H         1 UNK         0.0600 
    235 H235       -3.5812  -21.5968  -56.4776 H         1 UNK         0.3000 
    236 H236       -4.8961  -24.2166  -57.0840 H         1 UNK         0.0600 
    237 H237       -6.0846  -21.5179  -56.2547 H         1 UNK         0.0600 
    238 H238       -6.0772  -22.1737  -57.8916 H         1 UNK         0.0600 
    239 H239       -6.9904  -22.9799  -56.6254 H         1 UNK         0.0600 
    240 H240       -3.8509  -22.0366  -54.4703 H         1 UNK         0.3000 
    241 H241       -5.4100  -23.2552  -52.4548 H         1 UNK         0.0600 
    242 H242       -2.6061  -24.7115  -53.7426 H         1 UNK         0.3800 
    243 H243       -2.2412  -25.6947  -52.3468 H         1 UNK         0.3800 
    244 H244       -4.3932  -21.7244  -50.9277 H         1 UNK         0.0800 
    245 H245       -4.6852  -20.8971  -52.4320 H         1 UNK         0.0800 
    246 H246       -2.7145  -20.4620  -49.7557 H         1 UNK         0.0800 
    247 H247       -3.0779  -19.1781  -50.8800 H         1 UNK         0.0800 
@<TRIPOS>BOND
     1    1    2 1    
     2    1  127 1    
     3    1  128 1    
     4    1  129 1    
     5    2    3 2    
     6    2    4 am   BACKBONE|DICT|INTERRES
     7    4    5 1    
     8    4  130 1    
     9    5    6 1    
    10    5   65 1    
    11    5  131 1    
    12    6    7 1    
    13    6  132 1    
    14    6  133 1    
    15    7    8 1    
    16    8    9 1    
    17    8  134 1    
    18    8  135 1    
    19    9   10 ar   
    20    9   14 ar   
    21   10   11 ar   
    22   10  136 1    
    23   11   12 ar   
    24   11  126 1    
    25   12   13 ar   
    26   12  137 1    
    27   13   14 ar   
    28   13   15 1    
    29   14  138 1    
    30   15   16 1    
    31   15  139 1    
    32   15  140 1    
    33   16   17 1    
    34   17   18 1    
    35   17  141 1    
    36   17  142 1    
    37   18   19 1    
    38   18   67 1    
    39   18  143 1    
    40   19   20 am   BACKBONE|DICT|INTERRES
    41   19  144 1    
    42   20   21 2    
    43   20   22 1    
    44   22   23 1    
    45   22   24 1    
    46   22  145 1    
    47   23  146 1    
    48   23  147 1    
    49   23  148 1    
    50   24   25 am   BACKBONE|DICT|INTERRES
    51   24  149 1    
    52   25   26 2    
    53   25   27 1    
    54   27   28 1    
    55   27   29 1    
    56   27  150 1    
    57   28  151 1    
    58   28  152 1    
    59   28  153 1    
    60   29   30 am   BACKBONE|DICT|INTERRES
    61   29  154 1    
    62   30   31 2    
    63   30   32 1    
    64   32   33 1    
    65   32   34 1    
    66   32  155 1    
    67   33  156 1    
    68   33  157 1    
    69   33  158 1    
    70   34   35 am   BACKBONE|DICT|INTERRES
    71   34  159 1    
    72   35   36 2    
    73   35   37 1    
    74   37   38 1    
    75   37   39 1    
    76   37  160 1    
    77   38  161 1    
    78   38  162 1    
    79   38  163 1    
    80   39   40 am   BACKBONE|DICT|INTERRES
    81   39  164 1    
    82   40   41 2    
    83   40   42 1    
    84   42   43 1    
    85   42   44 1    
    86   42  165 1    
    87   43  166 1    
    88   43  167 1    
    89   43  168 1    
    90   44   45 am   BACKBONE|DICT|INTERRES
    91   44  169 1    
    92   45   46 2    
    93   45   47 1    
    94   47   48 1    
    95   47   49 1    
    96   47  170 1    
    97   48  171 1    
    98   48  172 1    
    99   48  173 1    
   100   49   50 am   BACKBONE|DICT|INTERRES
   101   49  174 1    
   102   50   51 2    
   103   50   52 1    
   104   52   53 1    
   105   52   54 1    
   106   52  175 1    
   107   53  176 1    
   108   53  177 1    
   109   53  178 1    
   110   54   55 am   BACKBONE|DICT|INTERRES
   111   54  179 1    
   112   55   56 2    
   113   55   57 1    
   114   57   58 1    
   115   57   59 1    
   116   57  180 1    
   117   58  181 1    
   118   58  182 1    
   119   58  183 1    
   120   59   60 am   BACKBONE|DICT|INTERRES
   121   59  184 1    
   122   60   61 2    
   123   60   62 1    
   124   62   63 1    
   125   62   64 1    
   126   62  185 1    
   127   63  186 1    
   128   63  187 1    
   129   63  188 1    
   130   64   65 am   BACKBONE|DICT|INTERRES
   131   64  189 1    
   132   65   66 2    
   133   67   68 2    
   134   67   69 am   BACKBONE|DICT|INTERRES
   135   69   70 1    
   136   69  190 1    
   137   70   71 1    
   138   70   72 1    
   139   70  191 1    
   140   71  192 1    
   141   71  193 1    
   142   71  194 1    
   143   72   73 2    
   144   72   74 am   BACKBONE|DICT|INTERRES
   145   74   75 1    
   146   74  195 1    
   147   75   76 1    
   148   75   77 1    
   149   75  196 1    
   150   76  197 1    
   151   76  198 1    
   152   76  199 1    
   153   77   78 2    
   154   77   79 am   BACKBONE|DICT|INTERRES
   155   79   80 1    
   156   79  200 1    
   157   80   81 1    
   158   80   82 1    
   159   80  201 1    
   160   81  202 1    
   161   81  203 1    
   162   81  204 1    
   163   82   83 2    
   164   82   84 am   BACKBONE|DICT|INTERRES
   165   84   85 1    
   166   84  205 1    
   167   85   86 1    
   168   85   87 1    
   169   85  206 1    
   170   86  207 1    
   171   86  208 1    
   172   86  209 1    
   173   87   88 2    
   174   87   89 am   BACKBONE|DICT|INTERRES
   175   89   90 1    
   176   89  210 1    
   177   90   91 1    
   178   90   92 1    
   179   90  211 1    
   180   91  212 1    
   181   91  213 1    
   182   91  214 1    
   183   92   93 2    
   184   92   94 am   BACKBONE|DICT|INTERRES
   185   94   95 1    
   186   94  215 1    
   187   95   96 1    
   188   95   97 1    
   189   95  216 1    
   190   96  217 1    
   191   96  218 1    
   192   96  219 1    
   193   97   98 2    
   194   97   99 am   BACKBONE|DICT|INTERRES
   195   99  100 1    
   196   99  220 1    
   197  100  101 1    
   198  100  102 1    
   199  100  221 1    
   200  101  222 1    
   201  101  223 1    
   202  101  224 1    
   203  102  103 2    
   204  102  104 am   BACKBONE|DICT|INTERRES
   205  104  105 1    
   206  104  225 1    
   207  105  106 1    
   208  105  107 1    
   209  105  226 1    
   210  106  227 1    
   211  106  228 1    
   212  106  229 1    
   213  107  108 2    
   214  107  109 am   BACKBONE|DICT|INTERRES
   215  109  110 1    
   216  109  230 1    
   217  110  111 1    
   218  110  112 1    
   219  110  231 1    
   220  111  232 1    
   221  111  233 1    
   222  111  234 1    
   223  112  113 2    
   224  112  114 am   BACKBONE|DICT|INTERRES
   225  114  115 1    
   226  114  235 1    
   227  115  116 1    
   228  115  117 1    
   229  115  236 1    
   230  116  237 1    
   231  116  238 1    
   232  116  239 1    
   233  117  118 2    
   234  117  119 am   BACKBONE|DICT|INTERRES
   235  119  120 1    
   236  119  240 1    
   237  120  121 1    
   238  120  124 1    
   239  120  241 1    
   240  121  122 am   BACKBONE|DICT|INTERRES
   241  121  123 2    
   242  122  242 1    
   243  122  243 1    
   244  124  125 1    
   245  124  244 1    
   246  124  245 1    
   247  125  126 1    
   248  126  246 1    
   249  126  247 1    
@<TRIPOS>SUBSTRUCTURE
     1 UNK         1 GROUP             0       ****    0 ROOT    
