@<TRIPOS>MOLECULE
3R540
247   249    1
SMALL
USER_CHARGES


@<TRIPOS>ATOM
      1 CA          2.3821  -11.3926  -45.6838 C.3       0 UNK        -0.1800 
      2 C           1.3364  -12.4584  -45.9739 C.2       0 UNK         0.5000 
      3 O           0.3812  -12.5979  -45.2142 O.2       0 UNK        -0.5000 
      4 N           1.5018  -13.1963  -47.0803 N.am      1 UNK        -0.5000 
      5 CA          0.6629  -14.3204  -47.5334 C.3       1 UNK         0.1400 
      6 C6          1.1984  -14.8824  -48.8760 C.3       23 UNK        -0.0398 
      7 S7          0.9942  -16.6849  -49.0660 S.3       23 UNK        -0.2404 
      8 C8          2.4241  -17.0107  -50.1393 C.3       23 UNK        -0.0205 
      9 C9          2.4450  -18.4303  -50.6783 C.ar      23 UNK        -0.0193 
     10 C10         1.9754  -18.7007  -51.9656 C.ar      23 UNK        -0.1150 
     11 C11         2.1035  -19.9805  -52.5110 C.ar      23 UNK        -0.0193 
     12 C12         2.6789  -20.9991  -51.7461 C.ar      23 UNK        -0.1150 
     13 C13         3.1260  -20.7525  -50.4407 C.ar      23 UNK        -0.0193 
     14 C14         3.0075  -19.4602  -49.9215 C.ar      23 UNK        -0.1150 
     15 C15         3.8084  -21.8159  -49.5789 C.3       23 UNK        -0.0205 
     16 S16         3.6608  -23.5392  -50.1690 S.3       23 UNK        -0.2404 
     17 C17         2.0864  -24.0692  -49.4132 C.3       23 UNK        -0.0398 
     18 CA          2.3457  -24.9132  -48.1389 C.3       11 UNK         0.1400 
     19 N           2.9270  -24.0949  -47.0722 N.am      11 UNK        -0.5000 
     20 C           4.0575  -24.3541  -46.4036 C.2       10 UNK         0.5000 
     21 O           4.7910  -25.3146  -46.6381 O.2       10 UNK        -0.5000 
     22 CA          4.4175  -23.3879  -45.2559 C.3       10 UNK         0.1400 
     23 CB          5.5003  -22.3973  -45.7093 C.3       10 UNK        -0.1800 
     24 N           3.2615  -22.6412  -44.7485 N.am      10 UNK        -0.5000 
     25 C           2.2324  -23.1927  -44.0857 C.2       9 UNK         0.5000 
     26 O           2.1795  -24.3865  -43.7903 O.2       9 UNK        -0.5000 
     27 CA          1.0324  -22.2859  -43.7552 C.3       9 UNK         0.1400 
     28 CB          1.1490  -21.7475  -42.3224 C.3       9 UNK        -0.1800 
     29 N           0.8758  -21.1660  -44.6842 N.am      9 UNK        -0.5000 
     30 C           0.6159  -21.2791  -45.9965 C.2       8 UNK         0.5000 
     31 O           0.4782  -22.3592  -46.5749 O.2       8 UNK        -0.5000 
     32 CA          0.5563  -19.9696  -46.8079 C.3       8 UNK         0.1400 
     33 CB         -0.9013  -19.5193  -46.9913 C.3       8 UNK        -0.1800 
     34 N           1.3346  -18.8805  -46.2056 N.am      8 UNK        -0.5000 
     35 C           2.6703  -18.8932  -46.0629 C.2       7 UNK         0.5000 
     36 O           3.3742  -19.8440  -46.4027 O.2       7 UNK        -0.5000 
     37 CA          3.3422  -17.6723  -45.4019 C.3       7 UNK         0.1400 
     38 CB          3.9205  -16.7259  -46.4639 C.3       7 UNK        -0.1800 
     39 N           2.4625  -16.9124  -44.5136 N.am      7 UNK        -0.5000 
     40 C           1.9350  -17.3808  -43.3756 C.2       6 UNK         0.5000 
     41 O           2.1498  -18.5140  -42.9430 O.2       6 UNK        -0.5000 
     42 CA          0.9635  -16.4589  -42.6086 C.3       6 UNK         0.1400 
     43 CB          0.8827  -15.0192  -43.1572 C.3       6 UNK        -0.1800 
     44 N          -0.3748  -17.0509  -42.5470 N.am      6 UNK        -0.5000 
     45 C          -1.1197  -17.4512  -43.5890 C.2       5 UNK         0.5000 
     46 O          -0.8115  -17.2778  -44.7666 O.2       5 UNK        -0.5000 
     47 CA         -2.4479  -18.1417  -43.2408 C.3       5 UNK         0.1400 
     48 CB         -2.1831  -19.5177  -42.6084 C.3       5 UNK        -0.1800 
     49 N          -3.2231  -17.3276  -42.3043 N.am      5 UNK        -0.5000 
     50 C          -3.8707  -16.1761  -42.5396 C.2       4 UNK         0.5000 
     51 O          -4.3502  -15.5426  -41.6009 O.2       4 UNK        -0.5000 
     52 CA         -4.0838  -15.6682  -43.9901 C.3       4 UNK         0.1400 
     53 CB         -5.5793  -15.7014  -44.3624 C.3       4 UNK        -0.1800 
     54 N          -3.5041  -14.3421  -44.2297 N.am      4 UNK        -0.5000 
     55 C          -3.8809  -13.1512  -43.7362 C.2       3 UNK         0.5000 
     56 O          -4.8391  -12.9677  -42.9854 O.2       3 UNK        -0.5000 
     57 CA         -3.0534  -11.9333  -44.1893 C.3       3 UNK         0.1400 
     58 CB         -1.9207  -11.6542  -43.1900 C.3       3 UNK        -0.1800 
     59 N          -2.4975  -12.0789  -45.5389 N.am      3 UNK        -0.5000 
     60 C          -3.2362  -12.0412  -46.6600 C.2       2 UNK         0.5000 
     61 O          -4.4572  -11.8857  -46.6563 O.2       2 UNK        -0.5000 
     62 CA         -2.5160  -12.1814  -48.0178 C.3       2 UNK         0.1400 
     63 CB         -2.4644  -10.8273  -48.7416 C.3       2 UNK        -0.1800 
     64 N          -1.1569  -12.7107  -47.9216 N.am      2 UNK        -0.5000 
     65 C          -0.8426  -13.9836  -47.6491 C.2       1 UNK         0.5000 
     66 O          -1.6861  -14.8654  -47.4878 O.2       1 UNK        -0.5000 
     67 C           1.0746  -25.6350  -47.6343 C.2       11 UNK         0.5000 
     68 O           0.3236  -26.1767  -48.4460 O.2       11 UNK        -0.5000 
     69 N           0.8649  -25.6465  -46.3062 N.am      12 UNK        -0.5000 
     70 CA         -0.2295  -26.2848  -45.5668 C.3       12 UNK         0.1400 
     71 CB         -0.1520  -27.8200  -45.7015 C.3       12 UNK        -0.1800 
     72 C          -1.6328  -25.7286  -45.8931 C.2       12 UNK         0.5000 
     73 O          -2.6278  -26.4179  -45.6599 O.2       12 UNK        -0.5000 
     74 N          -1.6986  -24.4944  -46.4061 N.am      13 UNK        -0.5000 
     75 CA         -2.9388  -23.7806  -46.6936 C.3       13 UNK         0.1400 
     76 CB         -2.7767  -23.0369  -48.0264 C.3       13 UNK        -0.1800 
     77 C          -3.2702  -22.8096  -45.5487 C.2       13 UNK         0.5000 
     78 O          -2.3869  -22.4360  -44.7745 O.2       13 UNK        -0.5000 
     79 N          -4.5423  -22.4093  -45.4687 N.am      14 UNK        -0.5000 
     80 CA         -5.0703  -21.5140  -44.4420 C.3       14 UNK         0.1400 
     81 CB         -5.6813  -22.3395  -43.2946 C.3       14 UNK        -0.1800 
     82 C          -6.0543  -20.5265  -45.0835 C.2       14 UNK         0.5000 
     83 O          -7.2130  -20.4389  -44.6743 O.2       14 UNK        -0.5000 
     84 N          -5.5715  -19.8174  -46.1073 N.am      15 UNK        -0.5000 
     85 CA         -6.3102  -18.8154  -46.8636 C.3       15 UNK         0.1400 
     86 CB         -7.0630  -19.4949  -48.0183 C.3       15 UNK        -0.1800 
     87 C          -5.3232  -17.7684  -47.3906 C.2       15 UNK         0.5000 
     88 O          -4.1234  -18.0468  -47.4781 O.2       15 UNK        -0.5000 
     89 N          -5.8515  -16.5900  -47.7423 N.am      16 UNK        -0.5000 
     90 CA         -5.1041  -15.4701  -48.3126 C.3       16 UNK         0.1400 
     91 CB         -6.0441  -14.2661  -48.4728 C.3       16 UNK        -0.1800 
     92 C          -4.4791  -15.8596  -49.6615 C.2       16 UNK         0.5000 
     93 O          -5.2028  -16.3021  -50.5567 O.2       16 UNK        -0.5000 
     94 N          -3.1473  -15.7506  -49.7540 N.am      17 UNK        -0.5000 
     95 CA         -2.3104  -16.1754  -50.8841 C.3       17 UNK         0.1400 
     96 CB         -2.5604  -15.2770  -52.1125 C.3       17 UNK        -0.1800 
     97 C          -2.4532  -17.6814  -51.2026 C.2       17 UNK         0.5000 
     98 O          -2.3663  -18.0777  -52.3667 O.2       17 UNK        -0.5000 
     99 N          -2.7553  -18.4814  -50.1649 N.am      18 UNK        -0.5000 
    100 CA        -3.1042  -19.9056  -50.2117 C.3       18 UNK         0.1400 
    101 CB        -1.8762  -20.7435  -50.6262 C.3       18 UNK        -0.1800 
    102 C         -4.3441  -20.2074  -51.0854 C.2       18 UNK         0.5000 
    103 O         -4.4800  -21.3265  -51.5794 O.2       18 UNK        -0.5000 
    104 N         -5.1972  -19.1933  -51.3169 N.am      19 UNK        -0.5000 
    105 CA        -6.3273  -19.1710  -52.2572 C.3       19 UNK         0.1400 
    106 CB        -7.4551  -20.1077  -51.7755 C.3       19 UNK        -0.1800 
    107 C         -5.9237  -19.4570  -53.7236 C.2       19 UNK         0.5000 
    108 O         -6.7761  -19.8471  -54.5226 O.2       19 UNK        -0.5000 
    109 N         -4.6267  -19.3025  -54.0394 N.am      20 UNK        -0.5000 
    110 CA        -3.9453  -19.7189  -55.2701 C.3       20 UNK         0.1400 
    111 CB        -4.4595  -18.9222  -56.4864 C.3       20 UNK        -0.1800 
    112 C         -3.9587  -21.2472  -55.5172 C.2       20 UNK         0.5000 
    113 O         -3.5896  -21.6851  -56.6089 O.2       20 UNK        -0.5000 
    114 N         -4.3332  -22.0484  -54.5049 N.am      21 UNK        -0.5000 
    115 CA        -4.3920  -23.5144  -54.5669 C.3       21 UNK         0.1400 
    116 CB        -5.1688  -24.0421  -53.3512 C.3       21 UNK        -0.1800 
    117 C         -2.9994  -24.1692  -54.6493 C.2       21 UNK         0.5000 
    118 O         -2.8854  -25.3222  -55.0664 O.2       21 UNK        -0.5000 
    119 N         -1.9699  -23.4023  -54.2772 N.am      22 UNK        -0.5000 
    120 CA        -0.5466  -23.6893  -54.4797 C.3       22 UNK         0.1400 
    121 C         -0.0859  -23.7295  -55.9702 C.2       22 UNK         0.5000 
    122 N         -0.8666  -23.2434  -56.9302 N.am      22 UNK        -0.7600 
    123 O          1.0009  -24.2221  -56.2599 O.2       22 UNK        -0.5000 
    124 C124        0.3206  -22.7167  -53.6407 C.3       23 UNK        -0.0398 
    125 S125       -0.0017  -20.9543  -54.0260 S.3       23 UNK        -0.2404 
    126 C126        1.6686  -20.2456  -53.9449 C.3       23 UNK        -0.0205 
    127 H127        3.1648  -11.3735  -46.4424 H         1 UNK         0.0600 
    128 H128        2.8486  -11.5818  -44.7170 H         1 UNK         0.0600 
    129 H129        1.9142  -10.4087  -45.6508 H         1 UNK         0.0600 
    130 H130        2.3037  -12.9991  -47.6620 H         1 UNK         0.3000 
    131 H131        0.7541  -15.0919  -46.7659 H         1 UNK         0.0600 
    132 H132        2.2672  -14.6775  -48.9536 H         1 UNK         0.0800 
    133 H133        0.7517  -14.3792  -49.7361 H         1 UNK         0.0800 
    134 H134        2.4177  -16.3027  -50.9698 H         1 UNK         0.0800 
    135 H135        3.3434  -16.8192  -49.5839 H         1 UNK         0.0800 
    136 H136        1.5447  -17.9057  -52.5581 H         1 UNK         0.1150 
    137 H137        2.7943  -21.9766  -52.1875 H         1 UNK         0.1150 
    138 H138        3.3849  -19.2446  -48.9329 H         1 UNK         0.1150 
    139 H139        4.8701  -21.5720  -49.5268 H         1 UNK         0.0800 
    140 H140        3.4333  -21.7513  -48.5566 H         1 UNK         0.0800 
    141 H141        1.4588  -23.2031  -49.1944 H         1 UNK         0.0800 
    142 H142        1.5528  -24.6512  -50.1663 H         1 UNK         0.0800 
    143 H143        3.0371  -25.7141  -48.4086 H         1 UNK         0.0600 
    144 H144        2.3678  -23.2976  -46.7922 H         1 UNK         0.3000 
    145 H145        4.8211  -23.9845  -44.4353 H         1 UNK         0.0600 
    146 H146        5.7704  -21.7094  -44.9079 H         1 UNK         0.0600 
    147 H147        5.1726  -21.8057  -46.5646 H         1 UNK         0.0600 
    148 H148        6.4084  -22.9232  -46.0068 H         1 UNK         0.0600 
    149 H149        3.2168  -21.6598  -44.9935 H         1 UNK         0.3000 
    150 H150        0.1308  -22.8983  -43.8195 H         1 UNK         0.0600 
    151 H151        2.0408  -21.1328  -42.1955 H         1 UNK         0.0600 
    152 H152        0.2837  -21.1433  -42.0532 H         1 UNK         0.0600 
    153 H153        1.2095  -22.5648  -41.6026 H         1 UNK         0.0600 
    154 H154        1.0206  -20.2411  -44.3026 H         1 UNK         0.3000 
    155 H155        0.9774  -20.1692  -47.7954 H         1 UNK         0.0600 
    156 H156       -1.4484  -20.2190  -47.6180 H         1 UNK         0.0600 
    157 H157       -0.9644  -18.5420  -47.4705 H         1 UNK         0.0600 
    158 H158       -1.4318  -19.4637  -46.0410 H         1 UNK         0.0600 
    159 H159        0.8038  -18.0867  -45.8641 H         1 UNK         0.3000 
    160 H160        4.1720  -18.0527  -44.8024 H         1 UNK         0.0600 
    161 H161        3.1341  -16.2437  -47.0421 H         1 UNK         0.0600 
    162 H162        4.5618  -17.2639  -47.1635 H         1 UNK         0.0600 
    163 H163        4.5255  -15.9431  -46.0060 H         1 UNK         0.0600 
    164 H164        2.2150  -15.9797  -44.8077 H         1 UNK         0.3000 
    165 H165        1.3353  -16.4054  -41.5845 H         1 UNK         0.0600 
    166 H166        0.4768  -14.9912  -44.1681 H         1 UNK         0.0600 
    167 H167        0.2383  -14.4026  -42.5312 H         1 UNK         0.0600 
    168 H168        1.8627  -14.5407  -43.1733 H         1 UNK         0.0600 
    169 H169       -0.7179  -17.2434  -41.6173 H         1 UNK         0.3000 
    170 H170       -3.0205  -18.3121  -44.1539 H         1 UNK         0.0600 
    171 H171       -1.6952  -20.1840  -43.3212 H         1 UNK         0.0600 
    172 H172       -1.5411  -19.4511  -41.7294 H         1 UNK         0.0600 
    173 H173       -3.1094  -19.9969  -42.2939 H         1 UNK         0.0600 
    174 H174       -3.1750  -17.6301  -41.3429 H         1 UNK         0.3000 
    175 H175       -3.5761  -16.3092  -44.7066 H         1 UNK         0.0600 
    176 H176       -6.1940  -15.1649  -43.6390 H         1 UNK         0.0600 
    177 H177       -5.7550  -15.2507  -45.3378 H         1 UNK         0.0600 
    178 H178       -5.9457  -16.7276  -44.3980 H         1 UNK         0.0600 
    179 H179       -2.6983  -14.3381  -44.8399 H         1 UNK         0.3000 
    180 H180       -3.7167  -11.0656  -44.1919 H         1 UNK         0.0600 
    181 H181       -2.3203  -11.4508  -42.1958 H         1 UNK         0.0600 
    182 H182       -1.3323  -10.7866  -43.4891 H         1 UNK         0.0600 
    183 H183       -1.2444  -12.5045  -43.1013 H         1 UNK         0.0600 
    184 H184       -1.4929  -12.2203  -45.6003 H         1 UNK         0.3000 
    185 H185       -3.1056  -12.8670  -48.6290 H         1 UNK         0.0600 
    186 H186       -3.4654  -10.4132  -48.8705 H         1 UNK         0.0600 
    187 H187       -1.8759  -10.0965  -48.1856 H         1 UNK         0.0600 
    188 H188       -2.0265  -10.9271  -49.7350 H         1 UNK         0.0600 
    189 H189       -0.4048  -12.0448  -48.0236 H         1 UNK         0.3000 
    190 H190        1.5454  -25.1760  -45.7225 H         1 UNK         0.3000 
    191 H191       -0.0566  -26.0423  -44.5174 H         1 UNK         0.0600 
    192 H192       -0.8567  -28.3099  -45.0285 H         1 UNK         0.0600 
    193 H193        0.8423  -28.1882  -45.4486 H         1 UNK         0.0600 
    194 H194       -0.3851  -28.1499  -46.7142 H         1 UNK         0.0600 
    195 H195       -0.8470  -23.9502  -46.4954 H         1 UNK         0.3000 
    196 H196       -3.7688  -24.4828  -46.7957 H         1 UNK         0.0600 
    197 H197       -1.9103  -22.3780  -48.0140 H         1 UNK         0.0600 
    198 H198       -2.6409  -23.7398  -48.8486 H         1 UNK         0.0600 
    199 H199       -3.6565  -22.4357  -48.2574 H         1 UNK         0.0600 
    200 H200       -5.2106  -22.7307  -46.1558 H         1 UNK         0.3000 
    201 H201       -4.2653  -20.9051  -44.0318 H         1 UNK         0.0600 
    202 H202       -6.0742  -21.6908  -42.5107 H         1 UNK         0.0600 
    203 H203       -4.9334  -22.9858  -42.8349 H         1 UNK         0.0600 
    204 H204       -6.4995  -22.9699  -43.6446 H         1 UNK         0.0600 
    205 H205       -4.5965  -19.8986  -46.3666 H         1 UNK         0.3000 
    206 H206       -7.0229  -18.3101  -46.2080 H         1 UNK         0.0600 
    207 H207       -7.7949  -20.2116  -47.6455 H         1 UNK         0.0600 
    208 H208       -7.6041  -18.7627  -48.6185 H         1 UNK         0.0600 
    209 H209       -6.3809  -20.0292  -48.6803 H         1 UNK         0.0600 
    210 H210       -6.8506  -16.4634  -47.6742 H         1 UNK         0.3000 
    211 H211       -4.3147  -15.1989  -47.6091 H         1 UNK         0.0600 
    212 H212       -6.8915  -14.4985  -49.1192 H         1 UNK         0.0600 
    213 H213       -5.5214  -13.4163  -48.9130 H         1 UNK         0.0600 
    214 H214       -6.4350  -13.9398  -47.5089 H         1 UNK         0.0600 
    215 H215       -2.6360  -15.4440  -48.9272 H         1 UNK         0.3000 
    216 H216       -1.2778  -16.0223  -50.5791 H         1 UNK         0.0600 
    217 H217       -2.4515  -14.2227  -51.8578 H         1 UNK         0.0600 
    218 H218       -3.5591  -15.4219  -52.5253 H         1 UNK         0.0600 
    219 H219       -1.8448  -15.4934  -52.9066 H         1 UNK         0.0600 
    220 H220       -2.8621  -18.0509  -49.2528 H         1 UNK         0.3000 
    221 H221       -3.3772  -20.1858  -49.1943 H         1 UNK         0.0600 
    222 H222       -2.0785  -21.8121  -50.5537 H         1 UNK         0.0600 
    223 H223       -1.5877  -20.5410  -51.6559 H         1 UNK         0.0600 
    224 H224       -1.0138  -20.5306  -49.9947 H         1 UNK         0.0600 
    225 H225       -4.9911  -18.2920  -50.8974 H         1 UNK         0.3000 
    226 H226       -6.7130  -18.1508  -52.2439 H         1 UNK         0.0600 
    227 H227       -7.7636  -19.8674  -50.7600 H         1 UNK         0.0600 
    228 H228       -8.3407  -20.0135  -52.4048 H         1 UNK         0.0600 
    229 H229       -7.1511  -21.1545  -51.7962 H         1 UNK         0.0600 
    230 H230       -4.0051  -18.9527  -53.3168 H         1 UNK         0.3000 
    231 H231       -2.8968  -19.4539  -55.1258 H         1 UNK         0.0600 
    232 H232       -3.8402  -19.1076  -57.3648 H         1 UNK         0.0600 
    233 H233       -4.4338  -17.8496  -56.2946 H         1 UNK         0.0600 
    234 H234       -5.4824  -19.1934  -56.7481 H         1 UNK         0.0600 
    235 H235       -4.5688  -21.6325  -53.6096 H         1 UNK         0.3000 
    236 H236       -4.9403  -23.7915  -55.4695 H         1 UNK         0.0600 
    237 H237       -6.1530  -23.5788  -53.2777 H         1 UNK         0.0600 
    238 H238       -5.3199  -25.1197  -53.4239 H         1 UNK         0.0600 
    239 H239       -4.6364  -23.8499  -52.4191 H         1 UNK         0.0600 
    240 H240       -2.1773  -22.4700  -53.9509 H         1 UNK         0.3000 
    241 H241       -0.3725  -24.6947  -54.0922 H         1 UNK         0.0600 
    242 H242       -1.7594  -22.8172  -56.7156 H         1 UNK         0.3800 
    243 H243       -0.5530  -23.2828  -57.8869 H         1 UNK         0.3800 
    244 H244        1.3778  -22.9467  -53.7791 H         1 UNK         0.0800 
    245 H245        0.1227  -22.8682  -52.5785 H         1 UNK         0.0800 
    246 H246        1.6741  -19.3133  -54.5115 H         1 UNK         0.0800 
    247 H247        2.3821  -20.9023  -54.4448 H         1 UNK         0.0800 
@<TRIPOS>BOND
     1    1    2 1    
     2    1  127 1    
     3    1  128 1    
     4    1  129 1    
     5    2    3 2    
     6    2    4 am   BACKBONE|DICT|INTERRES
     7    4    5 1    
     8    4  130 1    
     9    5    6 1    
    10    5   65 1    
    11    5  131 1    
    12    6    7 1    
    13    6  132 1    
    14    6  133 1    
    15    7    8 1    
    16    8    9 1    
    17    8  134 1    
    18    8  135 1    
    19    9   10 ar   
    20    9   14 ar   
    21   10   11 ar   
    22   10  136 1    
    23   11   12 ar   
    24   11  126 1    
    25   12   13 ar   
    26   12  137 1    
    27   13   14 ar   
    28   13   15 1    
    29   14  138 1    
    30   15   16 1    
    31   15  139 1    
    32   15  140 1    
    33   16   17 1    
    34   17   18 1    
    35   17  141 1    
    36   17  142 1    
    37   18   19 1    
    38   18   67 1    
    39   18  143 1    
    40   19   20 am   BACKBONE|DICT|INTERRES
    41   19  144 1    
    42   20   21 2    
    43   20   22 1    
    44   22   23 1    
    45   22   24 1    
    46   22  145 1    
    47   23  146 1    
    48   23  147 1    
    49   23  148 1    
    50   24   25 am   BACKBONE|DICT|INTERRES
    51   24  149 1    
    52   25   26 2    
    53   25   27 1    
    54   27   28 1    
    55   27   29 1    
    56   27  150 1    
    57   28  151 1    
    58   28  152 1    
    59   28  153 1    
    60   29   30 am   BACKBONE|DICT|INTERRES
    61   29  154 1    
    62   30   31 2    
    63   30   32 1    
    64   32   33 1    
    65   32   34 1    
    66   32  155 1    
    67   33  156 1    
    68   33  157 1    
    69   33  158 1    
    70   34   35 am   BACKBONE|DICT|INTERRES
    71   34  159 1    
    72   35   36 2    
    73   35   37 1    
    74   37   38 1    
    75   37   39 1    
    76   37  160 1    
    77   38  161 1    
    78   38  162 1    
    79   38  163 1    
    80   39   40 am   BACKBONE|DICT|INTERRES
    81   39  164 1    
    82   40   41 2    
    83   40   42 1    
    84   42   43 1    
    85   42   44 1    
    86   42  165 1    
    87   43  166 1    
    88   43  167 1    
    89   43  168 1    
    90   44   45 am   BACKBONE|DICT|INTERRES
    91   44  169 1    
    92   45   46 2    
    93   45   47 1    
    94   47   48 1    
    95   47   49 1    
    96   47  170 1    
    97   48  171 1    
    98   48  172 1    
    99   48  173 1    
   100   49   50 am   BACKBONE|DICT|INTERRES
   101   49  174 1    
   102   50   51 2    
   103   50   52 1    
   104   52   53 1    
   105   52   54 1    
   106   52  175 1    
   107   53  176 1    
   108   53  177 1    
   109   53  178 1    
   110   54   55 am   BACKBONE|DICT|INTERRES
   111   54  179 1    
   112   55   56 2    
   113   55   57 1    
   114   57   58 1    
   115   57   59 1    
   116   57  180 1    
   117   58  181 1    
   118   58  182 1    
   119   58  183 1    
   120   59   60 am   BACKBONE|DICT|INTERRES
   121   59  184 1    
   122   60   61 2    
   123   60   62 1    
   124   62   63 1    
   125   62   64 1    
   126   62  185 1    
   127   63  186 1    
   128   63  187 1    
   129   63  188 1    
   130   64   65 am   BACKBONE|DICT|INTERRES
   131   64  189 1    
   132   65   66 2    
   133   67   68 2    
   134   67   69 am   BACKBONE|DICT|INTERRES
   135   69   70 1    
   136   69  190 1    
   137   70   71 1    
   138   70   72 1    
   139   70  191 1    
   140   71  192 1    
   141   71  193 1    
   142   71  194 1    
   143   72   73 2    
   144   72   74 am   BACKBONE|DICT|INTERRES
   145   74   75 1    
   146   74  195 1    
   147   75   76 1    
   148   75   77 1    
   149   75  196 1    
   150   76  197 1    
   151   76  198 1    
   152   76  199 1    
   153   77   78 2    
   154   77   79 am   BACKBONE|DICT|INTERRES
   155   79   80 1    
   156   79  200 1    
   157   80   81 1    
   158   80   82 1    
   159   80  201 1    
   160   81  202 1    
   161   81  203 1    
   162   81  204 1    
   163   82   83 2    
   164   82   84 am   BACKBONE|DICT|INTERRES
   165   84   85 1    
   166   84  205 1    
   167   85   86 1    
   168   85   87 1    
   169   85  206 1    
   170   86  207 1    
   171   86  208 1    
   172   86  209 1    
   173   87   88 2    
   174   87   89 am   BACKBONE|DICT|INTERRES
   175   89   90 1    
   176   89  210 1    
   177   90   91 1    
   178   90   92 1    
   179   90  211 1    
   180   91  212 1    
   181   91  213 1    
   182   91  214 1    
   183   92   93 2    
   184   92   94 am   BACKBONE|DICT|INTERRES
   185   94   95 1    
   186   94  215 1    
   187   95   96 1    
   188   95   97 1    
   189   95  216 1    
   190   96  217 1    
   191   96  218 1    
   192   96  219 1    
   193   97   98 2    
   194   97   99 am   BACKBONE|DICT|INTERRES
   195   99  100 1    
   196   99  220 1    
   197  100  101 1    
   198  100  102 1    
   199  100  221 1    
   200  101  222 1    
   201  101  223 1    
   202  101  224 1    
   203  102  103 2    
   204  102  104 am   BACKBONE|DICT|INTERRES
   205  104  105 1    
   206  104  225 1    
   207  105  106 1    
   208  105  107 1    
   209  105  226 1    
   210  106  227 1    
   211  106  228 1    
   212  106  229 1    
   213  107  108 2    
   214  107  109 am   BACKBONE|DICT|INTERRES
   215  109  110 1    
   216  109  230 1    
   217  110  111 1    
   218  110  112 1    
   219  110  231 1    
   220  111  232 1    
   221  111  233 1    
   222  111  234 1    
   223  112  113 2    
   224  112  114 am   BACKBONE|DICT|INTERRES
   225  114  115 1    
   226  114  235 1    
   227  115  116 1    
   228  115  117 1    
   229  115  236 1    
   230  116  237 1    
   231  116  238 1    
   232  116  239 1    
   233  117  118 2    
   234  117  119 am   BACKBONE|DICT|INTERRES
   235  119  120 1    
   236  119  240 1    
   237  120  121 1    
   238  120  124 1    
   239  120  241 1    
   240  121  122 am   BACKBONE|DICT|INTERRES
   241  121  123 2    
   242  122  242 1    
   243  122  243 1    
   244  124  125 1    
   245  124  244 1    
   246  124  245 1    
   247  125  126 1    
   248  126  246 1    
   249  126  247 1    
@<TRIPOS>SUBSTRUCTURE
     1 UNK         1 GROUP             0       ****    0 ROOT    
