@<TRIPOS>MOLECULE
3R540
247   249    1
SMALL
USER_CHARGES


@<TRIPOS>ATOM
      1 CA         -1.5551  -11.6595  -45.8284 C.3       0 UNK        -0.1800 
      2 C          -2.9072  -12.2491  -46.2266 C.2       0 UNK         0.5000 
      3 O          -3.8798  -11.5064  -46.3386 O.2       0 UNK        -0.5000 
      4 N          -3.0216  -13.5640  -46.4593 N.am      1 UNK        -0.5000 
      5 CA         -1.9668  -14.5766  -46.3102 C.3       1 UNK         0.1400 
      6 C6         -2.2242  -15.8346  -47.1780 C.3       23 UNK        -0.0398 
      7 S7         -2.4228  -15.4131  -48.9423 S.3       23 UNK        -0.2404 
      8 C8         -0.7700  -15.7584  -49.6247 C.3       23 UNK        -0.0205 
      9 C9         -0.7617  -17.0236  -50.4703 C.ar      23 UNK        -0.0193 
     10 C10        -1.4744  -17.0578  -51.6726 C.ar      23 UNK        -0.1150 
     11 C11        -1.4513  -18.1939  -52.4853 C.ar      23 UNK        -0.0193 
     12 C12        -0.7091  -19.3076  -52.0845 C.ar      23 UNK        -0.1150 
     13 C13         0.0164  -19.2846  -50.8886 C.ar      23 UNK        -0.0193 
     14 C14        -0.0157  -18.1409  -50.0829 C.ar      23 UNK        -0.1150 
     15 C15         0.8627  -20.4854  -50.4952 C.3       23 UNK        -0.0205 
     16 S16        -0.0672  -21.6656  -49.4740 S.3       23 UNK        -0.2404 
     17 C17         0.2314  -21.0003  -47.8061 C.3       23 UNK        -0.0398 
     18 CA         -0.5127  -21.8131  -46.7213 C.3       11 UNK         0.1400 
     19 N           0.1928  -21.8115  -45.4395 N.am      11 UNK        -0.5000 
     20 C          -0.0958  -22.6259  -44.4144 C.2       10 UNK         0.5000 
     21 O          -0.9518  -23.5085  -44.4650 O.2       10 UNK        -0.5000 
     22 CA          0.6599  -22.3762  -43.0955 C.3       10 UNK         0.1400 
     23 CB          2.0487  -23.0303  -43.1225 C.3       10 UNK        -0.1800 
     24 N           0.7900  -20.9500  -42.7925 N.am      10 UNK        -0.5000 
     25 C          -0.2471  -20.1318  -42.5631 C.2       9 UNK         0.5000 
     26 O          -1.4175  -20.5099  -42.5122 O.2       9 UNK        -0.5000 
     27 CA          0.0706  -18.6349  -42.4186 C.3       9 UNK         0.1400 
     28 CB          0.4840  -18.3026  -40.9772 C.3       9 UNK        -0.1800 
     29 N           1.1058  -18.1988  -43.3559 N.am      9 UNK        -0.5000 
     30 C           0.9395  -18.1299  -44.6847 C.2       8 UNK         0.5000 
     31 O          -0.1147  -18.4027  -45.2594 O.2       8 UNK        -0.5000 
     32 CA          2.1793  -17.7683  -45.5218 C.3       8 UNK         0.1400 
     33 CB          2.4099  -16.2546  -45.5498 C.3       8 UNK        -0.1800 
     34 N           3.3872  -18.4386  -45.0419 N.am      8 UNK        -0.5000 
     35 C           3.5862  -19.7601  -45.1367 C.2       7 UNK         0.5000 
     36 O           2.7802  -20.5322  -45.6523 O.2       7 UNK        -0.5000 
     37 CA          4.8778  -20.3284  -44.5250 C.3       7 UNK         0.1400 
     38 CB          6.0061  -20.3368  -45.5667 C.3       7 UNK        -0.1800 
     39 N           5.3339  -19.6231  -43.3277 N.am      7 UNK        -0.5000 
     40 C           4.6330  -19.4637  -42.1968 C.2       6 UNK         0.5000 
     41 O           3.4718  -19.8500  -42.0519 O.2       6 UNK        -0.5000 
     42 CA          5.3494  -18.7691  -41.0214 C.3       6 UNK         0.1400 
     43 CB          6.8719  -18.5944  -41.2261 C.3       6 UNK        -0.1800 
     44 N           4.7504  -17.4829  -40.6566 N.am      6 UNK        -0.5000 
     45 C           4.5526  -16.4150  -41.4431 C.2       5 UNK         0.5000 
     46 O           4.7248  -16.4036  -42.6653 O.2       5 UNK        -0.5000 
     47 CA          4.1735  -15.1242  -40.6913 C.3       5 UNK         0.1400 
     48 CB          5.4107  -14.5323  -39.9949 C.3       5 UNK        -0.1800 
     49 N           3.5963  -14.0898  -41.5483 N.am      5 UNK        -0.5000 
     50 C           2.3466  -14.1093  -42.0203 C.2       4 UNK         0.5000 
     51 O           1.5706  -15.0510  -41.8547 O.2       4 UNK        -0.5000 
     52 CA          1.8856  -12.8499  -42.7744 C.3       4 UNK         0.1400 
     53 CB          2.1888  -12.9370  -44.2771 C.3       4 UNK        -0.1800 
     54 N           0.4492  -12.6656  -42.5916 N.am      4 UNK        -0.5000 
     55 C          -0.1062  -11.9163  -41.6300 C.2       3 UNK         0.5000 
     56 O           0.5439  -11.2185  -40.8503 O.2       3 UNK        -0.5000 
     57 CA         -1.6443  -11.9325  -41.5131 C.3       3 UNK         0.1400 
     58 CB         -2.2427  -10.6284  -42.0640 C.3       3 UNK        -0.1800 
     59 N          -2.2666  -13.0646  -42.2009 N.am      3 UNK        -0.5000 
     60 C          -2.2802  -14.3235  -41.7420 C.2       2 UNK         0.5000 
     61 O          -1.8173  -14.6602  -40.6523 O.2       2 UNK        -0.5000 
     62 CA         -2.9261  -15.3842  -42.6542 C.3       2 UNK         0.1400 
     63 CB         -4.3806  -15.6347  -42.2270 C.3       2 UNK        -0.1800 
     64 N          -2.8985  -15.0371  -44.0799 N.am      2 UNK        -0.5000 
     65 C          -1.7869  -14.9584  -44.8281 C.2       1 UNK         0.5000 
     66 O          -0.6547  -15.1140  -44.3792 O.2       1 UNK        -0.5000 
     67 C          -1.9763  -21.3537  -46.5683 C.2       11 UNK         0.5000 
     68 O          -2.8648  -21.9783  -47.1439 O.2       11 UNK        -0.5000 
     69 N          -2.2193  -20.3105  -45.7608 N.am      12 UNK        -0.5000 
     70 CA         -3.5580  -19.8116  -45.4348 C.3       12 UNK         0.1400 
     71 CB         -3.4500  -18.5336  -44.5929 C.3       12 UNK        -0.1800 
     72 C          -4.4253  -20.8627  -44.7178 C.2       12 UNK         0.5000 
     73 O          -5.5905  -21.0334  -45.0766 O.2       12 UNK        -0.5000 
     74 N          -3.8251  -21.5953  -43.7686 N.am      13 UNK        -0.5000 
     75 CA         -4.4388  -22.7320  -43.0752 C.3       13 UNK         0.1400 
     76 CB         -3.5234  -23.1790  -41.9257 C.3       13 UNK        -0.1800 
     77 C          -4.7616  -23.9162  -44.0112 C.2       13 UNK         0.5000 
     78 O          -5.7207  -24.6456  -43.7588 O.2       13 UNK        -0.5000 
     79 N          -3.9866  -24.0570  -45.0943 N.am      14 UNK        -0.5000 
     80 CA         -4.1972  -25.0135  -46.1820 C.3       14 UNK         0.1400 
     81 CB         -2.8272  -25.4186  -46.7553 C.3       14 UNK        -0.1800 
     82 C          -5.1276  -24.4703  -47.2903 C.2       14 UNK         0.5000 
     83 O          -5.2095  -25.0868  -48.3531 O.2       14 UNK        -0.5000 
     84 N          -5.7917  -23.3274  -47.0515 N.am      15 UNK        -0.5000 
     85 CA         -6.7183  -22.6287  -47.9512 C.3       15 UNK         0.1400 
     86 CB         -7.9958  -23.4644  -48.1761 C.3       15 UNK        -0.1800 
     87 C          -6.0518  -22.1700  -49.2660 C.2       15 UNK         0.5000 
     88 O          -6.6487  -22.2830  -50.3373 O.2       15 UNK        -0.5000 
     89 N          -4.8096  -21.6806  -49.1457 N.am      16 UNK        -0.5000 
     90 CA         -3.8890  -21.2607  -50.2078 C.3       16 UNK         0.1400 
     91 CB         -4.4904  -20.1462  -51.0895 C.3       16 UNK        -0.1800 
     92 C          -3.3017  -22.4357  -51.0182 C.2       16 UNK         0.5000 
     93 O          -2.6770  -22.1963  -52.0519 O.2       16 UNK        -0.5000 
     94 N          -3.4709  -23.6714  -50.5155 N.am      17 UNK        -0.5000 
     95 CA         -2.9524  -24.9355  -51.0434 C.3       17 UNK         0.1400 
     96 CB         -1.4304  -25.0242  -50.7930 C.3       17 UNK        -0.1800 
     97 C          -3.3710  -25.1505  -52.5124 C.2       17 UNK         0.5000 
     98 O          -4.5692  -25.2318  -52.7925 O.2       17 UNK        -0.5000 
     99 N          -2.3979  -25.1948  -53.4314 N.am      18 UNK        -0.5000 
    100 CA        -2.6011  -25.1617  -54.8793 C.3       18 UNK         0.1400 
    101 CB        -1.3519  -25.7378  -55.5697 C.3       18 UNK        -0.1800 
    102 C         -2.9225  -23.7235  -55.3363 C.2       18 UNK         0.5000 
    103 O         -2.1180  -23.0943  -56.0256 O.2       18 UNK        -0.5000 
    104 N         -4.0917  -23.2231  -54.9131 N.am      19 UNK        -0.5000 
    105 CA        -4.5449  -21.8336  -55.0368 C.3       19 UNK         0.1400 
    106 CB        -5.9333  -21.7098  -54.3927 C.3       19 UNK        -0.1800 
    107 C         -4.5696  -21.2855  -56.4760 C.2       19 UNK         0.5000 
    108 O         -4.4035  -20.0807  -56.6694 O.2       19 UNK        -0.5000 
    109 N         -4.7243  -22.1846  -57.4585 N.am      20 UNK        -0.5000 
    110 CA        -4.6544  -21.9105  -58.8948 C.3       20 UNK         0.1400 
    111 CB        -4.9521  -23.2068  -59.6629 C.3       20 UNK        -0.1800 
    112 C         -3.3118  -21.3075  -59.3576 C.2       20 UNK         0.5000 
    113 O         -3.2926  -20.5982  -60.3644 O.2       20 UNK        -0.5000 
    114 N         -2.2264  -21.5451  -58.6030 N.am      21 UNK        -0.5000 
    115 CA        -0.9059  -20.9477  -58.8264 C.3       21 UNK         0.1400 
    116 CB         0.1083  -21.5839  -57.8641 C.3       21 UNK        -0.1800 
    117 C         -0.8914  -19.4113  -58.6822 C.2       21 UNK         0.5000 
    118 O         -0.0412  -18.7587  -59.2893 O.2       21 UNK        -0.5000 
    119 N         -1.8412  -18.8644  -57.9124 N.am      22 UNK        -0.5000 
    120 CA        -2.0960  -17.4220  -57.7853 C.3       22 UNK         0.1400 
    121 C         -3.0645  -16.8615  -58.8711 C.2       22 UNK         0.5000 
    122 N         -3.5609  -17.6530  -59.8158 N.am      22 UNK        -0.7600 
    123 O         -3.3615  -15.6698  -58.8713 O.2       22 UNK        -0.5000 
    124 C124       -2.5667  -17.0510  -56.3554 C.3       23 UNK        -0.0398 
    125 S125       -1.2761  -17.3552  -55.1007 S.3       23 UNK        -0.2404 
    126 C126       -2.2202  -18.2022  -53.7975 C.3       23 UNK        -0.0205 
    127 H127       -1.1649  -12.1268  -44.9261 H         1 UNK         0.0600 
    128 H128       -1.6467  -10.5907  -45.6346 H         1 UNK         0.0600 
    129 H129       -0.8289  -11.7876  -46.6310 H         1 UNK         0.0600 
    130 H130       -3.9138  -13.9160  -46.7754 H         1 UNK         0.3000 
    131 H131       -1.0206  -14.1502  -46.6485 H         1 UNK         0.0600 
    132 H132       -3.1383  -16.3384  -46.8609 H         1 UNK         0.0800 
    133 H133       -1.4197  -16.5641  -47.0626 H         1 UNK         0.0800 
    134 H134       -0.0282  -15.8117  -48.8265 H         1 UNK         0.0800 
    135 H135       -0.4733  -14.9177  -50.2535 H         1 UNK         0.0800 
    136 H136       -2.0416  -16.1910  -51.9821 H         1 UNK         0.1150 
    137 H137       -0.6879  -20.1905  -52.7086 H         1 UNK         0.1150 
    138 H138        0.5537  -18.1140  -49.1649 H         1 UNK         0.1150 
    139 H139        1.2045  -21.0016  -51.3936 H         1 UNK         0.0800 
    140 H140        1.7648  -20.1634  -49.9728 H         1 UNK         0.0800 
    141 H141       -0.0236  -19.9404  -47.7630 H         1 UNK         0.0800 
    142 H142        1.3075  -21.0600  -47.6481 H         1 UNK         0.0800 
    143 H143       -0.5385  -22.8570  -47.0420 H         1 UNK         0.0600 
    144 H144        0.9602  -21.1535  -45.3430 H         1 UNK         0.3000 
    145 H145        0.0839  -22.8352  -42.2893 H         1 UNK         0.0600 
    146 H146        2.5841  -22.8615  -42.1879 H         1 UNK         0.0600 
    147 H147        1.9664  -24.1088  -43.2620 H         1 UNK         0.0600 
    148 H148        2.6618  -22.6426  -43.9352 H         1 UNK         0.0600 
    149 H149        1.7282  -20.5632  -42.7642 H         1 UNK         0.3000 
    150 H150       -0.8413  -18.0809  -42.6453 H         1 UNK         0.0600 
    151 H151       -0.2665  -18.6515  -40.2668 H         1 UNK         0.0600 
    152 H152        0.5832  -17.2277  -40.8337 H         1 UNK         0.0600 
    153 H153        1.4324  -18.7671  -40.7072 H         1 UNK         0.0600 
    154 H154        2.0154  -17.9963  -42.9669 H         1 UNK         0.3000 
    155 H155        1.9933  -18.0970  -46.5467 H         1 UNK         0.0600 
    156 H156        2.5990  -15.8648  -44.5495 H         1 UNK         0.0600 
    157 H157        1.5362  -15.7401  -45.9508 H         1 UNK         0.0600 
    158 H158        3.2601  -15.9930  -46.1797 H         1 UNK         0.0600 
    159 H159        4.0731  -17.8708  -44.5613 H         1 UNK         0.3000 
    160 H160        4.6761  -21.3613  -44.2361 H         1 UNK         0.0600 
    161 H161        6.2827  -19.3258  -45.8685 H         1 UNK         0.0600 
    162 H162        5.7041  -20.8768  -46.4653 H         1 UNK         0.0600 
    163 H163        6.8985  -20.8285  -45.1791 H         1 UNK         0.0600 
    164 H164        6.2720  -19.2514  -43.3579 H         1 UNK         0.3000 
    165 H165        5.2108  -19.4265  -40.1618 H         1 UNK         0.0600 
    166 H166        7.1029  -17.9121  -42.0451 H         1 UNK         0.0600 
    167 H167        7.3391  -18.1930  -40.3267 H         1 UNK         0.0600 
    168 H168        7.3567  -19.5491  -41.4351 H         1 UNK         0.0600 
    169 H169        4.5392  -17.3844  -39.6736 H         1 UNK         0.3000 
    170 H170        3.4376  -15.3818  -39.9261 H         1 UNK         0.0600 
    171 H171        6.1815  -14.2537  -40.7148 H         1 UNK         0.0600 
    172 H172        5.1525  -13.6434  -39.4188 H         1 UNK         0.0600 
    173 H173        5.8556  -15.2459  -39.3002 H         1 UNK         0.0600 
    174 H174        4.1922  -13.3040  -41.7630 H         1 UNK         0.3000 
    175 H175        2.4275  -11.9910  -42.3725 H         1 UNK         0.0600 
    176 H176        3.2311  -13.2026  -44.4582 H         1 UNK         0.0600 
    177 H177        2.0060  -11.9802  -44.7663 H         1 UNK         0.0600 
    178 H178        1.5645  -13.6796  -44.7703 H         1 UNK         0.0600 
    179 H179       -0.1375  -13.3102  -43.1054 H         1 UNK         0.3000 
    180 H180       -1.8898  -11.9945  -40.4508 H         1 UNK         0.0600 
    181 H181       -3.3252  -10.6059  -41.9373 H         1 UNK         0.0600 
    182 H182       -2.0254  -10.4989  -43.1241 H         1 UNK         0.0600 
    183 H183       -1.8383   -9.7616  -41.5396 H         1 UNK         0.0600 
    184 H184       -2.6990  -12.8761  -43.0922 H         1 UNK         0.3000 
    185 H185       -2.3662  -16.3113  -42.5223 H         1 UNK         0.0600 
    186 H186       -4.8352  -16.4368  -42.8068 H         1 UNK         0.0600 
    187 H187       -4.4342  -15.9268  -41.1773 H         1 UNK         0.0600 
    188 H188       -4.9951  -14.7420  -42.3503 H         1 UNK         0.0600 
    189 H189       -3.7904  -14.8527  -44.5155 H         1 UNK         0.3000 
    190 H190       -1.4343  -19.8017  -45.3637 H         1 UNK         0.3000 
    191 H191       -4.0476  -19.5568  -46.3770 H         1 UNK         0.0600 
    192 H192       -4.4240  -18.0533  -44.5008 H         1 UNK         0.0600 
    193 H193       -2.7716  -17.8160  -45.0490 H         1 UNK         0.0600 
    194 H194       -3.0871  -18.7359  -43.5857 H         1 UNK         0.0600 
    195 H195       -2.8765  -21.3528  -43.4948 H         1 UNK         0.3000 
    196 H196       -5.3815  -22.3883  -42.6448 H         1 UNK         0.0600 
    197 H197       -2.5558  -23.5226  -42.2916 H         1 UNK         0.0600 
    198 H198       -3.3445  -22.3636  -41.2246 H         1 UNK         0.0600 
    199 H199       -3.9727  -23.9991  -41.3643 H         1 UNK         0.0600 
    200 H200       -3.2085  -23.4203  -45.2115 H         1 UNK         0.3000 
    201 H201       -4.6695  -25.9120  -45.7803 H         1 UNK         0.0600 
    202 H202       -2.9286  -26.2164  -47.4919 H         1 UNK         0.0600 
    203 H203       -2.3315  -24.5825  -47.2481 H         1 UNK         0.0600 
    204 H204       -2.1638  -25.7850  -45.9717 H         1 UNK         0.0600 
    205 H205       -5.6229  -22.8577  -46.1699 H         1 UNK         0.3000 
    206 H206       -7.0138  -21.7162  -47.4316 H         1 UNK         0.0600 
    207 H207       -8.4487  -23.7543  -47.2280 H         1 UNK         0.0600 
    208 H208       -8.7425  -22.8947  -48.7304 H         1 UNK         0.0600 
    209 H209       -7.7924  -24.3734  -48.7429 H         1 UNK         0.0600 
    210 H210       -4.3739  -21.7202  -48.2268 H         1 UNK         0.3000 
    211 H211       -3.0355  -20.8200  -49.6912 H         1 UNK         0.0600 
    212 H212       -3.7521  -19.7678  -51.7950 H         1 UNK         0.0600 
    213 H213       -4.8193  -19.3015  -50.4845 H         1 UNK         0.0600 
    214 H214       -5.3411  -20.4940  -51.6728 H         1 UNK         0.0600 
    215 H215       -4.0512  -23.7655  -49.6916 H         1 UNK         0.3000 
    216 H216       -3.4298  -25.7309  -50.4695 H         1 UNK         0.0600 
    217 H217       -1.0304  -25.9849  -51.1193 H         1 UNK         0.0600 
    218 H218       -1.2084  -24.9309  -49.7296 H         1 UNK         0.0600 
    219 H219       -0.8807  -24.2364  -51.3095 H         1 UNK         0.0600 
    220 H220       -1.4475  -25.0676  -53.1158 H         1 UNK         0.3000 
    221 H221       -3.4515  -25.7948  -55.1409 H         1 UNK         0.0600 
    222 H222       -1.1731  -26.7687  -55.2637 H         1 UNK         0.0600 
    223 H223       -0.4573  -25.1589  -55.3365 H         1 UNK         0.0600 
    224 H224       -1.4704  -25.7370  -56.6540 H         1 UNK         0.0600 
    225 H225       -4.6462  -23.8183  -54.3076 H         1 UNK         0.3000 
    226 H226       -3.8468  -21.2187  -54.4661 H         1 UNK         0.0600 
    227 H227       -5.9237  -22.0633  -53.3614 H         1 UNK         0.0600 
    228 H228       -6.2667  -20.6713  -54.3787 H         1 UNK         0.0600 
    229 H229       -6.6805  -22.2896  -54.9358 H         1 UNK         0.0600 
    230 H230       -4.8416  -23.1506  -57.1913 H         1 UNK         0.3000 
    231 H231       -5.4347  -21.1836  -59.1289 H         1 UNK         0.0600 
    232 H232       -4.2169  -23.9819  -59.4427 H         1 UNK         0.0600 
    233 H233       -4.9362  -23.0355  -60.7402 H         1 UNK         0.0600 
    234 H234       -5.9387  -23.5971  -59.4125 H         1 UNK         0.0600 
    235 H235       -2.3199  -22.1225  -57.7723 H         1 UNK         0.3000 
    236 H236       -0.6032  -21.1850  -59.8482 H         1 UNK         0.0600 
    237 H237       -0.1340  -21.3627  -56.8237 H         1 UNK         0.0600 
    238 H238        0.1372  -22.6677  -57.9783 H         1 UNK         0.0600 
    239 H239        1.1149  -21.2089  -58.0530 H         1 UNK         0.0600 
    240 H240       -2.5243  -19.4683  -57.4705 H         1 UNK         0.3000 
    241 H241       -1.1564  -16.8926  -57.9541 H         1 UNK         0.0600 
    242 H242       -4.1776  -17.2592  -60.5087 H         1 UNK         0.3800 
    243 H243       -3.3224  -18.6365  -59.8668 H         1 UNK         0.3800 
    244 H244       -3.4756  -17.5987  -56.1028 H         1 UNK         0.0800 
    245 H245       -2.8238  -15.9922  -56.2929 H         1 UNK         0.0800 
    246 H246       -2.4367  -19.2239  -54.1131 H         1 UNK         0.0800 
    247 H247       -3.1825  -17.7078  -53.6554 H         1 UNK         0.0800 
@<TRIPOS>BOND
     1    1    2 1    
     2    1  127 1    
     3    1  128 1    
     4    1  129 1    
     5    2    3 2    
     6    2    4 am   BACKBONE|DICT|INTERRES
     7    4    5 1    
     8    4  130 1    
     9    5    6 1    
    10    5   65 1    
    11    5  131 1    
    12    6    7 1    
    13    6  132 1    
    14    6  133 1    
    15    7    8 1    
    16    8    9 1    
    17    8  134 1    
    18    8  135 1    
    19    9   10 ar   
    20    9   14 ar   
    21   10   11 ar   
    22   10  136 1    
    23   11   12 ar   
    24   11  126 1    
    25   12   13 ar   
    26   12  137 1    
    27   13   14 ar   
    28   13   15 1    
    29   14  138 1    
    30   15   16 1    
    31   15  139 1    
    32   15  140 1    
    33   16   17 1    
    34   17   18 1    
    35   17  141 1    
    36   17  142 1    
    37   18   19 1    
    38   18   67 1    
    39   18  143 1    
    40   19   20 am   BACKBONE|DICT|INTERRES
    41   19  144 1    
    42   20   21 2    
    43   20   22 1    
    44   22   23 1    
    45   22   24 1    
    46   22  145 1    
    47   23  146 1    
    48   23  147 1    
    49   23  148 1    
    50   24   25 am   BACKBONE|DICT|INTERRES
    51   24  149 1    
    52   25   26 2    
    53   25   27 1    
    54   27   28 1    
    55   27   29 1    
    56   27  150 1    
    57   28  151 1    
    58   28  152 1    
    59   28  153 1    
    60   29   30 am   BACKBONE|DICT|INTERRES
    61   29  154 1    
    62   30   31 2    
    63   30   32 1    
    64   32   33 1    
    65   32   34 1    
    66   32  155 1    
    67   33  156 1    
    68   33  157 1    
    69   33  158 1    
    70   34   35 am   BACKBONE|DICT|INTERRES
    71   34  159 1    
    72   35   36 2    
    73   35   37 1    
    74   37   38 1    
    75   37   39 1    
    76   37  160 1    
    77   38  161 1    
    78   38  162 1    
    79   38  163 1    
    80   39   40 am   BACKBONE|DICT|INTERRES
    81   39  164 1    
    82   40   41 2    
    83   40   42 1    
    84   42   43 1    
    85   42   44 1    
    86   42  165 1    
    87   43  166 1    
    88   43  167 1    
    89   43  168 1    
    90   44   45 am   BACKBONE|DICT|INTERRES
    91   44  169 1    
    92   45   46 2    
    93   45   47 1    
    94   47   48 1    
    95   47   49 1    
    96   47  170 1    
    97   48  171 1    
    98   48  172 1    
    99   48  173 1    
   100   49   50 am   BACKBONE|DICT|INTERRES
   101   49  174 1    
   102   50   51 2    
   103   50   52 1    
   104   52   53 1    
   105   52   54 1    
   106   52  175 1    
   107   53  176 1    
   108   53  177 1    
   109   53  178 1    
   110   54   55 am   BACKBONE|DICT|INTERRES
   111   54  179 1    
   112   55   56 2    
   113   55   57 1    
   114   57   58 1    
   115   57   59 1    
   116   57  180 1    
   117   58  181 1    
   118   58  182 1    
   119   58  183 1    
   120   59   60 am   BACKBONE|DICT|INTERRES
   121   59  184 1    
   122   60   61 2    
   123   60   62 1    
   124   62   63 1    
   125   62   64 1    
   126   62  185 1    
   127   63  186 1    
   128   63  187 1    
   129   63  188 1    
   130   64   65 am   BACKBONE|DICT|INTERRES
   131   64  189 1    
   132   65   66 2    
   133   67   68 2    
   134   67   69 am   BACKBONE|DICT|INTERRES
   135   69   70 1    
   136   69  190 1    
   137   70   71 1    
   138   70   72 1    
   139   70  191 1    
   140   71  192 1    
   141   71  193 1    
   142   71  194 1    
   143   72   73 2    
   144   72   74 am   BACKBONE|DICT|INTERRES
   145   74   75 1    
   146   74  195 1    
   147   75   76 1    
   148   75   77 1    
   149   75  196 1    
   150   76  197 1    
   151   76  198 1    
   152   76  199 1    
   153   77   78 2    
   154   77   79 am   BACKBONE|DICT|INTERRES
   155   79   80 1    
   156   79  200 1    
   157   80   81 1    
   158   80   82 1    
   159   80  201 1    
   160   81  202 1    
   161   81  203 1    
   162   81  204 1    
   163   82   83 2    
   164   82   84 am   BACKBONE|DICT|INTERRES
   165   84   85 1    
   166   84  205 1    
   167   85   86 1    
   168   85   87 1    
   169   85  206 1    
   170   86  207 1    
   171   86  208 1    
   172   86  209 1    
   173   87   88 2    
   174   87   89 am   BACKBONE|DICT|INTERRES
   175   89   90 1    
   176   89  210 1    
   177   90   91 1    
   178   90   92 1    
   179   90  211 1    
   180   91  212 1    
   181   91  213 1    
   182   91  214 1    
   183   92   93 2    
   184   92   94 am   BACKBONE|DICT|INTERRES
   185   94   95 1    
   186   94  215 1    
   187   95   96 1    
   188   95   97 1    
   189   95  216 1    
   190   96  217 1    
   191   96  218 1    
   192   96  219 1    
   193   97   98 2    
   194   97   99 am   BACKBONE|DICT|INTERRES
   195   99  100 1    
   196   99  220 1    
   197  100  101 1    
   198  100  102 1    
   199  100  221 1    
   200  101  222 1    
   201  101  223 1    
   202  101  224 1    
   203  102  103 2    
   204  102  104 am   BACKBONE|DICT|INTERRES
   205  104  105 1    
   206  104  225 1    
   207  105  106 1    
   208  105  107 1    
   209  105  226 1    
   210  106  227 1    
   211  106  228 1    
   212  106  229 1    
   213  107  108 2    
   214  107  109 am   BACKBONE|DICT|INTERRES
   215  109  110 1    
   216  109  230 1    
   217  110  111 1    
   218  110  112 1    
   219  110  231 1    
   220  111  232 1    
   221  111  233 1    
   222  111  234 1    
   223  112  113 2    
   224  112  114 am   BACKBONE|DICT|INTERRES
   225  114  115 1    
   226  114  235 1    
   227  115  116 1    
   228  115  117 1    
   229  115  236 1    
   230  116  237 1    
   231  116  238 1    
   232  116  239 1    
   233  117  118 2    
   234  117  119 am   BACKBONE|DICT|INTERRES
   235  119  120 1    
   236  119  240 1    
   237  120  121 1    
   238  120  124 1    
   239  120  241 1    
   240  121  122 am   BACKBONE|DICT|INTERRES
   241  121  123 2    
   242  122  242 1    
   243  122  243 1    
   244  124  125 1    
   245  124  244 1    
   246  124  245 1    
   247  125  126 1    
   248  126  246 1    
   249  126  247 1    
@<TRIPOS>SUBSTRUCTURE
     1 UNK         1 GROUP             0       ****    0 ROOT    
