@<TRIPOS>MOLECULE
3R540
247   249    1
SMALL
USER_CHARGES


@<TRIPOS>ATOM
      1 CA          5.5842  -10.0493  -49.2443 C.3       0 UNK        -0.1800 
      2 C           4.4727  -11.0628  -49.4779 C.2       0 UNK         0.5000 
      3 O           3.6850  -10.9004  -50.4097 O.2       0 UNK        -0.5000 
      4 N           4.4108  -12.1038  -48.6357 N.am      1 UNK        -0.5000 
      5 CA          3.4144  -13.1837  -48.6646 C.3       1 UNK         0.1400 
      6 C6          3.5041  -14.0541  -49.9505 C.3       23 UNK        -0.0398 
      7 S7          2.9406  -15.7705  -49.6761 S.3       23 UNK        -0.2404 
      8 C8          1.5168  -15.8735  -50.8071 C.3       23 UNK        -0.0205 
      9 C9          0.4622  -16.8201  -50.2619 C.ar      23 UNK        -0.0193 
     10 C10        -0.5260  -16.3338  -49.4027 C.ar      23 UNK        -0.1150 
     11 C11        -1.4888  -17.1919  -48.8688 C.ar      23 UNK        -0.0193 
     12 C12        -1.4563  -18.5499  -49.2006 C.ar      23 UNK        -0.1150 
     13 C13        -0.4824  -19.0471  -50.0729 C.ar      23 UNK        -0.0193 
     14 C14         0.4732  -18.1753  -50.6040 C.ar      23 UNK        -0.1150 
     15 C15        -0.4683  -20.5254  -50.4410 C.3       23 UNK        -0.0205 
     16 S16         1.0115  -21.4040  -49.8330 S.3       23 UNK        -0.2404 
     17 C17         0.9666  -21.0720  -48.0384 C.3       23 UNK        -0.0398 
     18 CA          0.3472  -22.2084  -47.1917 C.3       11 UNK         0.1400 
     19 N           0.6615  -22.0472  -45.7705 N.am      11 UNK        -0.5000 
     20 C           0.3666  -22.9292  -44.8056 C.2       10 UNK         0.5000 
     21 O          -0.1516  -24.0254  -45.0158 O.2       10 UNK        -0.5000 
     22 CA          0.6502  -22.4911  -43.3573 C.3       10 UNK         0.1400 
     23 CB          2.1251  -22.7205  -42.9964 C.3       10 UNK        -0.1800 
     24 N           0.2903  -21.0926  -43.1126 N.am      10 UNK        -0.5000 
     25 C          -0.9584  -20.6074  -43.1828 C.2       9 UNK         0.5000 
     26 O          -1.9474  -21.3056  -43.4049 O.2       9 UNK        -0.5000 
     27 CA         -1.1265  -19.0827  -43.0384 C.3       9 UNK         0.1400 
     28 CB         -1.0713  -18.6551  -41.5647 C.3       9 UNK        -0.1800 
     29 N          -0.1295  -18.3364  -43.8057 N.am      9 UNK        -0.5000 
     30 C          -0.0191  -18.3730  -45.1411 C.2       8 UNK         0.5000 
     31 O          -0.7926  -18.9926  -45.8704 O.2       8 UNK        -0.5000 
     32 CA          1.1920  -17.6495  -45.7567 C.3       8 UNK         0.1400 
     33 CB          0.9208  -16.1499  -45.9181 C.3       8 UNK        -0.1800 
     34 N           2.4012  -17.8352  -44.9555 N.am      8 UNK        -0.5000 
     35 C           3.0629  -18.9945  -44.8438 C.2       7 UNK         0.5000 
     36 O           2.7331  -20.0276  -45.4237 O.2       7 UNK        -0.5000 
     37 CA          4.2713  -19.0109  -43.8909 C.3       7 UNK         0.1400 
     38 CB          5.5162  -18.4368  -44.5836 C.3       7 UNK        -0.1800 
     39 N           4.0180  -18.2716  -42.6538 N.am      7 UNK        -0.5000 
     40 C           3.1235  -18.6363  -41.7243 C.2       6 UNK         0.5000 
     41 O           2.4407  -19.6570  -41.7959 O.2       6 UNK        -0.5000 
     42 CA          2.9255  -17.6733  -40.5393 C.3       6 UNK         0.1400 
     43 CB          3.9363  -17.9753  -39.4231 C.3       6 UNK        -0.1800 
     44 N           3.0240  -16.2603  -40.9172 N.am      6 UNK        -0.5000 
     45 C           2.2016  -15.6463  -41.7777 C.2       5 UNK         0.5000 
     46 O           1.2932  -16.2201  -42.3827 O.2       5 UNK        -0.5000 
     47 CA          2.4830  -14.1593  -42.0496 C.3       5 UNK         0.1400 
     48 CB          3.3652  -14.0073  -43.2989 C.3       5 UNK        -0.1800 
     49 N           1.2423  -13.4084  -42.2365 N.am      5 UNK        -0.5000 
     50 C           0.3974  -13.0904  -41.2433 C.2       4 UNK         0.5000 
     51 O           0.6167  -13.3534  -40.0596 O.2       4 UNK        -0.5000 
     52 CA         -0.8990  -12.3356  -41.6085 C.3       4 UNK         0.1400 
     53 CB         -0.7534  -10.8384  -41.2944 C.3       4 UNK        -0.1800 
     54 N          -1.2858  -12.4827  -43.0103 N.am      4 UNK        -0.5000 
     55 C          -1.7768  -13.6012  -43.5590 C.2       3 UNK         0.5000 
     56 O          -2.0688  -14.6058  -42.9104 O.2       3 UNK        -0.5000 
     57 CA         -1.9647  -13.6095  -45.0915 C.3       3 UNK         0.1400 
     58 CB         -3.4554  -13.5391  -45.4568 C.3       3 UNK        -0.1800 
     59 N          -1.2465  -12.5574  -45.8258 N.am      3 UNK        -0.5000 
     60 C           0.0830  -12.3962  -45.8464 C.2       2 UNK         0.5000 
     61 O           0.8592  -13.0413  -45.1407 O.2       2 UNK        -0.5000 
     62 CA          0.6440  -11.3032  -46.7710 C.3       2 UNK         0.1400 
     63 CB          0.8940  -10.0096  -45.9812 C.3       2 UNK        -0.1800 
     64 N           1.9028  -11.7517  -47.3640 N.am      2 UNK        -0.5000 
     65 C           1.9901  -12.6706  -48.3360 C.2       1 UNK         0.5000 
     66 O           1.0080  -13.0964  -48.9450 O.2       1 UNK        -0.5000 
     67 C          -1.1721  -22.3453  -47.4243 C.2       11 UNK         0.5000 
     68 O          -1.5909  -23.2631  -48.1279 O.2       11 UNK        -0.5000 
     69 N          -1.9734  -21.4708  -46.7982 N.am      12 UNK        -0.5000 
     70 CA         -3.4368  -21.5192  -46.8408 C.3       12 UNK         0.1400 
     71 CB         -4.0187  -20.2571  -46.1902 C.3       12 UNK        -0.1800 
     72 C          -4.0244  -22.7822  -46.1849 C.2       12 UNK         0.5000 
     73 O          -4.9855  -23.3414  -46.7132 O.2       12 UNK        -0.5000 
     74 N          -3.4333  -23.2145  -45.0619 N.am      13 UNK        -0.5000 
     75 CA         -3.8098  -24.4326  -44.3431 C.3       13 UNK         0.1400 
     76 CB         -3.1080  -24.4660  -42.9770 C.3       13 UNK        -0.1800 
     77 C          -3.5133  -25.7132  -45.1457 C.2       13 UNK         0.5000 
     78 O          -4.3452  -26.6216  -45.1633 O.2       13 UNK        -0.5000 
     79 N          -2.3476  -25.7571  -45.8062 N.am      14 UNK        -0.5000 
     80 CA         -1.9484  -26.8370  -46.7101 C.3       14 UNK         0.1400 
     81 CB         -0.4490  -26.7126  -47.0217 C.3       14 UNK        -0.1800 
     82 C          -2.7722  -26.8452  -48.0110 C.2       14 UNK         0.5000 
     83 O          -3.1646  -27.9159  -48.4776 O.2       14 UNK        -0.5000 
     84 N          -3.0136  -25.6472  -48.5610 N.am      15 UNK        -0.5000 
     85 CA         -3.7521  -25.3017  -49.7783 C.3       15 UNK         0.1400 
     86 CB         -5.2229  -25.7515  -49.7020 C.3       15 UNK        -0.1800 
     87 C          -3.0807  -25.7800  -51.0775 C.2       15 UNK         0.5000 
     88 O          -2.8545  -24.9642  -51.9723 O.2       15 UNK        -0.5000 
     89 N          -2.7780  -27.0826  -51.1627 N.am      16 UNK        -0.5000 
     90 CA         -2.2347  -27.7966  -52.3204 C.3       16 UNK         0.1400 
     91 CB         -0.7639  -27.3891  -52.5649 C.3       16 UNK        -0.1800 
     92 C          -3.1561  -27.6330  -53.5485 C.2       16 UNK         0.5000 
     93 O          -4.2877  -28.1197  -53.5174 O.2       16 UNK        -0.5000 
     94 N          -2.6798  -26.9332  -54.5862 N.am      17 UNK        -0.5000 
     95 CA         -3.4489  -26.5829  -55.7823 C.3       17 UNK         0.1400 
     96 CB         -2.4667  -26.2003  -56.9014 C.3       17 UNK        -0.1800 
     97 C          -4.4639  -25.4428  -55.5513 C.2       17 UNK         0.5000 
     98 O          -5.3525  -25.2601  -56.3837 O.2       17 UNK        -0.5000 
     99 N          -4.2995  -24.6833  -54.4549 N.am      18 UNK        -0.5000 
    100 CA        -5.0908  -23.5173  -54.0378 C.3       18 UNK         0.1400 
    101 CB        -6.5441  -23.9218  -53.7169 C.3       18 UNK        -0.1800 
    102 C         -5.0044  -22.3202  -55.0104 C.2       18 UNK         0.5000 
    103 O         -5.8711  -21.4447  -54.9856 O.2       18 UNK        -0.5000 
    104 N         -3.9423  -22.2821  -55.8289 N.am      19 UNK        -0.5000 
    105 CA        -3.7102  -21.3052  -56.8978 C.3       19 UNK         0.1400 
    106 CB        -2.4828  -21.7466  -57.7099 C.3       19 UNK        -0.1800 
    107 C         -3.5451  -19.8511  -56.4134 C.2       19 UNK         0.5000 
    108 O         -3.7863  -18.9248  -57.1883 O.2       19 UNK        -0.5000 
    109 N         -3.1580  -19.6748  -55.1424 N.am      20 UNK        -0.5000 
    110 CA        -3.0685  -18.3783  -54.4689 C.3       20 UNK         0.1400 
    111 CB        -2.2782  -18.5512  -53.1612 C.3       20 UNK        -0.1800 
    112 C         -4.4441  -17.7419  -54.1810 C.2       20 UNK         0.5000 
    113 O         -4.5091  -16.5258  -53.9999 O.2       20 UNK        -0.5000 
    114 N         -5.5044  -18.5683  -54.1242 N.am      21 UNK        -0.5000 
    115 CA        -6.8966  -18.2122  -53.8139 C.3       21 UNK         0.1400 
    116 CB        -7.5074  -17.3734  -54.9555 C.3       21 UNK        -0.1800 
    117 C         -7.0628  -17.5527  -52.4251 C.2       21 UNK         0.5000 
    118 O         -7.9235  -16.6895  -52.2439 O.2       21 UNK        -0.5000 
    119 N         -6.2143  -17.9652  -51.4747 N.am      22 UNK        -0.5000 
    120 CA        -6.0917  -17.3801  -50.1297 C.3       22 UNK         0.1400 
    121 C         -7.1475  -17.8798  -49.0980 C.2       22 UNK         0.5000 
    122 N         -7.9851  -18.8569  -49.4239 N.am      22 UNK        -0.7600 
    123 O         -7.2169  -17.3673  -47.9849 O.2       22 UNK        -0.5000 
    124 C124       -4.6377  -17.5312  -49.6013 C.3       23 UNK        -0.0398 
    125 S125       -4.0147  -16.0211  -48.7912 S.3       23 UNK        -0.2404 
    126 C126       -2.5467  -16.6496  -47.9183 C.3       23 UNK        -0.0205 
    127 H127        6.2081  -10.3194  -48.3920 H         1 UNK         0.0600 
    128 H128        5.1590   -9.0636  -49.0553 H         1 UNK         0.0600 
    129 H129        6.2227   -9.9832  -50.1252 H         1 UNK         0.0600 
    130 H130        5.0970  -12.1719  -47.8965 H         1 UNK         0.3000 
    131 H131        3.6856  -13.8220  -47.8219 H         1 UNK         0.0600 
    132 H132        4.5433  -14.1227  -50.2745 H         1 UNK         0.0800 
    133 H133        2.9716  -13.5895  -50.7817 H         1 UNK         0.0800 
    134 H134        1.8576  -16.2035  -51.7894 H         1 UNK         0.0800 
    135 H135        1.0707  -14.8888  -50.9519 H         1 UNK         0.0800 
    136 H136       -0.5376  -15.2852  -49.1392 H         1 UNK         0.1150 
    137 H137       -2.1899  -19.2202  -48.7767 H         1 UNK         0.1150 
    138 H138        1.2342  -18.5564  -51.2703 H         1 UNK         0.1150 
    139 H139       -1.3621  -21.0266  -50.0672 H         1 UNK         0.0800 
    140 H140       -0.5047  -20.6188  -51.5269 H         1 UNK         0.0800 
    141 H141        0.4808  -20.1199  -47.8345 H         1 UNK         0.0800 
    142 H142        2.0064  -20.9328  -47.7427 H         1 UNK         0.0800 
    143 H143        0.8082  -23.1476  -47.5049 H         1 UNK         0.0600 
    144 H144        1.1479  -21.1941  -45.5128 H         1 UNK         0.3000 
    145 H145        0.0408  -23.1117  -42.6976 H         1 UNK         0.0600 
    146 H146        2.3130  -22.4930  -41.9470 H         1 UNK         0.0600 
    147 H147        2.7894  -22.0988  -43.5969 H         1 UNK         0.0600 
    148 H148        2.4101  -23.7606  -43.1599 H         1 UNK         0.0600 
    149 H149        1.0498  -20.4646  -42.8648 H         1 UNK         0.3000 
    150 H150       -2.1107  -18.8182  -43.4305 H         1 UNK         0.0600 
    151 H151       -1.8433  -19.1604  -40.9834 H         1 UNK         0.0600 
    152 H152       -1.2332  -17.5817  -41.4607 H         1 UNK         0.0600 
    153 H153       -0.1097  -18.8933  -41.1108 H         1 UNK         0.0600 
    154 H154        0.5097  -17.7479  -43.2784 H         1 UNK         0.3000 
    155 H155        1.3685  -18.0684  -46.7497 H         1 UNK         0.0600 
    156 H156        1.7753  -15.6347  -46.3575 H         1 UNK         0.0600 
    157 H157        0.0720  -15.9762  -46.5759 H         1 UNK         0.0600 
    158 H158        0.6973  -15.6782  -44.9612 H         1 UNK         0.0600 
    159 H159        2.7004  -17.0493  -44.3986 H         1 UNK         0.3000 
    160 H160        4.4751  -20.0515  -43.6292 H         1 UNK         0.0600 
    161 H161        6.3951  -18.5163  -43.9435 H         1 UNK         0.0600 
    162 H162        5.3853  -17.3862  -44.8461 H         1 UNK         0.0600 
    163 H163        5.7354  -18.9803  -45.5037 H         1 UNK         0.0600 
    164 H164        4.5381  -17.4183  -42.5136 H         1 UNK         0.3000 
    165 H165        1.9220  -17.8411  -40.1433 H         1 UNK         0.0600 
    166 H166        3.7478  -17.3602  -38.5430 H         1 UNK         0.0600 
    167 H167        3.8704  -19.0179  -39.1090 H         1 UNK         0.0600 
    168 H168        4.9619  -17.7942  -39.7470 H         1 UNK         0.0600 
    169 H169        3.7538  -15.7254  -40.4686 H         1 UNK         0.3000 
    170 H170        3.0169  -13.7345  -41.1969 H         1 UNK         0.0600 
    171 H171        2.9050  -14.4621  -44.1766 H         1 UNK         0.0600 
    172 H172        3.5503  -12.9573  -43.5266 H         1 UNK         0.0600 
    173 H173        4.3348  -14.4849  -43.1540 H         1 UNK         0.0600 
    174 H174        0.9809  -13.2113  -43.1981 H         1 UNK         0.3000 
    175 H175       -1.7003  -12.7395  -40.9861 H         1 UNK         0.0600 
    176 H176        0.0282  -10.3751  -41.8981 H         1 UNK         0.0600 
    177 H177       -1.6847  -10.3032  -41.4809 H         1 UNK         0.0600 
    178 H178       -0.4949  -10.6818  -40.2463 H         1 UNK         0.0600 
    179 H179       -1.0765  -11.7084  -43.6222 H         1 UNK         0.3000 
    180 H180       -1.5778  -14.5676  -45.4391 H         1 UNK         0.0600 
    181 H181       -3.6056  -13.6548  -46.5305 H         1 UNK         0.0600 
    182 H182       -3.8981  -12.5894  -45.1544 H         1 UNK         0.0600 
    183 H183       -4.0177  -14.3352  -44.9668 H         1 UNK         0.0600 
    184 H184       -1.8147  -11.9641  -46.4132 H         1 UNK         0.3000 
    185 H185       -0.0737  -11.0975  -47.5681 H         1 UNK         0.0600 
    186 H186        1.6005  -10.1651  -45.1646 H         1 UNK         0.0600 
    187 H187        1.2931   -9.2257  -46.6253 H         1 UNK         0.0600 
    188 H188       -0.0322   -9.6318  -45.5465 H         1 UNK         0.0600 
    189 H189        2.7487  -11.4626  -46.8964 H         1 UNK         0.3000 
    190 H190       -1.5551  -20.7117  -46.2661 H         1 UNK         0.3000 
    191 H191       -3.7369  -21.5255  -47.8908 H         1 UNK         0.0600 
    192 H192       -3.7092  -19.3656  -46.7283 H         1 UNK         0.0600 
    193 H193       -3.6994  -20.1511  -45.1533 H         1 UNK         0.0600 
    194 H194       -5.1093  -20.2767  -46.2001 H         1 UNK         0.0600 
    195 H195       -2.6931  -22.6522  -44.6529 H         1 UNK         0.3000 
    196 H196       -4.8867  -24.3946  -44.1663 H         1 UNK         0.0600 
    197 H197       -3.3656  -23.5910  -42.3799 H         1 UNK         0.0600 
    198 H198       -2.0234  -24.4924  -43.0805 H         1 UNK         0.0600 
    199 H199       -3.4046  -25.3477  -42.4077 H         1 UNK         0.0600 
    200 H200       -1.6865  -24.9947  -45.6840 H         1 UNK         0.3000 
    201 H201       -2.1133  -27.7893  -46.2017 H         1 UNK         0.0600 
    202 H202        0.1483  -26.7793  -46.1121 H         1 UNK         0.0600 
    203 H203       -0.2149  -25.7627  -47.5042 H         1 UNK         0.0600 
    204 H204       -0.1197  -27.5110  -47.6878 H         1 UNK         0.0600 
    205 H205       -2.5602  -24.8443  -48.1303 H         1 UNK         0.3000 
    206 H206       -3.7517  -24.2109  -49.8122 H         1 UNK         0.0600 
    207 H207       -5.3206  -26.8367  -49.6682 H         1 UNK         0.0600 
    208 H208       -5.7110  -25.3434  -48.8166 H         1 UNK         0.0600 
    209 H209       -5.7804  -25.4020  -50.5717 H         1 UNK         0.0600 
    210 H210       -3.0013  -27.6528  -50.3510 H         1 UNK         0.3000 
    211 H211       -2.2463  -28.8574  -52.0666 H         1 UNK         0.0600 
    212 H212       -0.6561  -26.3275  -52.7896 H         1 UNK         0.0600 
    213 H213       -0.3321  -27.9525  -53.3930 H         1 UNK         0.0600 
    214 H214       -0.1550  -27.5988  -51.6854 H         1 UNK         0.0600 
    215 H215       -1.7445  -26.5581  -54.5225 H         1 UNK         0.3000 
    216 H216       -4.0108  -27.4615  -56.1062 H         1 UNK         0.0600 
    217 H217       -2.9974  -25.9607  -57.8240 H         1 UNK         0.0600 
    218 H218       -1.7852  -27.0211  -57.1255 H         1 UNK         0.0600 
    219 H219       -1.8675  -25.3295  -56.6326 H         1 UNK         0.0600 
    220 H220       -3.5552  -24.9310  -53.8088 H         1 UNK         0.3000 
    221 H221       -4.6403  -23.1703  -53.1071 H         1 UNK         0.0600 
    222 H222       -7.0936  -24.2067  -54.6144 H         1 UNK         0.0600 
    223 H223       -6.5744  -24.7623  -53.0235 H         1 UNK         0.0600 
    224 H224       -7.0864  -23.0986  -53.2506 H         1 UNK         0.0600 
    225 H225       -3.2744  -23.0352  -55.7594 H         1 UNK         0.3000 
    226 H226       -4.5810  -21.3272  -57.5562 H         1 UNK         0.0600 
    227 H227       -2.6275  -22.7396  -58.1364 H         1 UNK         0.0600 
    228 H228       -2.2952  -21.0631  -58.5392 H         1 UNK         0.0600 
    229 H229       -1.5821  -21.7722  -57.0952 H         1 UNK         0.0600 
    230 H230       -2.9651  -20.4939  -54.5857 H         1 UNK         0.3000 
    231 H231       -2.5166  -17.6919  -55.1145 H         1 UNK         0.0600 
    232 H232       -2.1767  -17.6015  -52.6335 H         1 UNK         0.0600 
    233 H233       -1.2706  -18.9189  -53.3552 H         1 UNK         0.0600 
    234 H234       -2.7667  -19.2507  -52.4820 H         1 UNK         0.0600 
    235 H235       -5.3568  -19.5498  -54.3340 H         1 UNK         0.3000 
    236 H236       -7.4465  -19.1533  -53.7686 H         1 UNK         0.0600 
    237 H237       -7.0462  -16.3879  -55.0256 H         1 UNK         0.0600 
    238 H238       -7.3837  -17.8707  -55.9177 H         1 UNK         0.0600 
    239 H239       -8.5770  -17.2243  -54.8039 H         1 UNK         0.0600 
    240 H240       -5.5596  -18.6959  -51.7083 H         1 UNK         0.3000 
    241 H241       -6.2949  -16.3135  -50.2456 H         1 UNK         0.0600 
    242 H242       -7.9503  -19.2798  -50.3371 H         1 UNK         0.3800 
    243 H243       -8.6690  -19.1682  -48.7521 H         1 UNK         0.3800 
    244 H244       -3.9518  -17.7330  -50.4256 H         1 UNK         0.0800 
    245 H245       -4.5435  -18.3819  -48.9242 H         1 UNK         0.0800 
    246 H246       -2.1275  -15.8288  -47.3386 H         1 UNK         0.0800 
    247 H247       -2.8359  -17.4060  -47.1915 H         1 UNK         0.0800 
@<TRIPOS>BOND
     1    1    2 1    
     2    1  127 1    
     3    1  128 1    
     4    1  129 1    
     5    2    3 2    
     6    2    4 am   BACKBONE|DICT|INTERRES
     7    4    5 1    
     8    4  130 1    
     9    5    6 1    
    10    5   65 1    
    11    5  131 1    
    12    6    7 1    
    13    6  132 1    
    14    6  133 1    
    15    7    8 1    
    16    8    9 1    
    17    8  134 1    
    18    8  135 1    
    19    9   10 ar   
    20    9   14 ar   
    21   10   11 ar   
    22   10  136 1    
    23   11   12 ar   
    24   11  126 1    
    25   12   13 ar   
    26   12  137 1    
    27   13   14 ar   
    28   13   15 1    
    29   14  138 1    
    30   15   16 1    
    31   15  139 1    
    32   15  140 1    
    33   16   17 1    
    34   17   18 1    
    35   17  141 1    
    36   17  142 1    
    37   18   19 1    
    38   18   67 1    
    39   18  143 1    
    40   19   20 am   BACKBONE|DICT|INTERRES
    41   19  144 1    
    42   20   21 2    
    43   20   22 1    
    44   22   23 1    
    45   22   24 1    
    46   22  145 1    
    47   23  146 1    
    48   23  147 1    
    49   23  148 1    
    50   24   25 am   BACKBONE|DICT|INTERRES
    51   24  149 1    
    52   25   26 2    
    53   25   27 1    
    54   27   28 1    
    55   27   29 1    
    56   27  150 1    
    57   28  151 1    
    58   28  152 1    
    59   28  153 1    
    60   29   30 am   BACKBONE|DICT|INTERRES
    61   29  154 1    
    62   30   31 2    
    63   30   32 1    
    64   32   33 1    
    65   32   34 1    
    66   32  155 1    
    67   33  156 1    
    68   33  157 1    
    69   33  158 1    
    70   34   35 am   BACKBONE|DICT|INTERRES
    71   34  159 1    
    72   35   36 2    
    73   35   37 1    
    74   37   38 1    
    75   37   39 1    
    76   37  160 1    
    77   38  161 1    
    78   38  162 1    
    79   38  163 1    
    80   39   40 am   BACKBONE|DICT|INTERRES
    81   39  164 1    
    82   40   41 2    
    83   40   42 1    
    84   42   43 1    
    85   42   44 1    
    86   42  165 1    
    87   43  166 1    
    88   43  167 1    
    89   43  168 1    
    90   44   45 am   BACKBONE|DICT|INTERRES
    91   44  169 1    
    92   45   46 2    
    93   45   47 1    
    94   47   48 1    
    95   47   49 1    
    96   47  170 1    
    97   48  171 1    
    98   48  172 1    
    99   48  173 1    
   100   49   50 am   BACKBONE|DICT|INTERRES
   101   49  174 1    
   102   50   51 2    
   103   50   52 1    
   104   52   53 1    
   105   52   54 1    
   106   52  175 1    
   107   53  176 1    
   108   53  177 1    
   109   53  178 1    
   110   54   55 am   BACKBONE|DICT|INTERRES
   111   54  179 1    
   112   55   56 2    
   113   55   57 1    
   114   57   58 1    
   115   57   59 1    
   116   57  180 1    
   117   58  181 1    
   118   58  182 1    
   119   58  183 1    
   120   59   60 am   BACKBONE|DICT|INTERRES
   121   59  184 1    
   122   60   61 2    
   123   60   62 1    
   124   62   63 1    
   125   62   64 1    
   126   62  185 1    
   127   63  186 1    
   128   63  187 1    
   129   63  188 1    
   130   64   65 am   BACKBONE|DICT|INTERRES
   131   64  189 1    
   132   65   66 2    
   133   67   68 2    
   134   67   69 am   BACKBONE|DICT|INTERRES
   135   69   70 1    
   136   69  190 1    
   137   70   71 1    
   138   70   72 1    
   139   70  191 1    
   140   71  192 1    
   141   71  193 1    
   142   71  194 1    
   143   72   73 2    
   144   72   74 am   BACKBONE|DICT|INTERRES
   145   74   75 1    
   146   74  195 1    
   147   75   76 1    
   148   75   77 1    
   149   75  196 1    
   150   76  197 1    
   151   76  198 1    
   152   76  199 1    
   153   77   78 2    
   154   77   79 am   BACKBONE|DICT|INTERRES
   155   79   80 1    
   156   79  200 1    
   157   80   81 1    
   158   80   82 1    
   159   80  201 1    
   160   81  202 1    
   161   81  203 1    
   162   81  204 1    
   163   82   83 2    
   164   82   84 am   BACKBONE|DICT|INTERRES
   165   84   85 1    
   166   84  205 1    
   167   85   86 1    
   168   85   87 1    
   169   85  206 1    
   170   86  207 1    
   171   86  208 1    
   172   86  209 1    
   173   87   88 2    
   174   87   89 am   BACKBONE|DICT|INTERRES
   175   89   90 1    
   176   89  210 1    
   177   90   91 1    
   178   90   92 1    
   179   90  211 1    
   180   91  212 1    
   181   91  213 1    
   182   91  214 1    
   183   92   93 2    
   184   92   94 am   BACKBONE|DICT|INTERRES
   185   94   95 1    
   186   94  215 1    
   187   95   96 1    
   188   95   97 1    
   189   95  216 1    
   190   96  217 1    
   191   96  218 1    
   192   96  219 1    
   193   97   98 2    
   194   97   99 am   BACKBONE|DICT|INTERRES
   195   99  100 1    
   196   99  220 1    
   197  100  101 1    
   198  100  102 1    
   199  100  221 1    
   200  101  222 1    
   201  101  223 1    
   202  101  224 1    
   203  102  103 2    
   204  102  104 am   BACKBONE|DICT|INTERRES
   205  104  105 1    
   206  104  225 1    
   207  105  106 1    
   208  105  107 1    
   209  105  226 1    
   210  106  227 1    
   211  106  228 1    
   212  106  229 1    
   213  107  108 2    
   214  107  109 am   BACKBONE|DICT|INTERRES
   215  109  110 1    
   216  109  230 1    
   217  110  111 1    
   218  110  112 1    
   219  110  231 1    
   220  111  232 1    
   221  111  233 1    
   222  111  234 1    
   223  112  113 2    
   224  112  114 am   BACKBONE|DICT|INTERRES
   225  114  115 1    
   226  114  235 1    
   227  115  116 1    
   228  115  117 1    
   229  115  236 1    
   230  116  237 1    
   231  116  238 1    
   232  116  239 1    
   233  117  118 2    
   234  117  119 am   BACKBONE|DICT|INTERRES
   235  119  120 1    
   236  119  240 1    
   237  120  121 1    
   238  120  124 1    
   239  120  241 1    
   240  121  122 am   BACKBONE|DICT|INTERRES
   241  121  123 2    
   242  122  242 1    
   243  122  243 1    
   244  124  125 1    
   245  124  244 1    
   246  124  245 1    
   247  125  126 1    
   248  126  246 1    
   249  126  247 1    
@<TRIPOS>SUBSTRUCTURE
     1 UNK         1 GROUP             0       ****    0 ROOT    
