@<TRIPOS>MOLECULE
3R540
247   249    1
SMALL
USER_CHARGES


@<TRIPOS>ATOM
      1 CA         -4.9224  -12.9476  -44.1524 C.3       0 UNK        -0.1800 
      2 C          -3.7312  -12.6684  -45.0565 C.2       0 UNK         0.5000 
      3 O          -2.5986  -12.9707  -44.6868 O.2       0 UNK        -0.5000 
      4 N          -3.9758  -12.0726  -46.2307 N.am      1 UNK        -0.5000 
      5 CA         -3.0356  -11.7950  -47.3350 C.3       1 UNK         0.1400 
      6 C6         -2.3521  -13.0597  -47.9278 C.3       23 UNK        -0.0398 
      7 S7         -3.4919  -14.4551  -48.2427 S.3       23 UNK        -0.2404 
      8 C8         -2.7023  -15.7303  -47.2138 C.3       23 UNK        -0.0205 
      9 C9         -3.5779  -16.9560  -47.0309 C.ar      23 UNK        -0.0193 
     10 C10        -3.7027  -17.8850  -48.0634 C.ar      23 UNK        -0.1150 
     11 C11        -4.5201  -19.0074  -47.9127 C.ar      23 UNK        -0.0193 
     12 C12        -5.1933  -19.2126  -46.7043 C.ar      23 UNK        -0.1150 
     13 C13        -5.0409  -18.3117  -45.6447 C.ar      23 UNK        -0.0193 
     14 C14        -4.2418  -17.1774  -45.8214 C.ar      23 UNK        -0.1150 
     15 C15        -5.7335  -18.5477  -44.3055 C.3       23 UNK        -0.0205 
     16 S16        -5.3707  -20.1748  -43.5538 S.3       23 UNK        -0.2404 
     17 C17        -3.5505  -20.2888  -43.6674 C.3       23 UNK        -0.0398 
     18 CA         -3.1219  -21.3643  -44.7003 C.3       11 UNK         0.1400 
     19 N          -1.9503  -20.9649  -45.4769 N.am      11 UNK        -0.5000 
     20 C          -1.5941  -21.5251  -46.6412 C.2       10 UNK         0.5000 
     21 O          -2.2345  -22.4166  -47.2063 O.2       10 UNK        -0.5000 
     22 CA         -0.2787  -21.0238  -47.2638 C.3       10 UNK         0.1400 
     23 CB         -0.5194  -19.7328  -48.0613 C.3       10 UNK        -0.1800 
     24 N           0.7827  -20.8063  -46.2748 N.am      10 UNK        -0.5000 
     25 C           1.2988  -21.7690  -45.4953 C.2       9 UNK         0.5000 
     26 O           0.9320  -22.9418  -45.5294 O.2       9 UNK        -0.5000 
     27 CA          2.3770  -21.3587  -44.4771 C.3       9 UNK         0.1400 
     28 CB          3.7294  -21.1427  -45.1715 C.3       9 UNK        -0.1800 
     29 N           2.0164  -20.1709  -43.7043 N.am      9 UNK        -0.5000 
     30 C           0.9477  -20.0789  -42.8986 C.2       8 UNK         0.5000 
     31 O           0.1507  -20.9953  -42.7032 O.2       8 UNK        -0.5000 
     32 CA          0.6831  -18.7073  -42.2546 C.3       8 UNK         0.1400 
     33 CB          1.6347  -18.4519  -41.0764 C.3       8 UNK        -0.1800 
     34 N           0.7900  -17.6166  -43.2206 N.am      8 UNK        -0.5000 
     35 C           0.0487  -17.5107  -44.3323 C.2       7 UNK         0.5000 
     36 O          -0.8485  -18.2936  -44.6459 O.2       7 UNK        -0.5000 
     37 CA          0.4168  -16.3601  -45.2770 C.3       7 UNK         0.1400 
     38 CB         -0.1269  -15.0266  -44.7417 C.3       7 UNK        -0.1800 
     39 N           1.8615  -16.2779  -45.4944 N.am      7 UNK        -0.5000 
     40 C           2.5743  -17.2032  -46.1544 C.2       6 UNK         0.5000 
     41 O           2.0756  -18.1811  -46.7106 O.2       6 UNK        -0.5000 
     42 CA          4.1043  -17.0398  -46.1503 C.3       6 UNK         0.1400 
     43 CB          4.5753  -16.2005  -47.3455 C.3       6 UNK        -0.1800 
     44 N           4.5937  -16.4489  -44.9044 N.am      6 UNK        -0.5000 
     45 C           4.6292  -17.1077  -43.7369 C.2       5 UNK         0.5000 
     46 O           4.2766  -18.2796  -43.6063 O.2       5 UNK        -0.5000 
     47 CA          5.0908  -16.3178  -42.4983 C.3       5 UNK         0.1400 
     48 CB          6.6179  -16.3875  -42.3522 C.3       5 UNK        -0.1800 
     49 N           4.6694  -14.9160  -42.5125 N.am      5 UNK        -0.5000 
     50 C           3.3961  -14.4996  -42.5183 C.2       4 UNK         0.5000 
     51 O           2.4352  -15.2700  -42.5084 O.2       4 UNK        -0.5000 
     52 CA          3.1427  -12.9774  -42.5603 C.3       4 UNK         0.1400 
     53 CB          4.3919  -12.1266  -42.2383 C.3       4 UNK        -0.1800 
     54 N           2.5497  -12.5343  -43.8282 N.am      4 UNK        -0.5000 
     55 C           3.0336  -12.7185  -45.0670 C.2       3 UNK         0.5000 
     56 O           4.0329  -13.3960  -45.3117 O.2       3 UNK        -0.5000 
     57 CA          2.2842  -12.0333  -46.2308 C.3       3 UNK         0.1400 
     58 CB          1.9991  -13.0101  -47.3850 C.3       3 UNK        -0.1800 
     59 N           1.0226  -11.4122  -45.8118 N.am      3 UNK        -0.5000 
     60 C           0.8466  -10.1025  -45.5823 C.2       2 UNK         0.5000 
     61 O           1.7545   -9.2725  -45.6506 O.2       2 UNK        -0.5000 
     62 CA         -0.5811   -9.6545  -45.1957 C.3       2 UNK         0.1400 
     63 CB         -0.8600   -8.1713  -45.5185 C.3       2 UNK        -0.1800 
     64 N          -1.6272  -10.5264  -45.7442 N.am      2 UNK        -0.5000 
     65 C          -1.9644  -10.7184  -47.0281 C.2       1 UNK         0.5000 
     66 O          -1.4589  -10.1002  -47.9653 O.2       1 UNK        -0.5000 
     67 C          -2.9317  -22.7535  -44.0561 C.2       11 UNK         0.5000 
     68 O          -3.8277  -23.5916  -44.1575 O.2       11 UNK        -0.5000 
     69 N          -1.7599  -22.9971  -43.4474 N.am      12 UNK        -0.5000 
     70 CA         -1.3944  -24.2706  -42.8164 C.3       12 UNK         0.1400 
     71 CB         -0.0721  -24.1104  -42.0516 C.3       12 UNK        -0.1800 
     72 C          -1.2992  -25.4401  -43.8132 C.2       12 UNK         0.5000 
     73 O          -1.6930  -26.5579  -43.4791 O.2       12 UNK        -0.5000 
     74 N          -0.8165  -25.1540  -45.0295 N.am      13 UNK        -0.5000 
     75 CA         -0.7683  -26.0856  -46.1573 C.3       13 UNK         0.1400 
     76 CB          0.2179  -25.5435  -47.2035 C.3       13 UNK        -0.1800 
     77 C          -2.1469  -26.3470  -46.7993 C.2       13 UNK         0.5000 
     78 O          -2.2491  -27.2379  -47.6424 O.2       13 UNK        -0.5000 
     79 N          -3.1690  -25.5715  -46.4049 N.am      14 UNK        -0.5000 
     80 CA         -4.5583  -25.6220  -46.8651 C.3       14 UNK         0.1400 
     81 CB         -5.2329  -26.9386  -46.4261 C.3       14 UNK        -0.1800 
     82 C          -4.6887  -25.3388  -48.3743 C.2       14 UNK         0.5000 
     83 O          -5.4005  -26.0566  -49.0794 O.2       14 UNK        -0.5000 
     84 N          -3.9905  -24.2872  -48.8311 N.am      15 UNK        -0.5000 
     85 CA         -3.9506  -23.7968  -50.2117 C.3       15 UNK         0.1400 
     86 CB         -5.3393  -23.2923  -50.6601 C.3       15 UNK        -0.1800 
     87 C          -3.3505  -24.8229  -51.1953 C.2       15 UNK         0.5000 
     88 O          -3.9142  -25.0578  -52.2648 O.2       15 UNK        -0.5000 
     89 N          -2.2068  -25.4162  -50.8236 N.am      16 UNK        -0.5000 
     90 CA         -1.5215  -26.4709  -51.5831 C.3       16 UNK         0.1400 
     91 CB         -0.3076  -26.9668  -50.7845 C.3       16 UNK        -0.1800 
     92 C          -1.0950  -26.0723  -53.0115 C.2       16 UNK         0.5000 
     93 O          -1.0631  -26.9328  -53.8918 O.2       16 UNK        -0.5000 
     94 N          -0.8031  -24.7810  -53.2234 N.am      17 UNK        -0.5000 
     95 CA         -0.4751  -24.2059  -54.5326 C.3       17 UNK         0.1400 
     96 CB          0.5700  -23.0919  -54.3503 C.3       17 UNK        -0.1800 
     97 C          -1.7202  -23.7029  -55.2980 C.2       17 UNK         0.5000 
     98 O          -1.5663  -23.0695  -56.3437 O.2       17 UNK        -0.5000 
     99 N          -2.9259  -23.9810  -54.7766 N.am      18 UNK        -0.5000 
    100 CA        -4.2383  -23.6555  -55.3371 C.3       18 UNK         0.1400 
    101 CB        -4.5104  -24.5073  -56.5974 C.3       18 UNK        -0.1800 
    102 C         -4.4052  -22.1388  -55.5449 C.2       18 UNK         0.5000 
    103 O         -4.3509  -21.3882  -54.5663 O.2       18 UNK        -0.5000 
    104 N         -4.5834  -21.7055  -56.7995 N.am      19 UNK        -0.5000 
    105 CA        -4.7448  -20.3087  -57.2109 C.3       19 UNK         0.1400 
    106 CB        -5.0399  -20.2654  -58.7178 C.3       19 UNK        -0.1800 
    107 C         -3.5399  -19.4090  -56.8737 C.2       19 UNK         0.5000 
    108 O         -3.7239  -18.2072  -56.6791 O.2       19 UNK        -0.5000 
    109 N         -2.3383  -19.9986  -56.7925 N.am      20 UNK        -0.5000 
    110 CA        -1.1143  -19.3013  -56.3977 C.3       20 UNK         0.1400 
    111 CB         0.1021  -20.0560  -56.9537 C.3       20 UNK        -0.1800 
    112 C         -0.9987  -19.1123  -54.8722 C.2       20 UNK         0.5000 
    113 O         -0.2359  -18.2481  -54.4386 O.2       20 UNK        -0.5000 
    114 N         -1.7462  -19.9035  -54.0878 N.am      21 UNK        -0.5000 
    115 CA        -1.8401  -19.7626  -52.6369 C.3       21 UNK         0.1400 
    116 CB        -2.0377  -21.1391  -51.9797 C.3       21 UNK        -0.1800 
    117 C         -2.9733  -18.7899  -52.2762 C.2       21 UNK         0.5000 
    118 O         -2.7047  -17.7430  -51.6877 O.2       21 UNK        -0.5000 
    119 N         -4.2094  -19.1436  -52.6503 N.am      22 UNK        -0.5000 
    120 CA        -5.4199  -18.3344  -52.4216 C.3       22 UNK         0.1400 
    121 C         -6.6501  -18.7361  -53.2860 C.2       22 UNK         0.5000 
    122 N         -6.6068  -19.7919  -54.0884 N.am      22 UNK        -0.7600 
    123 O         -7.6721  -18.0560  -53.2479 O.2       22 UNK        -0.5000 
    124 C124       -5.7891  -18.1699  -50.9180 C.3       23 UNK        -0.0398 
    125 S125       -6.1557  -19.7354  -50.0434 S.3       23 UNK        -0.2404 
    126 C126       -4.6540  -20.0081  -49.0478 C.3       23 UNK        -0.0205 
    127 H127       -5.8578  -12.6074  -44.5972 H         1 UNK         0.0600 
    128 H128       -4.7947  -12.4410  -43.1959 H         1 UNK         0.0600 
    129 H129       -5.0044  -14.0183  -43.9650 H         1 UNK         0.0600 
    130 H130       -4.9323  -11.8220  -46.4382 H         1 UNK         0.3000 
    131 H131       -3.6586  -11.3718  -48.1246 H         1 UNK         0.0600 
    132 H132       -1.8724  -12.8112  -48.8762 H         1 UNK         0.0800 
    133 H133       -1.5461  -13.3932  -47.2736 H         1 UNK         0.0800 
    134 H134       -1.7574  -16.0197  -47.6742 H         1 UNK         0.0800 
    135 H135       -2.4683  -15.3042  -46.2400 H         1 UNK         0.0800 
    136 H136       -3.1690  -17.7236  -48.9895 H         1 UNK         0.1150 
    137 H137       -5.8201  -20.0846  -46.5812 H         1 UNK         0.1150 
    138 H138       -4.1277  -16.4684  -45.0135 H         1 UNK         0.1150 
    139 H139       -6.8112  -18.4588  -44.4474 H         1 UNK         0.0800 
    140 H140       -5.4554  -17.7728  -43.5894 H         1 UNK         0.0800 
    141 H141       -3.1372  -20.4851  -42.6763 H         1 UNK         0.0800 
    142 H142       -3.1621  -19.3095  -43.9458 H         1 UNK         0.0800 
    143 H143       -3.9284  -21.4732  -45.4289 H         1 UNK         0.0600 
    144 H144       -1.3893  -20.2041  -45.1061 H         1 UNK         0.3000 
    145 H145        0.0682  -21.7922  -47.9576 H         1 UNK         0.0600 
    146 H146        0.3796  -19.4263  -48.5961 H         1 UNK         0.0600 
    147 H147       -0.8189  -18.9094  -47.4117 H         1 UNK         0.0600 
    148 H148       -1.3076  -19.8692  -48.8022 H         1 UNK         0.0600 
    149 H149        1.1557  -19.8637  -46.2110 H         1 UNK         0.3000 
    150 H150        2.4917  -22.1833  -43.7707 H         1 UNK         0.0600 
    151 H151        4.0253  -22.0291  -45.7340 H         1 UNK         0.0600 
    152 H152        4.5175  -20.9408  -44.4460 H         1 UNK         0.0600 
    153 H153        3.6949  -20.3071  -45.8702 H         1 UNK         0.0600 
    154 H154        2.6446  -19.3764  -43.7776 H         1 UNK         0.3000 
    155 H155       -0.3399  -18.7103  -41.8727 H         1 UNK         0.0600 
    156 H156        1.5409  -19.2352  -40.3234 H         1 UNK         0.0600 
    157 H157        1.4122  -17.5023  -40.5892 H         1 UNK         0.0600 
    158 H158        2.6766  -18.4264  -41.3953 H         1 UNK         0.0600 
    159 H159        1.4803  -16.8968  -43.0265 H         1 UNK         0.3000 
    160 H160       -0.0578  -16.5664  -46.2367 H         1 UNK         0.0600 
    161 H161        0.4612  -14.6355  -43.9152 H         1 UNK         0.0600 
    162 H162       -1.1446  -15.1445  -44.3689 H         1 UNK         0.0600 
    163 H163       -0.1564  -14.2664  -45.5184 H         1 UNK         0.0600 
    164 H164        2.3590  -15.5444  -45.0110 H         1 UNK         0.3000 
    165 H165        4.5422  -18.0348  -46.2528 H         1 UNK         0.0600 
    166 H166        5.6635  -16.1550  -47.3896 H         1 UNK         0.0600 
    167 H167        4.2288  -16.6309  -48.2859 H         1 UNK         0.0600 
    168 H168        4.2008  -15.1798  -47.2941 H         1 UNK         0.0600 
    169 H169        4.8389  -15.4661  -44.9271 H         1 UNK         0.3000 
    170 H170        4.6426  -16.7901  -41.6218 H         1 UNK         0.0600 
    171 H171        7.1251  -15.9017  -43.1868 H         1 UNK         0.0600 
    172 H172        6.9487  -15.9068  -41.4314 H         1 UNK         0.0600 
    173 H173        6.9597  -17.4229  -42.3178 H         1 UNK         0.0600 
    174 H174        5.4016  -14.2219  -42.5461 H         1 UNK         0.3000 
    175 H175        2.4015  -12.7769  -41.7853 H         1 UNK         0.0600 
    176 H176        5.1688  -12.2280  -42.9969 H         1 UNK         0.0600 
    177 H177        4.1334  -11.0694  -42.1762 H         1 UNK         0.0600 
    178 H178        4.8232  -12.4053  -41.2759 H         1 UNK         0.0600 
    179 H179        1.7040  -11.9904  -43.7422 H         1 UNK         0.3000 
    180 H180        2.9571  -11.2665  -46.6194 H         1 UNK         0.0600 
    181 H181        1.3982  -12.5375  -48.1623 H         1 UNK         0.0600 
    182 H182        1.4737  -13.9039  -47.0538 H         1 UNK         0.0600 
    183 H183        2.9276  -13.3320  -47.8557 H         1 UNK         0.0600 
    184 H184        0.2247  -12.0228  -45.7148 H         1 UNK         0.3000 
    185 H185       -0.6416   -9.7653  -44.1123 H         1 UNK         0.0600 
    186 H186       -1.8759   -7.8913  -45.2400 H         1 UNK         0.0600 
    187 H187       -0.1828   -7.5178  -44.9675 H         1 UNK         0.0600 
    188 H188       -0.7297   -7.9533  -46.5787 H         1 UNK         0.0600 
    189 H189       -2.0670  -11.1533  -45.0769 H         1 UNK         0.3000 
    190 H190       -1.0688  -22.2529  -43.3813 H         1 UNK         0.3000 
    191 H191       -2.1751  -24.5178  -42.0942 H         1 UNK         0.0600 
    192 H192       -0.1576  -23.3543  -41.2710 H         1 UNK         0.0600 
    193 H193        0.7419  -23.8170  -42.7154 H         1 UNK         0.0600 
    194 H194        0.2172  -25.0442  -41.5680 H         1 UNK         0.0600 
    195 H195       -0.4347  -24.2263  -45.1983 H         1 UNK         0.3000 
    196 H196       -0.3893  -27.0437  -45.7961 H         1 UNK         0.0600 
    197 H197        1.2029  -25.3769  -46.7674 H         1 UNK         0.0600 
    198 H198       -0.1254  -24.5994  -47.6289 H         1 UNK         0.0600 
    199 H199        0.3490  -26.2503  -48.0215 H         1 UNK         0.0600 
    200 H200       -2.9804  -24.8657  -45.7038 H         1 UNK         0.3000 
    201 H201       -5.0764  -24.8061  -46.3593 H         1 UNK         0.0600 
    202 H202       -5.1348  -27.0906  -45.3512 H         1 UNK         0.0600 
    203 H203       -4.8012  -27.8048  -46.9283 H         1 UNK         0.0600 
    204 H204       -6.2989  -26.9258  -46.6556 H         1 UNK         0.0600 
    205 H205       -3.4208  -23.7677  -48.1686 H         1 UNK         0.3000 
    206 H206       -3.2763  -22.9424  -50.1957 H         1 UNK         0.0600 
    207 H207       -6.0254  -24.1152  -50.8629 H         1 UNK         0.0600 
    208 H208       -5.8023  -22.6669  -49.8992 H         1 UNK         0.0600 
    209 H209       -5.2626  -22.6994  -51.5727 H         1 UNK         0.0600 
    210 H210       -1.8234  -25.1939  -49.9170 H         1 UNK         0.3000 
    211 H211       -2.2214  -27.3033  -51.6816 H         1 UNK         0.0600 
    212 H212        0.3881  -26.1567  -50.5632 H         1 UNK         0.0600 
    213 H213        0.2419  -27.7299  -51.3373 H         1 UNK         0.0600 
    214 H214       -0.6181  -27.4185  -49.8430 H         1 UNK         0.0600 
    215 H215       -0.8529  -24.1430  -52.4435 H         1 UNK         0.3000 
    216 H216       -0.0163  -24.9775  -55.1542 H         1 UNK         0.0600 
    217 H217        0.1371  -22.1813  -53.9397 H         1 UNK         0.0600 
    218 H218        1.0226  -22.8325  -55.3072 H         1 UNK         0.0600 
    219 H219        1.3799  -23.4084  -53.6928 H         1 UNK         0.0600 
    220 H220       -2.9669  -24.4735  -53.8902 H         1 UNK         0.3000 
    221 H221       -4.9750  -23.9374  -54.5837 H         1 UNK         0.0600 
    222 H222       -3.7990  -24.3036  -57.3986 H         1 UNK         0.0600 
    223 H223       -4.4437  -25.5703  -56.3650 H         1 UNK         0.0600 
    224 H224       -5.5143  -24.3300  -56.9855 H         1 UNK         0.0600 
    225 H225       -4.5896  -22.3916  -57.5401 H         1 UNK         0.3000 
    226 H226       -5.6108  -19.9035  -56.6856 H         1 UNK         0.0600 
    227 H227       -5.9441  -20.8243  -58.9596 H         1 UNK         0.0600 
    228 H228       -5.1934  -19.2400  -59.0571 H         1 UNK         0.0600 
    229 H229       -4.2185  -20.6846  -59.3004 H         1 UNK         0.0600 
    230 H230       -2.2652  -20.9983  -56.9418 H         1 UNK         0.3000 
    231 H231       -1.1171  -18.3059  -56.8471 H         1 UNK         0.0600 
    232 H232        0.0581  -20.1276  -58.0405 H         1 UNK         0.0600 
    233 H233        0.1653  -21.0666  -56.5550 H         1 UNK         0.0600 
    234 H234        1.0309  -19.5441  -56.6990 H         1 UNK         0.0600 
    235 H235       -2.4001  -20.5413  -54.5234 H         1 UNK         0.3000 
    236 H236       -0.9079  -19.3496  -52.2447 H         1 UNK         0.0600 
    237 H237       -2.9355  -21.6442  -52.3351 H         1 UNK         0.0600 
    238 H238       -1.1897  -21.7937  -52.1679 H         1 UNK         0.0600 
    239 H239       -2.1159  -21.0367  -50.8982 H         1 UNK         0.0600 
    240 H240       -4.3374  -20.0083  -53.1622 H         1 UNK         0.3000 
    241 H241       -5.1724  -17.3368  -52.7892 H         1 UNK         0.0600 
    242 H242       -5.7842  -20.3793  -54.1766 H         1 UNK         0.3800 
    243 H243       -7.4298  -20.0147  -54.6245 H         1 UNK         0.3800 
    244 H244       -4.9955  -17.6344  -50.4035 H         1 UNK         0.0800 
    245 H245       -6.6612  -17.5226  -50.8138 H         1 UNK         0.0800 
    246 H246       -3.7788  -19.9679  -49.6934 H         1 UNK         0.0800 
    247 H247       -4.6761  -21.0158  -48.6315 H         1 UNK         0.0800 
@<TRIPOS>BOND
     1    1    2 1    
     2    1  127 1    
     3    1  128 1    
     4    1  129 1    
     5    2    3 2    
     6    2    4 am   BACKBONE|DICT|INTERRES
     7    4    5 1    
     8    4  130 1    
     9    5    6 1    
    10    5   65 1    
    11    5  131 1    
    12    6    7 1    
    13    6  132 1    
    14    6  133 1    
    15    7    8 1    
    16    8    9 1    
    17    8  134 1    
    18    8  135 1    
    19    9   10 ar   
    20    9   14 ar   
    21   10   11 ar   
    22   10  136 1    
    23   11   12 ar   
    24   11  126 1    
    25   12   13 ar   
    26   12  137 1    
    27   13   14 ar   
    28   13   15 1    
    29   14  138 1    
    30   15   16 1    
    31   15  139 1    
    32   15  140 1    
    33   16   17 1    
    34   17   18 1    
    35   17  141 1    
    36   17  142 1    
    37   18   19 1    
    38   18   67 1    
    39   18  143 1    
    40   19   20 am   BACKBONE|DICT|INTERRES
    41   19  144 1    
    42   20   21 2    
    43   20   22 1    
    44   22   23 1    
    45   22   24 1    
    46   22  145 1    
    47   23  146 1    
    48   23  147 1    
    49   23  148 1    
    50   24   25 am   BACKBONE|DICT|INTERRES
    51   24  149 1    
    52   25   26 2    
    53   25   27 1    
    54   27   28 1    
    55   27   29 1    
    56   27  150 1    
    57   28  151 1    
    58   28  152 1    
    59   28  153 1    
    60   29   30 am   BACKBONE|DICT|INTERRES
    61   29  154 1    
    62   30   31 2    
    63   30   32 1    
    64   32   33 1    
    65   32   34 1    
    66   32  155 1    
    67   33  156 1    
    68   33  157 1    
    69   33  158 1    
    70   34   35 am   BACKBONE|DICT|INTERRES
    71   34  159 1    
    72   35   36 2    
    73   35   37 1    
    74   37   38 1    
    75   37   39 1    
    76   37  160 1    
    77   38  161 1    
    78   38  162 1    
    79   38  163 1    
    80   39   40 am   BACKBONE|DICT|INTERRES
    81   39  164 1    
    82   40   41 2    
    83   40   42 1    
    84   42   43 1    
    85   42   44 1    
    86   42  165 1    
    87   43  166 1    
    88   43  167 1    
    89   43  168 1    
    90   44   45 am   BACKBONE|DICT|INTERRES
    91   44  169 1    
    92   45   46 2    
    93   45   47 1    
    94   47   48 1    
    95   47   49 1    
    96   47  170 1    
    97   48  171 1    
    98   48  172 1    
    99   48  173 1    
   100   49   50 am   BACKBONE|DICT|INTERRES
   101   49  174 1    
   102   50   51 2    
   103   50   52 1    
   104   52   53 1    
   105   52   54 1    
   106   52  175 1    
   107   53  176 1    
   108   53  177 1    
   109   53  178 1    
   110   54   55 am   BACKBONE|DICT|INTERRES
   111   54  179 1    
   112   55   56 2    
   113   55   57 1    
   114   57   58 1    
   115   57   59 1    
   116   57  180 1    
   117   58  181 1    
   118   58  182 1    
   119   58  183 1    
   120   59   60 am   BACKBONE|DICT|INTERRES
   121   59  184 1    
   122   60   61 2    
   123   60   62 1    
   124   62   63 1    
   125   62   64 1    
   126   62  185 1    
   127   63  186 1    
   128   63  187 1    
   129   63  188 1    
   130   64   65 am   BACKBONE|DICT|INTERRES
   131   64  189 1    
   132   65   66 2    
   133   67   68 2    
   134   67   69 am   BACKBONE|DICT|INTERRES
   135   69   70 1    
   136   69  190 1    
   137   70   71 1    
   138   70   72 1    
   139   70  191 1    
   140   71  192 1    
   141   71  193 1    
   142   71  194 1    
   143   72   73 2    
   144   72   74 am   BACKBONE|DICT|INTERRES
   145   74   75 1    
   146   74  195 1    
   147   75   76 1    
   148   75   77 1    
   149   75  196 1    
   150   76  197 1    
   151   76  198 1    
   152   76  199 1    
   153   77   78 2    
   154   77   79 am   BACKBONE|DICT|INTERRES
   155   79   80 1    
   156   79  200 1    
   157   80   81 1    
   158   80   82 1    
   159   80  201 1    
   160   81  202 1    
   161   81  203 1    
   162   81  204 1    
   163   82   83 2    
   164   82   84 am   BACKBONE|DICT|INTERRES
   165   84   85 1    
   166   84  205 1    
   167   85   86 1    
   168   85   87 1    
   169   85  206 1    
   170   86  207 1    
   171   86  208 1    
   172   86  209 1    
   173   87   88 2    
   174   87   89 am   BACKBONE|DICT|INTERRES
   175   89   90 1    
   176   89  210 1    
   177   90   91 1    
   178   90   92 1    
   179   90  211 1    
   180   91  212 1    
   181   91  213 1    
   182   91  214 1    
   183   92   93 2    
   184   92   94 am   BACKBONE|DICT|INTERRES
   185   94   95 1    
   186   94  215 1    
   187   95   96 1    
   188   95   97 1    
   189   95  216 1    
   190   96  217 1    
   191   96  218 1    
   192   96  219 1    
   193   97   98 2    
   194   97   99 am   BACKBONE|DICT|INTERRES
   195   99  100 1    
   196   99  220 1    
   197  100  101 1    
   198  100  102 1    
   199  100  221 1    
   200  101  222 1    
   201  101  223 1    
   202  101  224 1    
   203  102  103 2    
   204  102  104 am   BACKBONE|DICT|INTERRES
   205  104  105 1    
   206  104  225 1    
   207  105  106 1    
   208  105  107 1    
   209  105  226 1    
   210  106  227 1    
   211  106  228 1    
   212  106  229 1    
   213  107  108 2    
   214  107  109 am   BACKBONE|DICT|INTERRES
   215  109  110 1    
   216  109  230 1    
   217  110  111 1    
   218  110  112 1    
   219  110  231 1    
   220  111  232 1    
   221  111  233 1    
   222  111  234 1    
   223  112  113 2    
   224  112  114 am   BACKBONE|DICT|INTERRES
   225  114  115 1    
   226  114  235 1    
   227  115  116 1    
   228  115  117 1    
   229  115  236 1    
   230  116  237 1    
   231  116  238 1    
   232  116  239 1    
   233  117  118 2    
   234  117  119 am   BACKBONE|DICT|INTERRES
   235  119  120 1    
   236  119  240 1    
   237  120  121 1    
   238  120  124 1    
   239  120  241 1    
   240  121  122 am   BACKBONE|DICT|INTERRES
   241  121  123 2    
   242  122  242 1    
   243  122  243 1    
   244  124  125 1    
   245  124  244 1    
   246  124  245 1    
   247  125  126 1    
   248  126  246 1    
   249  126  247 1    
@<TRIPOS>SUBSTRUCTURE
     1 UNK         1 GROUP             0       ****    0 ROOT    
