@<TRIPOS>MOLECULE
3R540
247   249    1
SMALL
USER_CHARGES


@<TRIPOS>ATOM
      1 CA         -2.3356  -14.6607  -43.4326 C.3       0 UNK        -0.1800 
      2 C          -2.2515  -13.5074  -44.4220 C.2       0 UNK         0.5000 
      3 O          -2.5539  -12.3695  -44.0647 O.2       0 UNK        -0.5000 
      4 N          -1.8550  -13.7989  -45.6672 N.am      1 UNK        -0.5000 
      5 CA         -1.7801  -12.8335  -46.7714 C.3       1 UNK         0.1400 
      6 C6         -1.9724  -13.5271  -48.1446 C.3       23 UNK        -0.0398 
      7 S7         -0.6379  -14.6857  -48.6220 S.3       23 UNK        -0.2404 
      8 C8         -1.4455  -16.3119  -48.4916 C.3       23 UNK        -0.0205 
      9 C9         -0.8063  -17.3037  -49.4513 C.ar      23 UNK        -0.0193 
     10 C10        -1.4258  -17.5928  -50.6699 C.ar      23 UNK        -0.1150 
     11 C11        -0.8261  -18.4640  -51.5827 C.ar      23 UNK        -0.0193 
     12 C12         0.3975  -19.0598  -51.2642 C.ar      23 UNK        -0.1150 
     13 C13         1.0326  -18.7731  -50.0519 C.ar      23 UNK        -0.0193 
     14 C14         0.4197  -17.9019  -49.1445 C.ar      23 UNK        -0.1150 
     15 C15         2.4123  -19.3491  -49.7628 C.3       23 UNK        -0.0205 
     16 S16         2.3524  -21.0755  -49.1912 S.3       23 UNK        -0.2404 
     17 C17         1.8138  -20.8577  -47.4625 C.3       23 UNK        -0.0398 
     18 CA          0.8444  -21.9556  -46.9683 C.3       11 UNK         0.1400 
     19 N           0.6430  -21.8662  -45.5212 N.am      11 UNK        -0.5000 
     20 C          -0.0126  -22.7615  -44.7709 C.2       10 UNK         0.5000 
     21 O          -0.4845  -23.8088  -45.2099 O.2       10 UNK        -0.5000 
     22 CA         -0.2217  -22.4012  -43.2891 C.3       10 UNK         0.1400 
     23 CB          1.0356  -22.7144  -42.4649 C.3       10 UNK        -0.1800 
     24 N          -0.6050  -21.0003  -43.1032 N.am      10 UNK        -0.5000 
     25 C          -1.7394  -20.4630  -43.5770 C.2       9 UNK         0.5000 
     26 O          -2.6036  -21.1064  -44.1714 O.2       9 UNK        -0.5000 
     27 CA         -1.9217  -18.9460  -43.4026 C.3       9 UNK         0.1400 
     28 CB         -2.4169  -18.6166  -41.9870 C.3       9 UNK        -0.1800 
     29 N          -0.6987  -18.1969  -43.6906 N.am      9 UNK        -0.5000 
     30 C          -0.1076  -18.1452  -44.8926 C.2       8 UNK         0.5000 
     31 O          -0.5574  -18.6935  -45.8975 O.2       8 UNK        -0.5000 
     32 CA          1.2363  -17.4010  -44.9800 C.3       8 UNK         0.1400 
     33 CB          1.0315  -15.8816  -45.0415 C.3       8 UNK        -0.1800 
     34 N           2.1299  -17.7282  -43.8720 N.am      8 UNK        -0.5000 
     35 C           2.6313  -18.9475  -43.6342 C.2       7 UNK         0.5000 
     36 O           2.4130  -19.9283  -44.3441 O.2       7 UNK        -0.5000 
     37 CA          3.4838  -19.1053  -42.3656 C.3       7 UNK         0.1400 
     38 CB          4.9181  -18.6090  -42.6024 C.3       7 UNK        -0.1800 
     39 N           2.8981  -18.3979  -41.2282 N.am      7 UNK        -0.5000 
     40 C           1.7698  -18.7698  -40.6078 C.2       6 UNK         0.5000 
     41 O           1.1140  -19.7658  -40.9141 O.2       6 UNK        -0.5000 
     42 CA          1.2714  -17.8449  -39.4827 C.3       6 UNK         0.1400 
     43 CB          2.0381  -18.1093  -38.1783 C.3       6 UNK        -0.1800 
     44 N           1.3752  -16.4266  -39.8321 N.am      6 UNK        -0.5000 
     45 C           0.6728  -15.8460  -40.8139 C.2       5 UNK         0.5000 
     46 O          -0.1320  -16.4442  -41.5245 O.2       5 UNK        -0.5000 
     47 CA          0.9388  -14.3570  -41.0791 C.3       5 UNK         0.1400 
     48 CB          0.1166  -13.4773  -40.1266 C.3       5 UNK        -0.1800 
     49 N           2.3465  -13.9669  -41.0068 N.am      5 UNK        -0.5000 
     50 C           3.3388  -14.4789  -41.7461 C.2       4 UNK         0.5000 
     51 O           3.2205  -15.4813  -42.4524 O.2       4 UNK        -0.5000 
     52 CA          4.6576  -13.6800  -41.7407 C.3       4 UNK         0.1400 
     53 CB          5.7848  -14.3918  -42.5097 C.3       4 UNK        -0.1800 
     54 N           4.4316  -12.3641  -42.3408 N.am      4 UNK        -0.5000 
     55 C           3.8828  -11.3133  -41.7153 C.2       3 UNK         0.5000 
     56 O           3.6450  -11.2901  -40.5066 O.2       3 UNK        -0.5000 
     57 CA          3.4687  -10.1182  -42.5962 C.3       3 UNK         0.1400 
     58 CB          4.6178   -9.1046  -42.7047 C.3       3 UNK        -0.1800 
     59 N           3.0337  -10.5032  -43.9443 N.am      3 UNK        -0.5000 
     60 C           1.9757  -11.2786  -44.2250 C.2       2 UNK         0.5000 
     61 O           1.2353  -11.7684  -43.3690 O.2       2 UNK        -0.5000 
     62 CA          1.7244  -11.5632  -45.7140 C.3       2 UNK         0.1400 
     63 CB          2.8509  -12.4275  -46.3079 C.3       2 UNK        -0.1800 
     64 N           0.4554  -12.2692  -45.8790 N.am      2 UNK        -0.5000 
     65 C          -0.5145  -11.9421  -46.7413 C.2       1 UNK         0.5000 
     66 O          -0.4429  -10.9812  -47.5096 O.2       1 UNK        -0.5000 
     67 C          -0.4970  -21.9516  -47.7321 C.2       11 UNK         0.5000 
     68 O          -0.7192  -22.8312  -48.5643 O.2       11 UNK        -0.5000 
     69 N          -1.3878  -21.0073  -47.3958 N.am      12 UNK        -0.5000 
     70 CA         -2.7350  -20.9050  -47.9578 C.3       12 UNK         0.1400 
     71 CB         -3.4154  -19.6308  -47.4373 C.3       12 UNK        -0.1800 
     72 C          -3.6012  -22.1465  -47.6717 C.2       12 UNK         0.5000 
     73 O          -4.2979  -22.6121  -48.5720 O.2       12 UNK        -0.5000 
     74 N          -3.5130  -22.6770  -46.4427 N.am      13 UNK        -0.5000 
     75 CA         -4.1875  -23.9021  -46.0126 C.3       13 UNK         0.1400 
     76 CB         -4.0790  -24.0464  -44.4873 C.3       13 UNK        -0.1800 
     77 C          -3.6520  -25.1598  -46.7203 C.2       13 UNK         0.5000 
     78 O          -4.4490  -25.9935  -47.1510 O.2       13 UNK        -0.5000 
     79 N          -2.3228  -25.2659  -46.8663 N.am      14 UNK        -0.5000 
     80 CA         -1.6485  -26.3394  -47.6050 C.3       14 UNK         0.1400 
     81 CB         -0.1305  -26.2380  -47.3935 C.3       14 UNK        -0.1800 
     82 C          -1.9915  -26.3327  -49.1070 C.2       14 UNK         0.5000 
     83 O          -2.1238  -27.3975  -49.7105 O.2       14 UNK        -0.5000 
     84 N          -2.1849  -25.1309  -49.6629 N.am      15 UNK        -0.5000 
     85 CA         -2.6753  -24.8787  -51.0165 C.3       15 UNK         0.1400 
     86 CB         -2.1608  -23.5034  -51.4687 C.3       15 UNK        -0.1800 
     87 C          -4.2121  -24.9879  -51.1525 C.2       15 UNK         0.5000 
     88 O          -4.7396  -24.6423  -52.2109 O.2       15 UNK        -0.5000 
     89 N          -4.9057  -25.4587  -50.1037 N.am      16 UNK        -0.5000 
     90 CA         -6.3442  -25.7194  -50.0021 C.3       16 UNK         0.1400 
     91 CB         -6.7504  -26.8953  -50.9171 C.3       16 UNK        -0.1800 
     92 C          -7.1960  -24.4554  -50.2226 C.2       16 UNK         0.5000 
     93 O          -7.5014  -23.7491  -49.2615 O.2       16 UNK        -0.5000 
     94 N          -7.5621  -24.1956  -51.4835 N.am      17 UNK        -0.5000 
     95 CA         -8.2872  -23.0044  -51.9244 C.3       17 UNK         0.1400 
     96 CB         -8.9549  -23.3151  -53.2740 C.3       17 UNK        -0.1800 
     97 C          -7.3848  -21.7604  -52.0511 C.2       17 UNK         0.5000 
     98 O          -7.9056  -20.6648  -52.2632 O.2       17 UNK        -0.5000 
     99 N          -6.0578  -21.9508  -51.9811 N.am      18 UNK        -0.5000 
    100 CA        -4.9717  -20.9781  -52.1575 C.3       18 UNK         0.1400 
    101 CB        -5.0949  -19.7756  -51.2034 C.3       18 UNK        -0.1800 
    102 C         -4.7981  -20.5497  -53.6241 C.2       18 UNK         0.5000 
    103 O         -3.6920  -20.6382  -54.1588 O.2       18 UNK        -0.5000 
    104 N         -5.9044  -20.1850  -54.2836 N.am      19 UNK        -0.5000 
    105 CA        -5.9957  -19.8860  -55.7154 C.3       19 UNK         0.1400 
    106 CB        -7.4285  -19.4390  -56.0386 C.3       19 UNK        -0.1800 
    107 C         -5.5801  -21.0629  -56.6224 C.2       19 UNK         0.5000 
    108 O         -5.1621  -20.8342  -57.7563 O.2       19 UNK        -0.5000 
    109 N         -5.6498  -22.2933  -56.0952 N.am      20 UNK        -0.5000 
    110 CA        -5.1464  -23.5112  -56.7307 C.3       20 UNK         0.1400 
    111 CB        -5.5812  -24.7229  -55.8922 C.3       20 UNK        -0.1800 
    112 C         -3.6155  -23.5134  -56.9314 C.2       20 UNK         0.5000 
    113 O         -3.1379  -24.1596  -57.8649 O.2       20 UNK        -0.5000 
    114 N         -2.8817  -22.7920  -56.0714 N.am      21 UNK        -0.5000 
    115 CA        -1.4344  -22.6071  -56.1678 C.3       21 UNK         0.1400 
    116 CB        -0.8027  -22.7736  -54.7769 C.3       21 UNK        -0.1800 
    117 C         -1.0901  -21.2288  -56.7542 C.2       21 UNK         0.5000 
    118 O         -0.2242  -21.1444  -57.6262 O.2       21 UNK        -0.5000 
    119 N         -1.7615  -20.1771  -56.2657 N.am      22 UNK        -0.5000 
    120 CA        -1.5228  -18.7817  -56.6712 C.3       22 UNK         0.1400 
    121 C         -2.1076  -18.3848  -58.0585 C.2       22 UNK         0.5000 
    122 N         -3.0261  -19.1346  -58.6518 N.am      22 UNK        -0.7600 
    123 O         -1.7034  -17.3708  -58.6212 O.2       22 UNK        -0.5000 
    124 C124       -1.9670  -17.7880  -55.5668 C.3       23 UNK        -0.0398 
    125 S125       -0.7484  -17.6684  -54.2135 S.3       23 UNK        -0.2404 
    126 C126       -1.4812  -18.7237  -52.9286 C.3       23 UNK        -0.0205 
    127 H127       -3.3743  -14.8434  -43.1582 H         1 UNK         0.0600 
    128 H128       -1.9276  -15.5832  -43.8445 H         1 UNK         0.0600 
    129 H129       -1.7845  -14.4192  -42.5251 H         1 UNK         0.0600 
    130 H130       -1.6243  -14.7504  -45.9096 H         1 UNK         0.3000 
    131 H131       -2.6211  -12.1457  -46.6582 H         1 UNK         0.0600 
    132 H132       -2.0484  -12.7736  -48.9304 H         1 UNK         0.0800 
    133 H133       -2.9326  -14.0434  -48.1576 H         1 UNK         0.0800 
    134 H134       -1.3687  -16.6776  -47.4679 H         1 UNK         0.0800 
    135 H135       -2.5107  -16.2251  -48.7095 H         1 UNK         0.0800 
    136 H136       -2.3634  -17.1170  -50.9208 H         1 UNK         0.1150 
    137 H137        0.8725  -19.7207  -51.9758 H         1 UNK         0.1150 
    138 H138        0.9087  -17.6592  -48.2126 H         1 UNK         0.1150 
    139 H139        3.0133  -19.3062  -50.6723 H         1 UNK         0.0800 
    140 H140        2.9394  -18.7387  -49.0276 H         1 UNK         0.0800 
    141 H141        1.3686  -19.8728  -47.3284 H         1 UNK         0.0800 
    142 H142        2.7155  -20.8619  -46.8489 H         1 UNK         0.0800 
    143 H143        1.3174  -22.9219  -47.1559 H         1 UNK         0.0600 
    144 H144        1.0466  -21.0543  -45.0619 H         1 UNK         0.3000 
    145 H145       -1.0362  -23.0216  -42.9100 H         1 UNK         0.0600 
    146 H146        0.8620  -22.5431  -41.4025 H         1 UNK         0.0600 
    147 H147        1.3292  -23.7583  -42.5822 H         1 UNK         0.0600 
    148 H148        1.8824  -22.0988  -42.7683 H         1 UNK         0.0600 
    149 H149        0.0431  -20.4139  -42.5886 H         1 UNK         0.3000 
    150 H150       -2.6857  -18.6206  -44.1116 H         1 UNK         0.0600 
    151 H151       -3.3266  -19.1701  -41.7513 H         1 UNK         0.0600 
    152 H152       -2.6477  -17.5557  -41.8886 H         1 UNK         0.0600 
    153 H153       -1.6717  -18.8684  -41.2314 H         1 UNK         0.0600 
    154 H154       -0.2933  -17.6810  -42.9130 H         1 UNK         0.3000 
    155 H155        1.7295  -17.7127  -45.9026 H         1 UNK         0.0600 
    156 H156        0.5423  -15.5024  -44.1449 H         1 UNK         0.0600 
    157 H157        0.4233  -15.6050  -45.9017 H         1 UNK         0.0600 
    158 H158        1.9860  -15.3667  -45.1404 H         1 UNK         0.0600 
    159 H159        2.3983  -16.9633  -43.2571 H         1 UNK         0.3000 
    160 H160        3.5284  -20.1687  -42.1212 H         1 UNK         0.0600 
    161 H161        5.5379  -18.7561  -41.7179 H         1 UNK         0.0600 
    162 H162        4.9437  -17.5495  -42.8583 H         1 UNK         0.0600 
    163 H163        5.3869  -19.1544  -43.4224 H         1 UNK         0.0600 
    164 H164        3.3337  -17.5270  -40.9618 H         1 UNK         0.3000 
    165 H165        0.2174  -18.0732  -39.3099 H         1 UNK         0.0600 
    166 H166        1.6334  -17.5180  -37.3567 H         1 UNK         0.0600 
    167 H167        1.9648  -19.1586  -37.8891 H         1 UNK         0.0600 
    168 H168        3.0975  -17.8687  -38.2755 H         1 UNK         0.0600 
    169 H169        2.0272  -15.8649  -39.3046 H         1 UNK         0.3000 
    170 H170        0.6068  -14.1479  -42.0974 H         1 UNK         0.0600 
    171 H171       -0.9418  -13.7383  -40.1662 H         1 UNK         0.0600 
    172 H172        0.4448  -13.5868  -39.0923 H         1 UNK         0.0600 
    173 H173        0.2001  -12.4242  -40.3969 H         1 UNK         0.0600 
    174 H174        2.5470  -13.1148  -40.4966 H         1 UNK         0.3000 
    175 H175        4.9774  -13.5624  -40.7033 H         1 UNK         0.0600 
    176 H176        5.5255  -14.5472  -43.5579 H         1 UNK         0.0600 
    177 H177        6.7093  -13.8153  -42.4755 H         1 UNK         0.0600 
    178 H178        5.9963  -15.3691  -42.0743 H         1 UNK         0.0600 
    179 H179        4.5587  -12.3028  -43.3400 H         1 UNK         0.3000 
    180 H180        2.6260   -9.6278  -42.1046 H         1 UNK         0.0600 
    181 H181        5.4823   -9.5286  -43.2172 H         1 UNK         0.0600 
    182 H182        4.9480   -8.7813  -41.7165 H         1 UNK         0.0600 
    183 H183        4.3076   -8.2126  -43.2494 H         1 UNK         0.0600 
    184 H184        3.5856  -10.1405  -44.7084 H         1 UNK         0.3000 
    185 H185        1.6983  -10.6029  -46.2329 H         1 UNK         0.0600 
    186 H186        3.8019  -11.8941  -46.3069 H         1 UNK         0.0600 
    187 H187        2.9928  -13.3493  -45.7440 H         1 UNK         0.0600 
    188 H188        2.6358  -12.6983  -47.3419 H         1 UNK         0.0600 
    189 H189        0.2785  -13.0040  -45.2093 H         1 UNK         0.3000 
    190 H190       -1.1206  -20.2919  -46.7239 H         1 UNK         0.3000 
    191 H191       -2.6323  -20.8140  -49.0413 H         1 UNK         0.0600 
    192 H192       -3.5071  -19.6379  -46.3511 H         1 UNK         0.0600 
    193 H193       -4.4182  -19.5239  -47.8522 H         1 UNK         0.0600 
    194 H194       -2.8507  -18.7433  -47.7185 H         1 UNK         0.0600 
    195 H195       -2.9577  -22.1949  -45.7414 H         1 UNK         0.3000 
    196 H196       -5.2450  -23.8056  -46.2677 H         1 UNK         0.0600 
    197 H197       -3.0409  -24.1119  -44.1610 H         1 UNK         0.0600 
    198 H198       -4.5900  -24.9461  -44.1422 H         1 UNK         0.0600 
    199 H199       -4.5358  -23.1974  -43.9784 H         1 UNK         0.0600 
    200 H200       -1.7223  -24.5676  -46.4346 H         1 UNK         0.3000 
    201 H201       -1.9867  -27.2921  -47.1925 H         1 UNK         0.0600 
    202 H202        0.1267  -26.3267  -46.3379 H         1 UNK         0.0600 
    203 H203        0.2637  -25.2877  -47.7548 H         1 UNK         0.0600 
    204 H204        0.3927  -27.0346  -47.9238 H         1 UNK         0.0600 
    205 H205       -1.9853  -24.3077  -49.1025 H         1 UNK         0.3000 
    206 H206       -2.2519  -25.6279  -51.6882 H         1 UNK         0.0600 
    207 H207       -1.0718  -23.4884  -51.5156 H         1 UNK         0.0600 
    208 H208       -2.5313  -23.2466  -52.4608 H         1 UNK         0.0600 
    209 H209       -2.4700  -22.7174  -50.7803 H         1 UNK         0.0600 
    210 H210       -4.3918  -25.6455  -49.2514 H         1 UNK         0.3000 
    211 H211       -6.5254  -26.0341  -48.9734 H         1 UNK         0.0600 
    212 H212       -6.5149  -26.7120  -51.9657 H         1 UNK         0.0600 
    213 H213       -7.8210  -27.0920  -50.8487 H         1 UNK         0.0600 
    214 H214       -6.2358  -27.8098  -50.6219 H         1 UNK         0.0600 
    215 H215       -7.2215  -24.8122  -52.2080 H         1 UNK         0.3000 
    216 H216       -9.0681  -22.7734  -51.1970 H         1 UNK         0.0600 
    217 H217       -9.5412  -22.4658  -53.6274 H         1 UNK         0.0600 
    218 H218       -9.6344  -24.1636  -53.1915 H         1 UNK         0.0600 
    219 H219       -8.2186  -23.5484  -54.0442 H         1 UNK         0.0600 
    220 H220       -5.7443  -22.9097  -51.8673 H         1 UNK         0.3000 
    221 H221       -4.0623  -21.5056  -51.8802 H         1 UNK         0.0600 
    222 H222       -5.9269  -19.1222  -51.4663 H         1 UNK         0.0600 
    223 H223       -5.2405  -20.1076  -50.1755 H         1 UNK         0.0600 
    224 H224       -4.1887  -19.1705  -51.2213 H         1 UNK         0.0600 
    225 H225       -6.7705  -20.1615  -53.7526 H         1 UNK         0.3000 
    226 H226       -5.3176  -19.0567  -55.9263 H         1 UNK         0.0600 
    227 H227       -7.7045  -18.5546  -55.4641 H         1 UNK         0.0600 
    228 H228       -7.5311  -19.1848  -57.0945 H         1 UNK         0.0600 
    229 H229       -8.1534  -20.2233  -55.8162 H         1 UNK         0.0600 
    230 H230       -6.0047  -22.3873  -55.1562 H         1 UNK         0.3000 
    231 H231       -5.6085  -23.5912  -57.7168 H         1 UNK         0.0600 
    232 H232       -6.6665  -24.7762  -55.8058 H         1 UNK         0.0600 
    233 H233       -5.1645  -24.6847  -54.8853 H         1 UNK         0.0600 
    234 H234       -5.2467  -25.6549  -56.3497 H         1 UNK         0.0600 
    235 H235       -3.3545  -22.2588  -55.3515 H         1 UNK         0.3000 
    236 H236       -0.9966  -23.3652  -56.8207 H         1 UNK         0.0600 
    237 H237        0.2791  -22.6418  -54.8212 H         1 UNK         0.0600 
    238 H238       -1.1918  -22.0454  -54.0653 H         1 UNK         0.0600 
    239 H239       -0.9920  -23.7699  -54.3776 H         1 UNK         0.0600 
    240 H240       -2.4496  -20.3237  -55.5333 H         1 UNK         0.3000 
    241 H241       -0.4439  -18.6643  -56.7934 H         1 UNK         0.0600 
    242 H242       -3.3736  -18.8522  -59.5541 H         1 UNK         0.3800 
    243 H243       -3.4462  -19.9364  -58.1967 H         1 UNK         0.3800 
    244 H244       -2.0668  -16.7770  -55.9664 H         1 UNK         0.0800 
    245 H245       -2.9522  -18.0485  -55.1777 H         1 UNK         0.0800 
    246 H246       -2.5515  -18.5285  -52.8654 H         1 UNK         0.0800 
    247 H247       -1.3637  -19.7717  -53.2048 H         1 UNK         0.0800 
@<TRIPOS>BOND
     1    1    2 1    
     2    1  127 1    
     3    1  128 1    
     4    1  129 1    
     5    2    3 2    
     6    2    4 am   BACKBONE|DICT|INTERRES
     7    4    5 1    
     8    4  130 1    
     9    5    6 1    
    10    5   65 1    
    11    5  131 1    
    12    6    7 1    
    13    6  132 1    
    14    6  133 1    
    15    7    8 1    
    16    8    9 1    
    17    8  134 1    
    18    8  135 1    
    19    9   10 ar   
    20    9   14 ar   
    21   10   11 ar   
    22   10  136 1    
    23   11   12 ar   
    24   11  126 1    
    25   12   13 ar   
    26   12  137 1    
    27   13   14 ar   
    28   13   15 1    
    29   14  138 1    
    30   15   16 1    
    31   15  139 1    
    32   15  140 1    
    33   16   17 1    
    34   17   18 1    
    35   17  141 1    
    36   17  142 1    
    37   18   19 1    
    38   18   67 1    
    39   18  143 1    
    40   19   20 am   BACKBONE|DICT|INTERRES
    41   19  144 1    
    42   20   21 2    
    43   20   22 1    
    44   22   23 1    
    45   22   24 1    
    46   22  145 1    
    47   23  146 1    
    48   23  147 1    
    49   23  148 1    
    50   24   25 am   BACKBONE|DICT|INTERRES
    51   24  149 1    
    52   25   26 2    
    53   25   27 1    
    54   27   28 1    
    55   27   29 1    
    56   27  150 1    
    57   28  151 1    
    58   28  152 1    
    59   28  153 1    
    60   29   30 am   BACKBONE|DICT|INTERRES
    61   29  154 1    
    62   30   31 2    
    63   30   32 1    
    64   32   33 1    
    65   32   34 1    
    66   32  155 1    
    67   33  156 1    
    68   33  157 1    
    69   33  158 1    
    70   34   35 am   BACKBONE|DICT|INTERRES
    71   34  159 1    
    72   35   36 2    
    73   35   37 1    
    74   37   38 1    
    75   37   39 1    
    76   37  160 1    
    77   38  161 1    
    78   38  162 1    
    79   38  163 1    
    80   39   40 am   BACKBONE|DICT|INTERRES
    81   39  164 1    
    82   40   41 2    
    83   40   42 1    
    84   42   43 1    
    85   42   44 1    
    86   42  165 1    
    87   43  166 1    
    88   43  167 1    
    89   43  168 1    
    90   44   45 am   BACKBONE|DICT|INTERRES
    91   44  169 1    
    92   45   46 2    
    93   45   47 1    
    94   47   48 1    
    95   47   49 1    
    96   47  170 1    
    97   48  171 1    
    98   48  172 1    
    99   48  173 1    
   100   49   50 am   BACKBONE|DICT|INTERRES
   101   49  174 1    
   102   50   51 2    
   103   50   52 1    
   104   52   53 1    
   105   52   54 1    
   106   52  175 1    
   107   53  176 1    
   108   53  177 1    
   109   53  178 1    
   110   54   55 am   BACKBONE|DICT|INTERRES
   111   54  179 1    
   112   55   56 2    
   113   55   57 1    
   114   57   58 1    
   115   57   59 1    
   116   57  180 1    
   117   58  181 1    
   118   58  182 1    
   119   58  183 1    
   120   59   60 am   BACKBONE|DICT|INTERRES
   121   59  184 1    
   122   60   61 2    
   123   60   62 1    
   124   62   63 1    
   125   62   64 1    
   126   62  185 1    
   127   63  186 1    
   128   63  187 1    
   129   63  188 1    
   130   64   65 am   BACKBONE|DICT|INTERRES
   131   64  189 1    
   132   65   66 2    
   133   67   68 2    
   134   67   69 am   BACKBONE|DICT|INTERRES
   135   69   70 1    
   136   69  190 1    
   137   70   71 1    
   138   70   72 1    
   139   70  191 1    
   140   71  192 1    
   141   71  193 1    
   142   71  194 1    
   143   72   73 2    
   144   72   74 am   BACKBONE|DICT|INTERRES
   145   74   75 1    
   146   74  195 1    
   147   75   76 1    
   148   75   77 1    
   149   75  196 1    
   150   76  197 1    
   151   76  198 1    
   152   76  199 1    
   153   77   78 2    
   154   77   79 am   BACKBONE|DICT|INTERRES
   155   79   80 1    
   156   79  200 1    
   157   80   81 1    
   158   80   82 1    
   159   80  201 1    
   160   81  202 1    
   161   81  203 1    
   162   81  204 1    
   163   82   83 2    
   164   82   84 am   BACKBONE|DICT|INTERRES
   165   84   85 1    
   166   84  205 1    
   167   85   86 1    
   168   85   87 1    
   169   85  206 1    
   170   86  207 1    
   171   86  208 1    
   172   86  209 1    
   173   87   88 2    
   174   87   89 am   BACKBONE|DICT|INTERRES
   175   89   90 1    
   176   89  210 1    
   177   90   91 1    
   178   90   92 1    
   179   90  211 1    
   180   91  212 1    
   181   91  213 1    
   182   91  214 1    
   183   92   93 2    
   184   92   94 am   BACKBONE|DICT|INTERRES
   185   94   95 1    
   186   94  215 1    
   187   95   96 1    
   188   95   97 1    
   189   95  216 1    
   190   96  217 1    
   191   96  218 1    
   192   96  219 1    
   193   97   98 2    
   194   97   99 am   BACKBONE|DICT|INTERRES
   195   99  100 1    
   196   99  220 1    
   197  100  101 1    
   198  100  102 1    
   199  100  221 1    
   200  101  222 1    
   201  101  223 1    
   202  101  224 1    
   203  102  103 2    
   204  102  104 am   BACKBONE|DICT|INTERRES
   205  104  105 1    
   206  104  225 1    
   207  105  106 1    
   208  105  107 1    
   209  105  226 1    
   210  106  227 1    
   211  106  228 1    
   212  106  229 1    
   213  107  108 2    
   214  107  109 am   BACKBONE|DICT|INTERRES
   215  109  110 1    
   216  109  230 1    
   217  110  111 1    
   218  110  112 1    
   219  110  231 1    
   220  111  232 1    
   221  111  233 1    
   222  111  234 1    
   223  112  113 2    
   224  112  114 am   BACKBONE|DICT|INTERRES
   225  114  115 1    
   226  114  235 1    
   227  115  116 1    
   228  115  117 1    
   229  115  236 1    
   230  116  237 1    
   231  116  238 1    
   232  116  239 1    
   233  117  118 2    
   234  117  119 am   BACKBONE|DICT|INTERRES
   235  119  120 1    
   236  119  240 1    
   237  120  121 1    
   238  120  124 1    
   239  120  241 1    
   240  121  122 am   BACKBONE|DICT|INTERRES
   241  121  123 2    
   242  122  242 1    
   243  122  243 1    
   244  124  125 1    
   245  124  244 1    
   246  124  245 1    
   247  125  126 1    
   248  126  246 1    
   249  126  247 1    
@<TRIPOS>SUBSTRUCTURE
     1 UNK         1 GROUP             0       ****    0 ROOT    
