@<TRIPOS>MOLECULE
3R540
247   249    1
SMALL
USER_CHARGES


@<TRIPOS>ATOM
      1 CA          3.5474  -10.0658  -48.1170 C.3       0 UNK        -0.1800 
      2 C           2.7067  -10.9002  -47.1628 C.2       0 UNK         0.5000 
      3 O           2.9261  -10.8506  -45.9534 O.2       0 UNK        -0.5000 
      4 N           1.7328  -11.6487  -47.6974 N.am      1 UNK        -0.5000 
      5 CA          0.8452  -12.5793  -46.9799 C.3       1 UNK         0.1400 
      6 C6         -0.0938  -13.3245  -47.9600 C.3       23 UNK        -0.0398 
      7 S7          0.8223  -14.3557  -49.1553 S.3       23 UNK        -0.2404 
      8 C8         -0.2697  -15.8056  -49.2545 C.3       23 UNK        -0.0205 
      9 C9          0.2731  -16.8491  -50.2165 C.ar      23 UNK        -0.0193 
     10 C10        -0.0703  -16.8023  -51.5699 C.ar      23 UNK        -0.1150 
     11 C11         0.4121  -17.7683  -52.4561 C.ar      23 UNK        -0.0193 
     12 C12         1.2275  -18.7966  -51.9758 C.ar      23 UNK        -0.1150 
     13 C13         1.5813  -18.8598  -50.6242 C.ar      23 UNK        -0.0193 
     14 C14         1.1099  -17.8684  -49.7527 C.ar      23 UNK        -0.1150 
     15 C15         2.4917  -19.9969  -50.1553 C.3       23 UNK        -0.0205 
     16 S16         2.2841  -20.4950  -48.4105 S.3       23 UNK        -0.2404 
     17 C17         0.5109  -20.9163  -48.3542 C.3       23 UNK        -0.0398 
     18 CA          0.2230  -22.2018  -47.5455 C.3       11 UNK         0.1400 
     19 N           0.5593  -22.0761  -46.1226 N.am      11 UNK        -0.5000 
     20 C           0.5095  -23.0792  -45.2338 C.2       10 UNK         0.5000 
     21 O           0.2328  -24.2411  -45.5307 O.2       10 UNK        -0.5000 
     22 CA          0.7437  -22.7194  -43.7551 C.3       10 UNK         0.1400 
     23 CB          2.2415  -22.5914  -43.4403 C.3       10 UNK        -0.1800 
     24 N           0.0370  -21.4998  -43.3595 N.am      10 UNK        -0.5000 
     25 C          -1.2988  -21.3825  -43.3326 C.2       9 UNK         0.5000 
     26 O          -2.0683  -22.3088  -43.5875 O.2       9 UNK        -0.5000 
     27 CA         -1.8770  -19.9934  -43.0059 C.3       9 UNK         0.1400 
     28 CB         -1.9171  -19.7639  -41.4880 C.3       9 UNK        -0.1800 
     29 N          -1.1421  -18.9048  -43.6502 N.am      9 UNK        -0.5000 
     30 C          -1.0461  -18.7291  -44.9759 C.2       8 UNK         0.5000 
     31 O          -1.6155  -19.4395  -45.8038 O.2       8 UNK        -0.5000 
     32 CA         -0.1041  -17.6125  -45.4623 C.3       8 UNK         0.1400 
     33 CB         -0.7818  -16.2385  -45.3709 C.3       8 UNK        -0.1800 
     34 N           1.1627  -17.5834  -44.7314 N.am      8 UNK        -0.5000 
     35 C           2.0328  -18.6020  -44.6809 C.2       7 UNK         0.5000 
     36 O           1.8711  -19.6681  -45.2692 O.2       7 UNK        -0.5000 
     37 CA          3.2536  -18.4263  -43.7659 C.3       7 UNK         0.1400 
     38 CB          4.3395  -17.5848  -44.4520 C.3       7 UNK        -0.1800 
     39 N           2.8748  -17.8211  -42.4897 N.am      7 UNK        -0.5000 
     40 C           2.1598  -18.4510  -41.5460 C.2       6 UNK         0.5000 
     41 O           1.7984  -19.6250  -41.6321 O.2       6 UNK        -0.5000 
     42 CA          1.7453  -17.6157  -40.3207 C.3       6 UNK         0.1400 
     43 CB          2.8759  -17.5768  -39.2820 C.3       6 UNK        -0.1800 
     44 N           1.3652  -16.2475  -40.6774 N.am      6 UNK        -0.5000 
     45 C           0.2802  -15.9285  -41.3974 C.2       5 UNK         0.5000 
     46 O          -0.5372  -16.7551  -41.7997 O.2       5 UNK        -0.5000 
     47 CA          0.1015  -14.4447  -41.7671 C.3       5 UNK         0.1400 
     48 CB         -0.6843  -13.7018  -40.6772 C.3       5 UNK        -0.1800 
     49 N           1.3644  -13.7461  -42.0104 N.am      5 UNK        -0.5000 
     50 C           2.2382  -14.0441  -42.9801 C.2       4 UNK         0.5000 
     51 O           2.1035  -15.0034  -43.7420 O.2       4 UNK        -0.5000 
     52 CA          3.4549  -13.1061  -43.1112 C.3       4 UNK         0.1400 
     53 CB          4.3748  -13.4865  -44.2847 C.3       4 UNK        -0.1800 
     54 N           3.0361  -11.7161  -43.2806 N.am      4 UNK        -0.5000 
     55 C           2.6730  -10.8780  -42.3014 C.2       3 UNK         0.5000 
     56 O           2.6442  -11.1931  -41.1111 O.2       3 UNK        -0.5000 
     57 CA          2.2241   -9.4747  -42.7345 C.3       3 UNK         0.1400 
     58 CB          3.4258   -8.6254  -43.1788 C.3       3 UNK        -0.1800 
     59 N           1.2618   -9.5678  -43.8304 N.am      3 UNK        -0.5000 
     60 C          -0.0686   -9.6030  -43.6735 C.2       2 UNK         0.5000 
     61 O          -0.6335   -9.4851  -42.5855 O.2       2 UNK        -0.5000 
     62 CA         -0.9170   -9.8067  -44.9449 C.3       2 UNK         0.1400 
     63 CB         -1.3101   -8.4515  -45.5523 C.3       2 UNK        -0.1800 
     64 N          -0.2376  -10.6077  -45.9644 N.am      2 UNK        -0.5000 
     65 C           0.0141  -11.9200  -45.8556 C.2       1 UNK         0.5000 
     66 O          -0.3740  -12.6076  -44.9118 O.2       1 UNK        -0.5000 
     67 C          -1.2435  -22.6293  -47.7438 C.2       11 UNK         0.5000 
     68 O          -1.5001  -23.5509  -48.5172 O.2       11 UNK        -0.5000 
     69 N          -2.1712  -21.9824  -47.0226 N.am      12 UNK        -0.5000 
     70 CA         -3.6002  -22.2972  -47.0377 C.3       12 UNK         0.1400 
     71 CB         -4.3751  -21.2593  -46.2141 C.3       12 UNK        -0.1800 
     72 C          -3.9102  -23.7249  -46.5583 C.2       12 UNK         0.5000 
     73 O          -4.7792  -24.3718  -47.1355 O.2       12 UNK        -0.5000 
     74 N          -3.1817  -24.2063  -45.5429 N.am      13 UNK        -0.5000 
     75 CA         -3.2610  -25.5858  -45.0667 C.3       13 UNK         0.1400 
     76 CB         -2.5400  -25.7079  -43.7153 C.3       13 UNK        -0.1800 
     77 C          -2.6966  -26.5896  -46.0900 C.2       13 UNK         0.5000 
     78 O          -3.3489  -27.5942  -46.3781 O.2       13 UNK        -0.5000 
     79 N          -1.5027  -26.2974  -46.6253 N.am      14 UNK        -0.5000 
     80 CA         -0.7808  -27.1472  -47.5743 C.3       14 UNK         0.1400 
     81 CB          0.6429  -26.6029  -47.7671 C.3       14 UNK        -0.1800 
     82 C          -1.4891  -27.2944  -48.9327 C.2       14 UNK         0.5000 
     83 O          -1.5610  -28.4040  -49.4618 O.2       14 UNK        -0.5000 
     84 N          -2.0106  -26.1822  -49.4634 N.am      15 UNK        -0.5000 
     85 CA         -2.6873  -26.1032  -50.7587 C.3       15 UNK         0.1400 
     86 CB         -2.2211  -24.8289  -51.4845 C.3       15 UNK        -0.1800 
     87 C          -4.2219  -26.1621  -50.6217 C.2       15 UNK         0.5000 
     88 O          -4.9250  -25.6014  -51.4660 O.2       15 UNK        -0.5000 
     89 N          -4.7196  -26.8080  -49.5550 N.am      16 UNK        -0.5000 
     90 CA         -6.1207  -27.0769  -49.1837 C.3       16 UNK         0.1400 
     91 CB         -6.8124  -27.9518  -50.2460 C.3       16 UNK        -0.1800 
     92 C          -6.9760  -25.8340  -48.8552 C.2       16 UNK         0.5000 
     93 O          -7.7891  -25.8837  -47.9307 O.2       16 UNK        -0.5000 
     94 N          -6.7655  -24.7487  -49.6007 N.am      17 UNK        -0.5000 
     95 CA         -7.3081  -23.4137  -49.3733 C.3       17 UNK         0.1400 
     96 CB         -8.7089  -23.3058  -50.0005 C.3       17 UNK        -0.1800 
     97 C          -6.3763  -22.3137  -49.9172 C.2       17 UNK         0.5000 
     98 O          -6.5009  -21.1694  -49.4794 O.2       17 UNK        -0.5000 
     99 N          -5.4742  -22.6606  -50.8537 N.am      18 UNK        -0.5000 
    100 CA        -4.6215  -21.7539  -51.6324 C.3       18 UNK         0.1400 
    101 CB        -3.5823  -21.0348  -50.7415 C.3       18 UNK        -0.1800 
    102 C         -5.4517  -20.8034  -52.5246 C.2       18 UNK         0.5000 
    103 O         -6.5707  -21.1565  -52.9058 O.2       18 UNK        -0.5000 
    104 N         -4.8765  -19.6466  -52.8857 N.am      19 UNK        -0.5000 
    105 CA        -5.4168  -18.5699  -53.7298 C.3       19 UNK         0.1400 
    106 CB        -6.6903  -17.9528  -53.1197 C.3       19 UNK        -0.1800 
    107 C         -5.6298  -18.9761  -55.2010 C.2       19 UNK         0.5000 
    108 O         -5.0276  -18.3759  -56.0895 O.2       19 UNK        -0.5000 
    109 N         -6.4456  -20.0096  -55.4355 N.am      20 UNK        -0.5000 
    110 CA        -6.6720  -20.6237  -56.7454 C.3       20 UNK         0.1400 
    111 CB        -7.9474  -21.4773  -56.6819 C.3       20 UNK        -0.1800 
    112 C         -5.4733  -21.4749  -57.2083 C.2       20 UNK         0.5000 
    113 O         -5.2749  -21.6460  -58.4111 O.2       20 UNK        -0.5000 
    114 N         -4.6937  -21.9837  -56.2436 N.am      21 UNK        -0.5000 
    115 CA        -3.4693  -22.7543  -56.4672 C.3       21 UNK         0.1400 
    116 CB        -3.1427  -23.5369  -55.1850 C.3       21 UNK        -0.1800 
    117 C         -2.2669  -21.8786  -56.8752 C.2       21 UNK         0.5000 
    118 O         -1.2964  -22.4060  -57.4204 O.2       21 UNK        -0.5000 
    119 N         -2.3363  -20.5737  -56.5833 N.am      22 UNK        -0.5000 
    120 CA        -1.3039  -19.5776  -56.8985 C.3       22 UNK         0.1400 
    121 C         -1.1824  -19.3091  -58.4244 C.2       22 UNK         0.5000 
    122 N          0.0269  -19.1095  -58.9307 N.am      22 UNK        -0.7600 
    123 O         -2.1749  -19.2362  -59.1456 O.2       22 UNK        -0.5000 
    124 C124       -1.5478  -18.2529  -56.1338 C.3       23 UNK        -0.0398 
    125 S125       -1.5147  -18.4706  -54.3195 S.3       23 UNK        -0.2404 
    126 C126        0.0788  -17.6833  -53.9363 C.3       23 UNK        -0.0205 
    127 H127        3.2357  -10.1968  -49.1534 H         1 UNK         0.0600 
    128 H128        3.4612   -9.0089  -47.8653 H         1 UNK         0.0600 
    129 H129        4.5961  -10.3518  -48.0375 H         1 UNK         0.0600 
    130 H130        1.6153  -11.6433  -48.7008 H         1 UNK         0.3000 
    131 H131        1.4853  -13.3183  -46.4924 H         1 UNK         0.0600 
    132 H132       -0.7918  -13.9595  -47.4120 H         1 UNK         0.0800 
    133 H133       -0.7088  -12.6156  -48.5173 H         1 UNK         0.0800 
    134 H134       -1.2647  -15.4890  -49.5715 H         1 UNK         0.0800 
    135 H135       -0.3869  -16.2426  -48.2635 H         1 UNK         0.0800 
    136 H136       -0.7071  -16.0089  -51.9358 H         1 UNK         0.1150 
    137 H137        1.5976  -19.5457  -52.6621 H         1 UNK         0.1150 
    138 H138        1.3869  -17.8868  -48.7086 H         1 UNK         0.1150 
    139 H139        2.3360  -20.8789  -50.7787 H         1 UNK         0.0800 
    140 H140        3.5278  -19.6921  -50.3062 H         1 UNK         0.0800 
    141 H141        0.1511  -21.0298  -49.3789 H         1 UNK         0.0800 
    142 H142       -0.0298  -20.0665  -47.9352 H         1 UNK         0.0800 
    143 H143        0.8454  -23.0009  -47.9537 H         1 UNK         0.0600 
    144 H144        0.8595  -21.1565  -45.8061 H         1 UNK         0.3000 
    145 H145        0.3473  -23.5388  -43.1515 H         1 UNK         0.0600 
    146 H146        2.4054  -22.3799  -42.3836 H         1 UNK         0.0600 
    147 H147        2.7666  -23.5187  -43.6723 H         1 UNK         0.0600 
    148 H148        2.7139  -21.7971  -44.0169 H         1 UNK         0.0600 
    149 H149        0.6071  -20.7000  -43.1113 H         1 UNK         0.3000 
    150 H150       -2.9027  -19.9659  -43.3786 H         1 UNK         0.0600 
    151 H151       -2.4713  -20.5586  -40.9869 H         1 UNK         0.0600 
    152 H152       -2.4089  -18.8218  -41.2455 H         1 UNK         0.0600 
    153 H153       -0.9158  -19.7385  -41.0575 H         1 UNK         0.0600 
    154 H154       -0.6895  -18.2357  -43.0337 H         1 UNK         0.3000 
    155 H155        0.1322  -17.8112  -46.5090 H         1 UNK         0.0600 
    156 H156       -1.1110  -16.0167  -44.3565 H         1 UNK         0.0600 
    157 H157       -1.6599  -16.1925  -46.0159 H         1 UNK         0.0600 
    158 H158       -0.1020  -15.4444  -45.6786 H         1 UNK         0.0600 
    159 H159        1.3949  -16.7208  -44.2463 H         1 UNK         0.3000 
    160 H160        3.6711  -19.4151  -43.5641 H         1 UNK         0.0600 
    161 H161        5.1974  -17.4317  -43.7973 H         1 UNK         0.0600 
    162 H162        3.9646  -16.6074  -44.7539 H         1 UNK         0.0600 
    163 H163        4.7008  -18.0836  -45.3521 H         1 UNK         0.0600 
    164 H164        3.0783  -16.8395  -42.3738 H         1 UNK         0.3000 
    165 H165        0.8796  -18.1012  -39.8650 H         1 UNK         0.0600 
    166 H166        2.5637  -17.0517  -38.3792 H         1 UNK         0.0600 
    167 H167        3.1674  -18.5854  -38.9857 H         1 UNK         0.0600 
    168 H168        3.7652  -17.0788  -39.6703 H         1 UNK         0.0600 
    169 H169        1.9843  -15.5059  -40.3851 H         1 UNK         0.3000 
    170 H170       -0.4785  -14.4026  -42.6907 H         1 UNK         0.0600 
    171 H171       -1.6438  -14.1855  -40.4892 H         1 UNK         0.0600 
    172 H172       -0.1379  -13.6750  -39.7337 H         1 UNK         0.0600 
    173 H173       -0.8921  -12.6736  -40.9749 H         1 UNK         0.0600 
    174 H174        1.5582  -12.9313  -41.4391 H         1 UNK         0.3000 
    175 H175        4.0359  -13.1930  -42.1910 H         1 UNK         0.0600 
    176 H176        3.8389  -13.4865  -45.2348 H         1 UNK         0.0600 
    177 H177        5.2092  -12.7906  -44.3732 H         1 UNK         0.0600 
    178 H178        4.7989  -14.4802  -44.1419 H         1 UNK         0.0600 
    179 H179        3.0011  -11.3822  -44.2422 H         1 UNK         0.3000 
    180 H180        1.7668   -8.9830  -41.8732 H         1 UNK         0.0600 
    181 H181        3.9304   -9.0536  -44.0458 H         1 UNK         0.0600 
    182 H182        4.1617   -8.5426  -42.3780 H         1 UNK         0.0600 
    183 H183        3.1150   -7.6138  -43.4405 H         1 UNK         0.0600 
    184 H184        1.6480   -9.7405  -44.7510 H         1 UNK         0.3000 
    185 H185       -1.8312  -10.3280  -44.6529 H         1 UNK         0.0600 
    186 H186       -1.8416   -7.8371  -44.8244 H         1 UNK         0.0600 
    187 H187       -0.4357   -7.8884  -45.8810 H         1 UNK         0.0600 
    188 H188       -1.9699   -8.5801  -46.4106 H         1 UNK         0.0600 
    189 H189        0.1126  -10.1166  -46.7740 H         1 UNK         0.3000 
    190 H190       -1.8867  -21.2005  -46.4375 H         1 UNK         0.3000 
    191 H191       -3.9430  -22.2245  -48.0698 H         1 UNK         0.0600 
    192 H192       -4.0696  -21.2650  -45.1681 H         1 UNK         0.0600 
    193 H193       -5.4469  -21.4590  -46.2463 H         1 UNK         0.0600 
    194 H194       -4.2212  -20.2532  -46.6044 H         1 UNK         0.0600 
    195 H195       -2.5292  -23.5899  -45.0691 H         1 UNK         0.3000 
    196 H196       -4.3137  -25.8292  -44.9074 H         1 UNK         0.0600 
    197 H197       -2.6013  -26.7266  -43.3307 H         1 UNK         0.0600 
    198 H198       -2.9886  -25.0505  -42.9703 H         1 UNK         0.0600 
    199 H199       -1.4840  -25.4489  -43.7937 H         1 UNK         0.0600 
    200 H200       -1.0187  -25.4588  -46.3142 H         1 UNK         0.3000 
    201 H201       -0.7035  -28.1432  -47.1336 H         1 UNK         0.0600 
    202 H202        1.1903  -26.5898  -46.8245 H         1 UNK         0.0600 
    203 H203        0.6339  -25.5863  -48.1620 H         1 UNK         0.0600 
    204 H204        1.2093  -27.2225  -48.4635 H         1 UNK         0.0600 
    205 H205       -1.8967  -25.2993  -48.9677 H         1 UNK         0.3000 
    206 H206       -2.3980  -26.9537  -51.3789 H         1 UNK         0.0600 
    207 H207       -1.1345  -24.7949  -51.5643 H         1 UNK         0.0600 
    208 H208       -2.6208  -24.7830  -52.4978 H         1 UNK         0.0600 
    209 H209       -2.5451  -23.9311  -50.9602 H         1 UNK         0.0600 
    210 H210       -4.0417  -27.1617  -48.8932 H         1 UNK         0.3000 
    211 H211       -6.0660  -27.6610  -48.2636 H         1 UNK         0.0600 
    212 H212       -6.9106  -27.4332  -51.2001 H         1 UNK         0.0600 
    213 H213       -7.8160  -28.2328  -49.9244 H         1 UNK         0.0600 
    214 H214       -6.2571  -28.8734  -50.4201 H         1 UNK         0.0600 
    215 H215       -6.0839  -24.8565  -50.3449 H         1 UNK         0.3000 
    216 H216       -7.3899  -23.2512  -48.2964 H         1 UNK         0.0600 
    217 H217       -9.1332  -22.3136  -49.8418 H         1 UNK         0.0600 
    218 H218       -9.3976  -24.0272  -49.5605 H         1 UNK         0.0600 
    219 H219       -8.6784  -23.4825  -51.0763 H         1 UNK         0.0600 
    220 H220       -5.4642  -23.6158  -51.1859 H         1 UNK         0.3000 
    221 H221       -4.0697  -22.3945  -52.3200 H         1 UNK         0.0600 
    222 H222       -4.0468  -20.3157  -50.0662 H         1 UNK         0.0600 
    223 H223       -3.0265  -21.7491  -50.1369 H         1 UNK         0.0600 
    224 H224       -2.8436  -20.4990  -51.3384 H         1 UNK         0.0600 
    225 H225       -3.9413  -19.4728  -52.5442 H         1 UNK         0.3000 
    226 H226       -4.6534  -17.7900  -53.7319 H         1 UNK         0.0600 
    227 H227       -6.5058  -17.5953  -52.1067 H         1 UNK         0.0600 
    228 H228       -7.0282  -17.0996  -53.7090 H         1 UNK         0.0600 
    229 H229       -7.5153  -18.6642  -53.0768 H         1 UNK         0.0600 
    230 H230       -6.8513  -20.4740  -54.6263 H         1 UNK         0.3000 
    231 H231       -6.8235  -19.8314  -57.4816 H         1 UNK         0.0600 
    232 H232       -8.8136  -20.8714  -56.4150 H         1 UNK         0.0600 
    233 H233       -7.8591  -22.2784  -55.9469 H         1 UNK         0.0600 
    234 H234       -8.1584  -21.9379  -57.6479 H         1 UNK         0.0600 
    235 H235       -4.9525  -21.8066  -55.2853 H         1 UNK         0.3000 
    236 H236       -3.6495  -23.4705  -57.2717 H         1 UNK         0.0600 
    237 H237       -2.2846  -24.1928  -55.3374 H         1 UNK         0.0600 
    238 H238       -2.8977  -22.8686  -54.3592 H         1 UNK         0.0600 
    239 H239       -3.9789  -24.1649  -54.8763 H         1 UNK         0.0600 
    240 H240       -3.1866  -20.2124  -56.1788 H         1 UNK         0.3000 
    241 H241       -0.3503  -19.9864  -56.5578 H         1 UNK         0.0600 
    242 H242        0.1187  -18.9190  -59.9168 H         1 UNK         0.3800 
    243 H243        0.8568  -19.1590  -58.3597 H         1 UNK         0.3800 
    244 H244       -0.8015  -17.5085  -56.4170 H         1 UNK         0.0800 
    245 H245       -2.5095  -17.8217  -56.4129 H         1 UNK         0.0800 
    246 H246        0.8665  -18.1568  -54.5246 H         1 UNK         0.0800 
    247 H247        0.0499  -16.6373  -54.2457 H         1 UNK         0.0800 
@<TRIPOS>BOND
     1    1    2 1    
     2    1  127 1    
     3    1  128 1    
     4    1  129 1    
     5    2    3 2    
     6    2    4 am   BACKBONE|DICT|INTERRES
     7    4    5 1    
     8    4  130 1    
     9    5    6 1    
    10    5   65 1    
    11    5  131 1    
    12    6    7 1    
    13    6  132 1    
    14    6  133 1    
    15    7    8 1    
    16    8    9 1    
    17    8  134 1    
    18    8  135 1    
    19    9   10 ar   
    20    9   14 ar   
    21   10   11 ar   
    22   10  136 1    
    23   11   12 ar   
    24   11  126 1    
    25   12   13 ar   
    26   12  137 1    
    27   13   14 ar   
    28   13   15 1    
    29   14  138 1    
    30   15   16 1    
    31   15  139 1    
    32   15  140 1    
    33   16   17 1    
    34   17   18 1    
    35   17  141 1    
    36   17  142 1    
    37   18   19 1    
    38   18   67 1    
    39   18  143 1    
    40   19   20 am   BACKBONE|DICT|INTERRES
    41   19  144 1    
    42   20   21 2    
    43   20   22 1    
    44   22   23 1    
    45   22   24 1    
    46   22  145 1    
    47   23  146 1    
    48   23  147 1    
    49   23  148 1    
    50   24   25 am   BACKBONE|DICT|INTERRES
    51   24  149 1    
    52   25   26 2    
    53   25   27 1    
    54   27   28 1    
    55   27   29 1    
    56   27  150 1    
    57   28  151 1    
    58   28  152 1    
    59   28  153 1    
    60   29   30 am   BACKBONE|DICT|INTERRES
    61   29  154 1    
    62   30   31 2    
    63   30   32 1    
    64   32   33 1    
    65   32   34 1    
    66   32  155 1    
    67   33  156 1    
    68   33  157 1    
    69   33  158 1    
    70   34   35 am   BACKBONE|DICT|INTERRES
    71   34  159 1    
    72   35   36 2    
    73   35   37 1    
    74   37   38 1    
    75   37   39 1    
    76   37  160 1    
    77   38  161 1    
    78   38  162 1    
    79   38  163 1    
    80   39   40 am   BACKBONE|DICT|INTERRES
    81   39  164 1    
    82   40   41 2    
    83   40   42 1    
    84   42   43 1    
    85   42   44 1    
    86   42  165 1    
    87   43  166 1    
    88   43  167 1    
    89   43  168 1    
    90   44   45 am   BACKBONE|DICT|INTERRES
    91   44  169 1    
    92   45   46 2    
    93   45   47 1    
    94   47   48 1    
    95   47   49 1    
    96   47  170 1    
    97   48  171 1    
    98   48  172 1    
    99   48  173 1    
   100   49   50 am   BACKBONE|DICT|INTERRES
   101   49  174 1    
   102   50   51 2    
   103   50   52 1    
   104   52   53 1    
   105   52   54 1    
   106   52  175 1    
   107   53  176 1    
   108   53  177 1    
   109   53  178 1    
   110   54   55 am   BACKBONE|DICT|INTERRES
   111   54  179 1    
   112   55   56 2    
   113   55   57 1    
   114   57   58 1    
   115   57   59 1    
   116   57  180 1    
   117   58  181 1    
   118   58  182 1    
   119   58  183 1    
   120   59   60 am   BACKBONE|DICT|INTERRES
   121   59  184 1    
   122   60   61 2    
   123   60   62 1    
   124   62   63 1    
   125   62   64 1    
   126   62  185 1    
   127   63  186 1    
   128   63  187 1    
   129   63  188 1    
   130   64   65 am   BACKBONE|DICT|INTERRES
   131   64  189 1    
   132   65   66 2    
   133   67   68 2    
   134   67   69 am   BACKBONE|DICT|INTERRES
   135   69   70 1    
   136   69  190 1    
   137   70   71 1    
   138   70   72 1    
   139   70  191 1    
   140   71  192 1    
   141   71  193 1    
   142   71  194 1    
   143   72   73 2    
   144   72   74 am   BACKBONE|DICT|INTERRES
   145   74   75 1    
   146   74  195 1    
   147   75   76 1    
   148   75   77 1    
   149   75  196 1    
   150   76  197 1    
   151   76  198 1    
   152   76  199 1    
   153   77   78 2    
   154   77   79 am   BACKBONE|DICT|INTERRES
   155   79   80 1    
   156   79  200 1    
   157   80   81 1    
   158   80   82 1    
   159   80  201 1    
   160   81  202 1    
   161   81  203 1    
   162   81  204 1    
   163   82   83 2    
   164   82   84 am   BACKBONE|DICT|INTERRES
   165   84   85 1    
   166   84  205 1    
   167   85   86 1    
   168   85   87 1    
   169   85  206 1    
   170   86  207 1    
   171   86  208 1    
   172   86  209 1    
   173   87   88 2    
   174   87   89 am   BACKBONE|DICT|INTERRES
   175   89   90 1    
   176   89  210 1    
   177   90   91 1    
   178   90   92 1    
   179   90  211 1    
   180   91  212 1    
   181   91  213 1    
   182   91  214 1    
   183   92   93 2    
   184   92   94 am   BACKBONE|DICT|INTERRES
   185   94   95 1    
   186   94  215 1    
   187   95   96 1    
   188   95   97 1    
   189   95  216 1    
   190   96  217 1    
   191   96  218 1    
   192   96  219 1    
   193   97   98 2    
   194   97   99 am   BACKBONE|DICT|INTERRES
   195   99  100 1    
   196   99  220 1    
   197  100  101 1    
   198  100  102 1    
   199  100  221 1    
   200  101  222 1    
   201  101  223 1    
   202  101  224 1    
   203  102  103 2    
   204  102  104 am   BACKBONE|DICT|INTERRES
   205  104  105 1    
   206  104  225 1    
   207  105  106 1    
   208  105  107 1    
   209  105  226 1    
   210  106  227 1    
   211  106  228 1    
   212  106  229 1    
   213  107  108 2    
   214  107  109 am   BACKBONE|DICT|INTERRES
   215  109  110 1    
   216  109  230 1    
   217  110  111 1    
   218  110  112 1    
   219  110  231 1    
   220  111  232 1    
   221  111  233 1    
   222  111  234 1    
   223  112  113 2    
   224  112  114 am   BACKBONE|DICT|INTERRES
   225  114  115 1    
   226  114  235 1    
   227  115  116 1    
   228  115  117 1    
   229  115  236 1    
   230  116  237 1    
   231  116  238 1    
   232  116  239 1    
   233  117  118 2    
   234  117  119 am   BACKBONE|DICT|INTERRES
   235  119  120 1    
   236  119  240 1    
   237  120  121 1    
   238  120  124 1    
   239  120  241 1    
   240  121  122 am   BACKBONE|DICT|INTERRES
   241  121  123 2    
   242  122  242 1    
   243  122  243 1    
   244  124  125 1    
   245  124  244 1    
   246  124  245 1    
   247  125  126 1    
   248  126  246 1    
   249  126  247 1    
@<TRIPOS>SUBSTRUCTURE
     1 UNK         1 GROUP             0       ****    0 ROOT    
