@<TRIPOS>MOLECULE
3R540
247   249    1
SMALL
USER_CHARGES


@<TRIPOS>ATOM
      1 CA          2.8703  -13.4604  -52.0946 C.3       0 UNK        -0.1800 
      2 C           1.7357  -13.5040  -51.0809 C.2       0 UNK         0.5000 
      3 O           1.8679  -14.1496  -50.0413 O.2       0 UNK        -0.5000 
      4 N           0.6217  -12.8238  -51.3801 N.am      1 UNK        -0.5000 
      5 CA         -0.5491  -12.7250  -50.5057 C.3       1 UNK         0.1400 
      6 C6         -1.7844  -12.2116  -51.2915 C.3       23 UNK        -0.0398 
      7 S7         -3.3708  -12.5928  -50.4699 S.3       23 UNK        -0.2404 
      8 C8         -3.9094  -14.1017  -51.3362 C.3       23 UNK        -0.0205 
      9 C9         -2.9565  -15.2659  -51.1093 C.ar      23 UNK        -0.0193 
     10 C10        -1.9891  -15.5729  -52.0685 C.ar      23 UNK        -0.1150 
     11 C11        -1.1055  -16.6431  -51.8839 C.ar      23 UNK        -0.0193 
     12 C12        -1.2081  -17.4072  -50.7161 C.ar      23 UNK        -0.1150 
     13 C13        -2.1709  -17.1110  -49.7468 C.ar      23 UNK        -0.0193 
     14 C14        -3.0440  -16.0392  -49.9495 C.ar      23 UNK        -0.1150 
     15 C15        -2.2619  -17.9368  -48.4746 C.3       23 UNK        -0.0205 
     16 S16        -3.4813  -19.2694  -48.6167 S.3       23 UNK        -0.2404 
     17 C17        -3.4910  -19.8982  -46.9046 C.3       23 UNK        -0.0398 
     18 CA         -2.7494  -21.2506  -46.7695 C.3       11 UNK         0.1400 
     19 N          -1.2894  -21.1024  -46.6989 N.am      11 UNK        -0.5000 
     20 C          -0.4332  -22.1251  -46.8485 C.2       10 UNK         0.5000 
     21 O          -0.7846  -23.2827  -47.0713 O.2       10 UNK        -0.5000 
     22 CA          1.0557  -21.8147  -46.6398 C.3       10 UNK         0.1400 
     23 CB          1.6077  -20.9649  -47.7936 C.3       10 UNK        -0.1800 
     24 N           1.2838  -21.1428  -45.3601 N.am      10 UNK        -0.5000 
     25 C           1.1333  -21.7324  -44.1656 C.2       9 UNK         0.5000 
     26 O           0.7730  -22.9023  -44.0349 O.2       9 UNK        -0.5000 
     27 CA          1.3554  -20.8687  -42.9080 C.3       9 UNK         0.1400 
     28 CB          1.8865  -21.6774  -41.7061 C.3       9 UNK        -0.1800 
     29 N           2.1565  -19.6616  -43.1311 N.am      9 UNK        -0.5000 
     30 C           3.4592  -19.5839  -43.4428 C.2       8 UNK         0.5000 
     31 O           4.1830  -20.5643  -43.6157 O.2       8 UNK        -0.5000 
     32 CA          4.0636  -18.1764  -43.5859 C.3       8 UNK         0.1400 
     33 CB          4.1248  -17.7702  -45.0677 C.3       8 UNK        -0.1800 
     34 N           3.3312  -17.1712  -42.8102 N.am      8 UNK        -0.5000 
     35 C           3.8073  -15.9692  -42.4628 C.2       7 UNK         0.5000 
     36 O           4.9180  -15.5470  -42.7871 O.2       7 UNK        -0.5000 
     37 CA          2.8956  -15.1025  -41.5751 C.3       7 UNK         0.1400 
     38 CB          1.8264  -14.3874  -42.4173 C.3       7 UNK        -0.1800 
     39 N           2.2508  -15.8862  -40.5199 N.am      7 UNK        -0.5000 
     40 C           2.8783  -16.3826  -39.4447 C.2       6 UNK         0.5000 
     41 O           4.0681  -16.1748  -39.2040 O.2       6 UNK        -0.5000 
     42 CA          2.0741  -17.2820  -38.4801 C.3       6 UNK         0.1400 
     43 CB          1.5567  -16.4822  -37.2685 C.3       6 UNK        -0.1800 
     44 N           1.0044  -18.0668  -39.1149 N.am      6 UNK        -0.5000 
     45 C          -0.1480  -17.6359  -39.6430 C.2       5 UNK         0.5000 
     46 O          -0.5238  -16.4621  -39.6262 O.2       5 UNK        -0.5000 
     47 CA         -1.0015  -18.6988  -40.3617 C.3       5 UNK         0.1400 
     48 CB         -2.1727  -19.1350  -39.4684 C.3       5 UNK        -0.1800 
     49 N          -1.5270  -18.2248  -41.6464 N.am      5 UNK        -0.5000 
     50 C          -0.8042  -17.6836  -42.6375 C.2       4 UNK         0.5000 
     51 O           0.4271  -17.5873  -42.6106 O.2       4 UNK        -0.5000 
     52 CA         -1.5955  -17.1728  -43.8552 C.3       4 UNK         0.1400 
     53 CB         -2.6079  -16.0884  -43.4482 C.3       4 UNK        -0.1800 
     54 N          -0.7198  -16.6036  -44.8746 N.am      4 UNK        -0.5000 
     55 C          -0.0068  -17.2744  -45.7845 C.2       3 UNK         0.5000 
     56 O          -0.0209  -18.5036  -45.8911 O.2       3 UNK        -0.5000 
     57 CA          0.8061  -16.3981  -46.7670 C.3       3 UNK         0.1400 
     58 CB          1.5179  -17.2019  -47.8701 C.3       3 UNK        -0.1800 
     59 N          -0.0351  -15.3766  -47.3991 N.am      3 UNK        -0.5000 
     60 C          -0.4003  -14.2225  -46.8289 C.2       2 UNK         0.5000 
     61 O          -0.0145  -13.8632  -45.7145 O.2       2 UNK        -0.5000 
     62 CA         -1.3816  -13.3406  -47.6094 C.3       2 UNK         0.1400 
     63 CB         -2.5650  -12.9209  -46.7213 C.3       2 UNK        -0.1800 
     64 N          -0.6733  -12.1425  -48.0525 N.am      2 UNK        -0.5000 
     65 C          -0.2341  -11.8267  -49.2796 C.2       1 UNK         0.5000 
     66 O           0.4111  -10.7931  -49.4640 O.2       1 UNK        -0.5000 
     67 C          -3.3066  -22.0609  -45.5824 C.2       11 UNK         0.5000 
     68 O          -4.3329  -22.7190  -45.7466 O.2       11 UNK        -0.5000 
     69 N          -2.6246  -22.0290  -44.4292 N.am      12 UNK        -0.5000 
     70 CA         -2.9817  -22.8207  -43.2520 C.3       12 UNK         0.1400 
     71 CB         -2.2003  -22.3150  -42.0301 C.3       12 UNK        -0.1800 
     72 C          -2.7509  -24.3259  -43.4819 C.2       12 UNK         0.5000 
     73 O          -3.6350  -25.1275  -43.1797 O.2       12 UNK        -0.5000 
     74 N          -1.5848  -24.6768  -44.0423 N.am      13 UNK        -0.5000 
     75 CA         -1.2097  -26.0498  -44.3786 C.3       13 UNK         0.1400 
     76 CB          0.2997  -26.1095  -44.6588 C.3       13 UNK        -0.1800 
     77 C          -2.0023  -26.6100  -45.5730 C.2       13 UNK         0.5000 
     78 O          -2.4331  -27.7629  -45.5291 O.2       13 UNK        -0.5000 
     79 N          -2.1790  -25.7889  -46.6168 N.am      14 UNK        -0.5000 
     80 CA         -2.8367  -26.1724  -47.8677 C.3       14 UNK         0.1400 
     81 CB         -2.3307  -25.2518  -48.9874 C.3       14 UNK        -0.1800 
     82 C          -4.3756  -26.1340  -47.8077 C.2       14 UNK         0.5000 
     83 O          -5.0125  -26.5810  -48.7609 O.2       14 UNK        -0.5000 
     84 N          -4.9462  -25.5749  -46.7297 N.am      15 UNK        -0.5000 
     85 CA         -6.3771  -25.3153  -46.5253 C.3       15 UNK         0.1400 
     86 CB         -7.1733  -26.6321  -46.4116 C.3       15 UNK        -0.1800 
     87 C          -6.9302  -24.3524  -47.5973 C.2       15 UNK         0.5000 
     88 O          -7.8738  -24.6804  -48.3175 O.2       15 UNK        -0.5000 
     89 N          -6.2702  -23.1911  -47.6993 N.am      16 UNK        -0.5000 
     90 CA         -6.4960  -22.0661  -48.6154 C.3       16 UNK         0.1400 
     91 CB         -7.9322  -21.5198  -48.4968 C.3       16 UNK        -0.1800 
     92 C          -6.1036  -22.3199  -50.0855 C.2       16 UNK         0.5000 
     93 O          -6.0762  -21.3650  -50.8621 O.2       16 UNK        -0.5000 
     94 N          -5.7627  -23.5635  -50.4557 N.am      17 UNK        -0.5000 
     95 CA         -5.4058  -23.9508  -51.8260 C.3       17 UNK         0.1400 
     96 CB         -5.3594  -25.4816  -51.9324 C.3       17 UNK        -0.1800 
     97 C          -4.0914  -23.3265  -52.3369 C.2       17 UNK         0.5000 
     98 O          -3.9023  -23.2307  -53.5498 O.2       17 UNK        -0.5000 
     99 N          -3.2269  -22.8719  -51.4163 N.am      18 UNK        -0.5000 
    100 CA        -1.9808  -22.1589  -51.7125 C.3       18 UNK         0.1400 
    101 CB        -1.1703  -21.9672  -50.4227 C.3       18 UNK        -0.1800 
    102 C         -2.1919  -20.8046  -52.4151 C.2       18 UNK         0.5000 
    103 O         -1.2741  -20.3362  -53.0867 O.2       18 UNK        -0.5000 
    104 N         -3.3959  -20.2217  -52.3000 N.am      19 UNK        -0.5000 
    105 CA        -3.7949  -18.9857  -52.9770 C.3       19 UNK         0.1400 
    106 CB        -5.1977  -18.5772  -52.5082 C.3       19 UNK        -0.1800 
    107 C         -3.7294  -19.0690  -54.5149 C.2       19 UNK         0.5000 
    108 O         -3.5133  -18.0468  -55.1661 O.2       19 UNK        -0.5000 
    109 N         -3.8667  -20.2842  -55.0673 N.am      20 UNK        -0.5000 
    110 CA        -3.7428  -20.5713  -56.4964 C.3       20 UNK         0.1400 
    111 CB        -4.1938  -22.0150  -56.7615 C.3       20 UNK        -0.1800 
    112 C         -2.3227  -20.3414  -57.0505 C.2       20 UNK         0.5000 
    113 O         -2.1873  -20.0082  -58.2285 O.2       20 UNK        -0.5000 
    114 N         -1.2910  -20.4797  -56.2016 N.am      21 UNK        -0.5000 
    115 CA         0.1141  -20.2577  -56.5645 C.3       21 UNK         0.1400 
    116 CB         1.0215  -20.7870  -55.4435 C.3       21 UNK        -0.1800 
    117 C          0.4364  -18.7806  -56.8666 C.2       21 UNK         0.5000 
    118 O          1.3945  -18.5023  -57.5885 O.2       21 UNK        -0.5000 
    119 N         -0.3837  -17.8720  -56.3283 N.am      22 UNK        -0.5000 
    120 CA        -0.3570  -16.4286  -56.5954 C.3       22 UNK         0.1400 
    121 C         -1.2163  -16.0151  -57.8291 C.2       22 UNK         0.5000 
    122 N         -1.8662  -16.9289  -58.5426 N.am      22 UNK        -0.7600 
    123 O         -1.2809  -14.8352  -58.1634 O.2       22 UNK        -0.5000 
    124 C124       -0.7518  -15.6301  -55.3268 C.3       23 UNK        -0.0398 
    125 S125        0.5286  -15.7095  -54.0232 S.3       23 UNK        -0.2404 
    126 C126       -0.0760  -17.0502  -52.9392 C.3       23 UNK        -0.0205 
    127 H127        2.5958  -12.8960  -52.9861 H         1 UNK         0.0600 
    128 H128        3.1343  -14.4720  -52.4032 H         1 UNK         0.0600 
    129 H129        3.7515  -12.9955  -51.6528 H         1 UNK         0.0600 
    130 H130        0.5860  -12.2837  -52.2321 H         1 UNK         0.3000 
    131 H131       -0.7376  -13.7497  -50.1941 H         1 UNK         0.0600 
    132 H132       -1.8064  -12.6486  -52.2903 H         1 UNK         0.0800 
    133 H133       -1.7244  -11.1334  -51.4513 H         1 UNK         0.0800 
    134 H134       -4.0149  -13.8919  -52.4018 H         1 UNK         0.0800 
    135 H135       -4.9048  -14.3741  -50.9825 H         1 UNK         0.0800 
    136 H136       -1.9378  -14.9682  -52.9594 H         1 UNK         0.1150 
    137 H137       -0.5463  -18.2495  -50.5695 H         1 UNK         0.1150 
    138 H138       -3.7931  -15.8070  -49.2053 H         1 UNK         0.1150 
    139 H139       -1.2985  -18.3891  -48.2470 H         1 UNK         0.0800 
    140 H140       -2.5181  -17.2898  -47.6343 H         1 UNK         0.0800 
    141 H141       -4.5428  -19.9942  -46.6278 H         1 UNK         0.0800 
    142 H142       -3.0761  -19.1575  -46.2202 H         1 UNK         0.0800 
    143 H143       -2.9762  -21.8470  -47.6559 H         1 UNK         0.0600 
    144 H144       -0.9178  -20.1816  -46.4838 H         1 UNK         0.3000 
    145 H145        1.6006  -22.7611  -46.6267 H         1 UNK         0.0600 
    146 H146        2.6496  -20.6929  -47.6243 H         1 UNK         0.0600 
    147 H147        1.5635  -21.5164  -48.7333 H         1 UNK         0.0600 
    148 H148        1.0361  -20.0481  -47.9307 H         1 UNK         0.0600 
    149 H149        1.4796  -20.1517  -45.3931 H         1 UNK         0.3000 
    150 H150        0.3623  -20.5115  -42.6381 H         1 UNK         0.0600 
    151 H151        1.1994  -22.4786  -41.4328 H         1 UNK         0.0600 
    152 H152        2.0086  -21.0442  -40.8277 H         1 UNK         0.0600 
    153 H153        2.8495  -22.1399  -41.9229 H         1 UNK         0.0600 
    154 H154        1.6213  -18.7999  -43.0524 H         1 UNK         0.3000 
    155 H155        5.0826  -18.2328  -43.1973 H         1 UNK         0.0600 
    156 H156        3.1243  -17.6174  -45.4633 H         1 UNK         0.0600 
    157 H157        4.6078  -18.5396  -45.6716 H         1 UNK         0.0600 
    158 H158        4.6868  -16.8474  -45.2101 H         1 UNK         0.0600 
    159 H159        2.3975  -17.4148  -42.4989 H         1 UNK         0.3000 
    160 H160        3.5165  -14.3387  -41.1022 H         1 UNK         0.0600 
    161 H161        1.1701  -15.0900  -42.9300 H         1 UNK         0.0600 
    162 H162        2.2879  -13.7603  -43.1811 H         1 UNK         0.0600 
    163 H163        1.2044  -13.7406  -41.7985 H         1 UNK         0.0600 
    164 H164        1.2615  -16.0797  -40.6254 H         1 UNK         0.3000 
    165 H165        2.7806  -18.0204  -38.0977 H         1 UNK         0.0600 
    166 H166        0.8871  -15.6746  -37.5649 H         1 UNK         0.0600 
    167 H167        1.0211  -17.1250  -36.5700 H         1 UNK         0.0600 
    168 H168        2.3851  -16.0288  -36.7229 H         1 UNK         0.0600 
    169 H169        1.2162  -19.0507  -39.2035 H         1 UNK         0.3000 
    170 H170       -0.3795  -19.5724  -40.5630 H         1 UNK         0.0600 
    171 H171       -2.8435  -18.3023  -39.2525 H         1 UNK         0.0600 
    172 H172       -2.7603  -19.9252  -39.9348 H         1 UNK         0.0600 
    173 H173       -1.8129  -19.5213  -38.5138 H         1 UNK         0.0600 
    174 H174       -2.5318  -18.2389  -41.7373 H         1 UNK         0.3000 
    175 H175       -2.1349  -18.0189  -44.2839 H         1 UNK         0.0600 
    176 H176       -2.1158  -15.2418  -42.9671 H         1 UNK         0.0600 
    177 H177       -3.1479  -15.7097  -44.3164 H         1 UNK         0.0600 
    178 H178       -3.3542  -16.4738  -42.7530 H         1 UNK         0.0600 
    179 H179       -0.6050  -15.5963  -44.8547 H         1 UNK         0.3000 
    180 H180        1.5789  -15.9016  -46.1765 H         1 UNK         0.0600 
    181 H181        2.1727  -16.5570  -48.4565 H         1 UNK         0.0600 
    182 H182        0.8163  -17.6658  -48.5599 H         1 UNK         0.0600 
    183 H183        2.1397  -17.9939  -47.4554 H         1 UNK         0.0600 
    184 H184       -0.3752  -15.5985  -48.3234 H         1 UNK         0.3000 
    185 H185       -1.8030  -13.9179  -48.4278 H         1 UNK         0.0600 
    186 H186       -3.2836  -12.3240  -47.2832 H         1 UNK         0.0600 
    187 H187       -3.0963  -13.7947  -46.3416 H         1 UNK         0.0600 
    188 H188       -2.2441  -12.3315  -45.8614 H         1 UNK         0.0600 
    189 H189       -0.4066  -11.5279  -47.2972 H         1 UNK         0.3000 
    190 H190       -1.7748  -21.4894  -44.3853 H         1 UNK         0.3000 
    191 H191       -4.0455  -22.6700  -43.0547 H         1 UNK         0.0600 
    192 H192       -2.5479  -22.8038  -41.1193 H         1 UNK         0.0600 
    193 H193       -2.3312  -21.2420  -41.8955 H         1 UNK         0.0600 
    194 H194       -1.1339  -22.5161  -42.1181 H         1 UNK         0.0600 
    195 H195       -0.8855  -23.9640  -44.2274 H         1 UNK         0.3000 
    196 H196       -1.4179  -26.6826  -43.5132 H         1 UNK         0.0600 
    197 H197        0.5797  -25.4640  -45.4926 H         1 UNK         0.0600 
    198 H198        0.8739  -25.7947  -43.7873 H         1 UNK         0.0600 
    199 H199        0.6133  -27.1243  -44.9067 H         1 UNK         0.0600 
    200 H200       -1.7493  -24.8671  -46.5987 H         1 UNK         0.3000 
    201 H201       -2.5461  -27.1952  -48.1168 H         1 UNK         0.0600 
    202 H202       -2.7059  -25.5675  -49.9602 H         1 UNK         0.0600 
    203 H203       -2.6491  -24.2220  -48.8259 H         1 UNK         0.0600 
    204 H204       -1.2422  -25.2630  -49.0459 H         1 UNK         0.0600 
    205 H205       -4.3316  -25.2038  -46.0178 H         1 UNK         0.3000 
    206 H206       -6.4628  -24.7974  -45.5686 H         1 UNK         0.0600 
    207 H207       -6.7615  -27.2739  -45.6328 H         1 UNK         0.0600 
    208 H208       -8.2141  -26.4341  -46.1533 H         1 UNK         0.0600 
    209 H209       -7.1722  -27.1953  -47.3451 H         1 UNK         0.0600 
    210 H210       -5.5151  -23.0480  -47.0295 H         1 UNK         0.3000 
    211 H211       -5.8272  -21.2783  -48.2699 H         1 UNK         0.0600 
    212 H212       -8.0427  -20.5921  -49.0598 H         1 UNK         0.0600 
    213 H213       -8.1871  -21.3009  -47.4600 H         1 UNK         0.0600 
    214 H214       -8.6698  -22.2223  -48.8850 H         1 UNK         0.0600 
    215 H215       -5.8319  -24.3079  -49.7751 H         1 UNK         0.3000 
    216 H216       -6.2024  -23.5961  -52.4834 H         1 UNK         0.0600 
    217 H217       -4.5575  -25.9056  -51.3298 H         1 UNK         0.0600 
    218 H218       -5.1919  -25.7952  -52.9636 H         1 UNK         0.0600 
    219 H219       -6.2975  -25.9301  -51.6049 H         1 UNK         0.0600 
    220 H220       -3.4731  -22.9760  -50.4448 H         1 UNK         0.3000 
    221 H221       -1.3951  -22.7829  -52.3906 H         1 UNK         0.0600 
    222 H222       -0.8919  -22.9231  -49.9814 H         1 UNK         0.0600 
    223 H223       -1.7262  -21.3978  -49.6800 H         1 UNK         0.0600 
    224 H224       -0.2445  -21.4251  -50.6198 H         1 UNK         0.0600 
    225 H225       -4.1060  -20.6710  -51.7351 H         1 UNK         0.3000 
    226 H226       -3.1026  -18.2057  -52.6706 H         1 UNK         0.0600 
    227 H227       -5.9449  -19.3246  -52.7771 H         1 UNK         0.0600 
    228 H228       -5.2265  -18.4461  -51.4260 H         1 UNK         0.0600 
    229 H229       -5.4991  -17.6303  -52.9579 H         1 UNK         0.0600 
    230 H230       -4.0115  -21.0799  -54.4586 H         1 UNK         0.3000 
    231 H231       -4.4171  -19.8994  -57.0314 H         1 UNK         0.0600 
    232 H232       -3.5501  -22.7360  -56.2560 H         1 UNK         0.0600 
    233 H233       -4.1674  -22.2429  -57.8278 H         1 UNK         0.0600 
    234 H234       -5.2155  -22.1800  -56.4189 H         1 UNK         0.0600 
    235 H235       -1.4759  -20.6955  -55.2292 H         1 UNK         0.3000 
    236 H236        0.3214  -20.8326  -57.4694 H         1 UNK         0.0600 
    237 H237        0.9187  -20.1995  -54.5307 H         1 UNK         0.0600 
    238 H238        0.7942  -21.8258  -55.2040 H         1 UNK         0.0600 
    239 H239        2.0700  -20.7429  -55.7405 H         1 UNK         0.0600 
    240 H240       -1.1674  -18.2005  -55.7815 H         1 UNK         0.3000 
    241 H241        0.6638  -16.1428  -56.8558 H         1 UNK         0.0600 
    242 H242       -2.4074  -16.6337  -59.3398 H         1 UNK         0.3800 
    243 H243       -1.8212  -17.9127  -58.3100 H         1 UNK         0.3800 
    244 H244       -1.7107  -15.9825  -54.9455 H         1 UNK         0.0800 
    245 H245       -0.8894  -14.5729  -55.5595 H         1 UNK         0.0800 
    246 H246       -0.4961  -17.8489  -53.5491 H         1 UNK         0.0800 
    247 H247        0.7946  -17.4773  -52.4394 H         1 UNK         0.0800 
@<TRIPOS>BOND
     1    1    2 1    
     2    1  127 1    
     3    1  128 1    
     4    1  129 1    
     5    2    3 2    
     6    2    4 am   BACKBONE|DICT|INTERRES
     7    4    5 1    
     8    4  130 1    
     9    5    6 1    
    10    5   65 1    
    11    5  131 1    
    12    6    7 1    
    13    6  132 1    
    14    6  133 1    
    15    7    8 1    
    16    8    9 1    
    17    8  134 1    
    18    8  135 1    
    19    9   10 ar   
    20    9   14 ar   
    21   10   11 ar   
    22   10  136 1    
    23   11   12 ar   
    24   11  126 1    
    25   12   13 ar   
    26   12  137 1    
    27   13   14 ar   
    28   13   15 1    
    29   14  138 1    
    30   15   16 1    
    31   15  139 1    
    32   15  140 1    
    33   16   17 1    
    34   17   18 1    
    35   17  141 1    
    36   17  142 1    
    37   18   19 1    
    38   18   67 1    
    39   18  143 1    
    40   19   20 am   BACKBONE|DICT|INTERRES
    41   19  144 1    
    42   20   21 2    
    43   20   22 1    
    44   22   23 1    
    45   22   24 1    
    46   22  145 1    
    47   23  146 1    
    48   23  147 1    
    49   23  148 1    
    50   24   25 am   BACKBONE|DICT|INTERRES
    51   24  149 1    
    52   25   26 2    
    53   25   27 1    
    54   27   28 1    
    55   27   29 1    
    56   27  150 1    
    57   28  151 1    
    58   28  152 1    
    59   28  153 1    
    60   29   30 am   BACKBONE|DICT|INTERRES
    61   29  154 1    
    62   30   31 2    
    63   30   32 1    
    64   32   33 1    
    65   32   34 1    
    66   32  155 1    
    67   33  156 1    
    68   33  157 1    
    69   33  158 1    
    70   34   35 am   BACKBONE|DICT|INTERRES
    71   34  159 1    
    72   35   36 2    
    73   35   37 1    
    74   37   38 1    
    75   37   39 1    
    76   37  160 1    
    77   38  161 1    
    78   38  162 1    
    79   38  163 1    
    80   39   40 am   BACKBONE|DICT|INTERRES
    81   39  164 1    
    82   40   41 2    
    83   40   42 1    
    84   42   43 1    
    85   42   44 1    
    86   42  165 1    
    87   43  166 1    
    88   43  167 1    
    89   43  168 1    
    90   44   45 am   BACKBONE|DICT|INTERRES
    91   44  169 1    
    92   45   46 2    
    93   45   47 1    
    94   47   48 1    
    95   47   49 1    
    96   47  170 1    
    97   48  171 1    
    98   48  172 1    
    99   48  173 1    
   100   49   50 am   BACKBONE|DICT|INTERRES
   101   49  174 1    
   102   50   51 2    
   103   50   52 1    
   104   52   53 1    
   105   52   54 1    
   106   52  175 1    
   107   53  176 1    
   108   53  177 1    
   109   53  178 1    
   110   54   55 am   BACKBONE|DICT|INTERRES
   111   54  179 1    
   112   55   56 2    
   113   55   57 1    
   114   57   58 1    
   115   57   59 1    
   116   57  180 1    
   117   58  181 1    
   118   58  182 1    
   119   58  183 1    
   120   59   60 am   BACKBONE|DICT|INTERRES
   121   59  184 1    
   122   60   61 2    
   123   60   62 1    
   124   62   63 1    
   125   62   64 1    
   126   62  185 1    
   127   63  186 1    
   128   63  187 1    
   129   63  188 1    
   130   64   65 am   BACKBONE|DICT|INTERRES
   131   64  189 1    
   132   65   66 2    
   133   67   68 2    
   134   67   69 am   BACKBONE|DICT|INTERRES
   135   69   70 1    
   136   69  190 1    
   137   70   71 1    
   138   70   72 1    
   139   70  191 1    
   140   71  192 1    
   141   71  193 1    
   142   71  194 1    
   143   72   73 2    
   144   72   74 am   BACKBONE|DICT|INTERRES
   145   74   75 1    
   146   74  195 1    
   147   75   76 1    
   148   75   77 1    
   149   75  196 1    
   150   76  197 1    
   151   76  198 1    
   152   76  199 1    
   153   77   78 2    
   154   77   79 am   BACKBONE|DICT|INTERRES
   155   79   80 1    
   156   79  200 1    
   157   80   81 1    
   158   80   82 1    
   159   80  201 1    
   160   81  202 1    
   161   81  203 1    
   162   81  204 1    
   163   82   83 2    
   164   82   84 am   BACKBONE|DICT|INTERRES
   165   84   85 1    
   166   84  205 1    
   167   85   86 1    
   168   85   87 1    
   169   85  206 1    
   170   86  207 1    
   171   86  208 1    
   172   86  209 1    
   173   87   88 2    
   174   87   89 am   BACKBONE|DICT|INTERRES
   175   89   90 1    
   176   89  210 1    
   177   90   91 1    
   178   90   92 1    
   179   90  211 1    
   180   91  212 1    
   181   91  213 1    
   182   91  214 1    
   183   92   93 2    
   184   92   94 am   BACKBONE|DICT|INTERRES
   185   94   95 1    
   186   94  215 1    
   187   95   96 1    
   188   95   97 1    
   189   95  216 1    
   190   96  217 1    
   191   96  218 1    
   192   96  219 1    
   193   97   98 2    
   194   97   99 am   BACKBONE|DICT|INTERRES
   195   99  100 1    
   196   99  220 1    
   197  100  101 1    
   198  100  102 1    
   199  100  221 1    
   200  101  222 1    
   201  101  223 1    
   202  101  224 1    
   203  102  103 2    
   204  102  104 am   BACKBONE|DICT|INTERRES
   205  104  105 1    
   206  104  225 1    
   207  105  106 1    
   208  105  107 1    
   209  105  226 1    
   210  106  227 1    
   211  106  228 1    
   212  106  229 1    
   213  107  108 2    
   214  107  109 am   BACKBONE|DICT|INTERRES
   215  109  110 1    
   216  109  230 1    
   217  110  111 1    
   218  110  112 1    
   219  110  231 1    
   220  111  232 1    
   221  111  233 1    
   222  111  234 1    
   223  112  113 2    
   224  112  114 am   BACKBONE|DICT|INTERRES
   225  114  115 1    
   226  114  235 1    
   227  115  116 1    
   228  115  117 1    
   229  115  236 1    
   230  116  237 1    
   231  116  238 1    
   232  116  239 1    
   233  117  118 2    
   234  117  119 am   BACKBONE|DICT|INTERRES
   235  119  120 1    
   236  119  240 1    
   237  120  121 1    
   238  120  124 1    
   239  120  241 1    
   240  121  122 am   BACKBONE|DICT|INTERRES
   241  121  123 2    
   242  122  242 1    
   243  122  243 1    
   244  124  125 1    
   245  124  244 1    
   246  124  245 1    
   247  125  126 1    
   248  126  246 1    
   249  126  247 1    
@<TRIPOS>SUBSTRUCTURE
     1 UNK         1 GROUP             0       ****    0 ROOT    
