@<TRIPOS>MOLECULE
3R540
247   249    1
SMALL
USER_CHARGES


@<TRIPOS>ATOM
      1 CA         -4.7032  -14.4278  -44.4198 C.3       0 UNK        -0.1800 
      2 C          -3.9202  -13.3390  -45.1391 C.2       0 UNK         0.5000 
      3 O          -4.4767  -12.2893  -45.4578 O.2       0 UNK        -0.5000 
      4 N          -2.6283  -13.5826  -45.3914 N.am      1 UNK        -0.5000 
      5 CA         -1.7170  -12.6983  -46.1340 C.3       1 UNK         0.1400 
      6 C6         -0.6282  -13.4948  -46.9024 C.3       23 UNK        -0.0398 
      7 S7         -1.1901  -14.8708  -47.9663 S.3       23 UNK        -0.2404 
      8 C8         -2.7651  -14.2846  -48.6645 C.3       23 UNK        -0.0205 
      9 C9         -3.2331  -15.2037  -49.7790 C.ar      23 UNK        -0.0193 
     10 C10        -3.1652  -14.7848  -51.1099 C.ar      23 UNK        -0.1150 
     11 C11        -3.5660  -15.6346  -52.1445 C.ar      23 UNK        -0.0193 
     12 C12        -4.0538  -16.9071  -51.8350 C.ar      23 UNK        -0.1150 
     13 C13        -4.1158  -17.3422  -50.5078 C.ar      23 UNK        -0.0193 
     14 C14        -3.7173  -16.4811  -49.4821 C.ar      23 UNK        -0.1150 
     15 C15        -4.5881  -18.7522  -50.1939 C.3       23 UNK        -0.0205 
     16 S16        -3.2190  -19.9419  -50.3357 S.3       23 UNK        -0.2404 
     17 C17        -2.3838  -19.7710  -48.7212 C.3       23 UNK        -0.0398 
     18 CA         -2.1668  -21.1475  -48.0454 C.3       11 UNK         0.1400 
     19 N          -0.9223  -21.2054  -47.2769 N.am      11 UNK        -0.5000 
     20 C          -0.3333  -22.3510  -46.9072 C.2       10 UNK         0.5000 
     21 O          -0.7913  -23.4658  -47.1584 O.2       10 UNK        -0.5000 
     22 CA          0.9649  -22.2356  -46.0919 C.3       10 UNK         0.1400 
     23 CB          2.1425  -21.8457  -46.9978 C.3       10 UNK        -0.1800 
     24 N           0.8546  -21.2915  -44.9795 N.am      10 UNK        -0.5000 
     25 C           0.0030  -21.4321  -43.9529 C.2       9 UNK         0.5000 
     26 O          -0.7755  -22.3770  -43.8330 O.2       9 UNK        -0.5000 
     27 CA         -0.0137  -20.3137  -42.8987 C.3       9 UNK         0.1400 
     28 CB          1.1793  -20.4508  -41.9411 C.3       9 UNK        -0.1800 
     29 N          -0.0211  -18.9774  -43.4899 N.am      9 UNK        -0.5000 
     30 C          -0.9887  -18.4958  -44.2838 C.2       8 UNK         0.5000 
     31 O          -1.9977  -19.1231  -44.6031 O.2       8 UNK        -0.5000 
     32 CA         -0.7576  -17.0920  -44.8663 C.3       8 UNK         0.1400 
     33 CB         -0.9159  -16.0160  -43.7787 C.3       8 UNK        -0.1800 
     34 N           0.5578  -16.9712  -45.4919 N.am      8 UNK        -0.5000 
     35 C           0.9984  -17.7286  -46.5081 C.2       7 UNK         0.5000 
     36 O           0.3300  -18.6003  -47.0648 O.2       7 UNK        -0.5000 
     37 CA          2.4588  -17.5118  -46.9323 C.3       7 UNK         0.1400 
     38 CB          2.5807  -16.3005  -47.8693 C.3       7 UNK        -0.1800 
     39 N           3.3361  -17.3391  -45.7733 N.am      7 UNK        -0.5000 
     40 C           3.6339  -18.3133  -44.9007 C.2       6 UNK         0.5000 
     41 O           3.2298  -19.4716  -45.0022 O.2       6 UNK        -0.5000 
     42 CA          4.4919  -17.9134  -43.6867 C.3       6 UNK         0.1400 
     43 CB          5.9778  -17.8399  -44.0689 C.3       6 UNK        -0.1800 
     44 N           4.0744  -16.6382  -43.1024 N.am      6 UNK        -0.5000 
     45 C           2.8974  -16.4378  -42.4934 C.2       5 UNK         0.5000 
     46 O           2.0574  -17.3208  -42.3257 O.2       5 UNK        -0.5000 
     47 CA          2.5865  -15.0032  -42.0286 C.3       5 UNK         0.1400 
     48 CB          3.0990  -14.7748  -40.5995 C.3       5 UNK        -0.1800 
     49 N           3.1220  -13.9583  -42.9038 N.am      5 UNK        -0.5000 
     50 C           2.8365  -13.8051  -44.2031 C.2       4 UNK         0.5000 
     51 O           2.1438  -14.5970  -44.8437 O.2       4 UNK        -0.5000 
     52 CA          3.4049  -12.5392  -44.8738 C.3       4 UNK         0.1400 
     53 CB          3.1600  -12.4999  -46.3913 C.3       4 UNK        -0.1800 
     54 N           2.8307  -11.3398  -44.2637 N.am      4 UNK        -0.5000 
     55 C           3.2625  -10.7834  -43.1229 C.2       3 UNK         0.5000 
     56 O           4.2399  -11.1975  -42.4970 O.2       3 UNK        -0.5000 
     57 CA          2.4606   -9.5930  -42.5632 C.3       3 UNK         0.1400 
     58 CB          3.0924   -8.2646  -43.0061 C.3       3 UNK        -0.1800 
     59 N           1.0469   -9.5980  -42.9433 N.am      3 UNK        -0.5000 
     60 C           0.1444  -10.5165  -42.5713 C.2       2 UNK         0.5000 
     61 O           0.4076  -11.4866  -41.8591 O.2       2 UNK        -0.5000 
     62 CA         -1.3007  -10.3281  -43.0765 C.3       2 UNK         0.1400 
     63 CB         -1.6014   -8.9125  -43.6203 C.3       2 UNK        -0.1800 
     64 N          -1.6746  -11.3427  -44.0650 N.am      2 UNK        -0.5000 
     65 C          -1.0805  -11.6028  -45.2399 C.2       1 UNK         0.5000 
     66 O          -0.0684  -11.0153  -45.6282 O.2       1 UNK        -0.5000 
     67 C          -3.3852  -21.6270  -47.2295 C.2       11 UNK         0.5000 
     68 O          -4.2582  -22.2913  -47.7905 O.2       11 UNK        -0.5000 
     69 N          -3.4000  -21.3472  -45.9169 N.am      12 UNK        -0.5000 
     70 CA         -4.3934  -21.8695  -44.9776 C.3       12 UNK         0.1400 
     71 CB         -4.2648  -21.1597  -43.6218 C.3       12 UNK        -0.1800 
     72 C          -4.2954  -23.3961  -44.8069 C.2       12 UNK         0.5000 
     73 O          -5.3220  -24.0725  -44.8636 O.2       12 UNK        -0.5000 
     74 N          -3.0699  -23.9180  -44.6457 N.am      13 UNK        -0.5000 
     75 CA         -2.7813  -25.3514  -44.5342 C.3       13 UNK         0.1400 
     76 CB         -1.3062  -25.5561  -44.1581 C.3       13 UNK        -0.1800 
     77 C          -3.1290  -26.1362  -45.8125 C.2       13 UNK         0.5000 
     78 O          -3.6395  -27.2532  -45.7210 O.2       13 UNK        -0.5000 
     79 N          -2.8861  -25.5214  -46.9775 N.am      14 UNK        -0.5000 
     80 CA         -3.2761  -26.0360  -48.2909 C.3       14 UNK         0.1400 
     81 CB         -2.4700  -25.2989  -49.3719 C.3       14 UNK        -0.1800 
     82 C          -4.7852  -25.9073  -48.5804 C.2       14 UNK         0.5000 
     83 O          -5.2449  -26.4692  -49.5723 O.2       14 UNK        -0.5000 
     84 N          -5.5217  -25.1490  -47.7537 N.am      15 UNK        -0.5000 
     85 CA         -6.9391  -24.7975  -47.8996 C.3       15 UNK         0.1400 
     86 CB         -7.8334  -26.0374  -47.6931 C.3       15 UNK        -0.1800 
     87 C          -7.2265  -24.0509  -49.2208 C.2       15 UNK         0.5000 
     88 O          -8.2343  -24.3129  -49.8796 O.2       15 UNK        -0.5000 
     89 N          -6.3045  -23.1480  -49.5859 N.am      16 UNK        -0.5000 
     90 CA         -6.2731  -22.3354  -50.8054 C.3       16 UNK         0.1400 
     91 CB         -7.4541  -21.3432  -50.8381 C.3       16 UNK        -0.1800 
     92 C          -6.1253  -23.1394  -52.1166 C.2       16 UNK         0.5000 
     93 O          -6.4285  -22.6104  -53.1880 O.2       16 UNK        -0.5000 
     94 N          -5.6481  -24.3896  -52.0300 N.am      17 UNK        -0.5000 
     95 CA         -5.3458  -25.2369  -53.1833 C.3       17 UNK         0.1400 
     96 CB         -5.1813  -26.6910  -52.7160 C.3       17 UNK        -0.1800 
     97 C          -4.0785  -24.7763  -53.9257 C.2       17 UNK         0.5000 
     98 O          -3.2374  -24.0711  -53.3581 O.2       17 UNK        -0.5000 
     99 N          -3.9352  -25.2519  -55.1702 N.am      18 UNK        -0.5000 
    100 CA        -2.8261  -24.9720  -56.0908 C.3       18 UNK         0.1400 
    101 CB        -3.1353  -25.6249  -57.4468 C.3       18 UNK        -0.1800 
    102 C         -1.4293  -25.4008  -55.5907 C.2       18 UNK         0.5000 
    103 O         -0.4281  -24.9588  -56.1542 O.2       18 UNK        -0.5000 
    104 N         -1.3811  -26.2243  -54.5334 N.am      19 UNK        -0.5000 
    105 CA        -0.1723  -26.5769  -53.7866 C.3       19 UNK         0.1400 
    106 CB        -0.5304  -27.6328  -52.7293 C.3       19 UNK        -0.1800 
    107 C          0.5053  -25.3593  -53.1233 C.2       19 UNK         0.5000 
    108 O          1.7315  -25.3442  -53.0081 O.2       19 UNK        -0.5000 
    109 N         -0.2981  -24.3621  -52.7270 N.am      20 UNK        -0.5000 
    110 CA         0.1661  -23.0597  -52.2507 C.3       20 UNK         0.1400 
    111 CB        -0.5051  -22.7328  -50.9115 C.3       20 UNK        -0.1800 
    112 C         -0.1450  -21.9639  -53.2806 C.2       20 UNK         0.5000 
    113 O          0.7103  -21.1093  -53.5223 O.2       20 UNK        -0.5000 
    114 N         -1.3532  -22.0145  -53.8658 N.am      21 UNK        -0.5000 
    115 CA        -1.9390  -21.1212  -54.8725 C.3       21 UNK         0.1400 
    116 CB        -1.1547  -21.1832  -56.1986 C.3       21 UNK        -0.1800 
    117 C         -2.1242  -19.6687  -54.3922 C.2       21 UNK         0.5000 
    118 O         -3.2545  -19.1885  -54.3196 O.2       21 UNK        -0.5000 
    119 N         -1.0069  -19.0053  -54.0922 N.am      22 UNK        -0.5000 
    120 CA        -0.8825  -17.6314  -53.5937 C.3       22 UNK         0.1400 
    121 C          0.4964  -17.3803  -52.9044 C.2       22 UNK         0.5000 
    122 N          1.3276  -18.3914  -52.6645 N.am      22 UNK        -0.7600 
    123 O          0.8318  -16.2508  -52.5625 O.2       22 UNK        -0.5000 
    124 C124       -1.2447  -16.5936  -54.6972 C.3       23 UNK        -0.0398 
    125 S125       -1.7235  -14.9360  -54.0971 S.3       23 UNK        -0.2404 
    126 C126       -3.4591  -15.1733  -53.5909 C.3       23 UNK        -0.0205 
    127 H127       -4.1449  -15.3625  -44.3684 H         1 UNK         0.0600 
    128 H128       -5.6387  -14.6247  -44.9435 H         1 UNK         0.0600 
    129 H129       -4.9398  -14.1121  -43.4039 H         1 UNK         0.0600 
    130 H130       -2.2270  -14.4601  -45.0973 H         1 UNK         0.3000 
    131 H131       -2.3020  -12.1535  -46.8770 H         1 UNK         0.0600 
    132 H132        0.0928  -13.9134  -46.2017 H         1 UNK         0.0800 
    133 H133       -0.0630  -12.8195  -47.5464 H         1 UNK         0.0800 
    134 H134       -2.6422  -13.2660  -49.0354 H         1 UNK         0.0800 
    135 H135       -3.5326  -14.2506  -47.8924 H         1 UNK         0.0800 
    136 H136       -2.7812  -13.8024  -51.3469 H         1 UNK         0.1150 
    137 H137       -4.3589  -17.5736  -52.6291 H         1 UNK         0.1150 
    138 H138       -3.7580  -16.8101  -48.4534 H         1 UNK         0.1150 
    139 H139       -5.0371  -18.8060  -49.2010 H         1 UNK         0.0800 
    140 H140       -5.3716  -19.0362  -50.8977 H         1 UNK         0.0800 
    141 H141       -2.9167  -19.0823  -48.0640 H         1 UNK         0.0800 
    142 H142       -1.4247  -19.2959  -48.9305 H         1 UNK         0.0800 
    143 H143       -2.0483  -21.8841  -48.8394 H         1 UNK         0.0600 
    144 H144       -0.4825  -20.3173  -47.0450 H         1 UNK         0.3000 
    145 H145        1.1764  -23.2201  -45.6695 H         1 UNK         0.0600 
    146 H146        3.0844  -21.8680  -46.4496 H         1 UNK         0.0600 
    147 H147        2.2375  -22.5377  -47.8356 H         1 UNK         0.0600 
    148 H148        2.0197  -20.8441  -47.4107 H         1 UNK         0.0600 
    149 H149        1.4869  -20.4974  -44.9928 H         1 UNK         0.3000 
    150 H150       -0.9306  -20.4219  -42.3159 H         1 UNK         0.0600 
    151 H151        1.2055  -21.4422  -41.4871 H         1 UNK         0.0600 
    152 H152        1.1185  -19.7238  -41.1311 H         1 UNK         0.0600 
    153 H153        2.1286  -20.2978  -42.4558 H         1 UNK         0.0600 
    154 H154        0.7678  -18.3793  -43.2584 H         1 UNK         0.3000 
    155 H155       -1.5068  -16.9171  -45.6409 H         1 UNK         0.0600 
    156 H156       -0.2915  -16.2235  -42.9109 H         1 UNK         0.0600 
    157 H157       -1.9457  -15.9702  -43.4242 H         1 UNK         0.0600 
    158 H158       -0.6404  -15.0276  -44.1432 H         1 UNK         0.0600 
    159 H159        1.1767  -16.2527  -45.1275 H         1 UNK         0.3000 
    160 H160        2.7870  -18.3984  -47.4788 H         1 UNK         0.0600 
    161 H161        2.2292  -15.3837  -47.3959 H         1 UNK         0.0600 
    162 H162        1.9829  -16.4473  -48.7699 H         1 UNK         0.0600 
    163 H163        3.6123  -16.1441  -48.1843 H         1 UNK         0.0600 
    164 H164        3.6464  -16.3988  -45.5772 H         1 UNK         0.3000 
    165 H165        4.3738  -18.6890  -42.9268 H         1 UNK         0.0600 
    166 H166        6.1682  -17.0595  -44.8066 H         1 UNK         0.0600 
    167 H167        6.5991  -17.6365  -43.1966 H         1 UNK         0.0600 
    168 H168        6.3174  -18.7849  -44.4952 H         1 UNK         0.0600 
    169 H169        4.7059  -15.8569  -43.1990 H         1 UNK         0.3000 
    170 H170        1.5011  -14.8897  -42.0198 H         1 UNK         0.0600 
    171 H171        2.7948  -13.7973  -40.2243 H         1 UNK         0.0600 
    172 H172        4.1870  -14.8312  -40.5481 H         1 UNK         0.0600 
    173 H173        2.6975  -15.5238  -39.9155 H         1 UNK         0.0600 
    174 H174        3.6747  -13.2333  -42.4606 H         1 UNK         0.3000 
    175 H175        4.4858  -12.5451  -44.7187 H         1 UNK         0.0600 
    176 H176        2.0979  -12.4754  -46.6282 H         1 UNK         0.0600 
    177 H177        3.6206  -11.6199  -46.8402 H         1 UNK         0.0600 
    178 H178        3.5893  -13.3749  -46.8803 H         1 UNK         0.0600 
    179 H179        1.9806  -10.9842  -44.6855 H         1 UNK         0.3000 
    180 H180        2.5124   -9.6493  -41.4739 H         1 UNK         0.0600 
    181 H181        4.1422   -8.2143  -42.7139 H         1 UNK         0.0600 
    182 H182        2.5880   -7.4144  -42.5465 H         1 UNK         0.0600 
    183 H183        3.0465   -8.1388  -44.0886 H         1 UNK         0.0600 
    184 H184        0.7419   -8.8518  -43.5511 H         1 UNK         0.3000 
    185 H185       -1.9457  -10.4877  -42.2112 H         1 UNK         0.0600 
    186 H186       -2.6591   -8.8094  -43.8634 H         1 UNK         0.0600 
    187 H187       -1.3695   -8.1477  -42.8779 H         1 UNK         0.0600 
    188 H188       -1.0357   -8.6840  -44.5241 H         1 UNK         0.0600 
    189 H189       -2.4861  -11.8965  -43.8320 H         1 UNK         0.3000 
    190 H190       -2.6730  -20.7569  -45.5236 H         1 UNK         0.3000 
    191 H191       -5.3834  -21.6448  -45.3802 H         1 UNK         0.0600 
    192 H192       -4.9977  -21.5405  -42.9095 H         1 UNK         0.0600 
    193 H193       -4.4366  -20.0879  -43.7216 H         1 UNK         0.0600 
    194 H194       -3.2763  -21.3008  -43.1839 H         1 UNK         0.0600 
    195 H195       -2.2724  -23.2918  -44.5648 H         1 UNK         0.3000 
    196 H196       -3.3955  -25.7515  -43.7250 H         1 UNK         0.0600 
    197 H197       -0.6373  -25.1321  -44.9078 H         1 UNK         0.0600 
    198 H198       -1.0756  -25.0877  -43.2012 H         1 UNK         0.0600 
    199 H199       -1.0684  -26.6166  -44.0662 H         1 UNK         0.0600 
    200 H200       -2.3871  -24.6365  -46.9664 H         1 UNK         0.3000 
    201 H201       -3.0224  -27.0969  -48.3389 H         1 UNK         0.0600 
    202 H202       -2.7018  -25.6755  -50.3689 H         1 UNK         0.0600 
    203 H203       -2.6868  -24.2306  -49.3670 H         1 UNK         0.0600 
    204 H204       -1.3983  -25.4263  -49.2191 H         1 UNK         0.0600 
    205 H205       -5.0539  -24.7197  -46.9655 H         1 UNK         0.3000 
    206 H206       -7.1621  -24.0924  -47.0976 H         1 UNK         0.0600 
    207 H207       -7.6086  -26.5304  -46.7473 H         1 UNK         0.0600 
    208 H208       -8.8875  -25.7591  -47.6710 H         1 UNK         0.0600 
    209 H209       -7.7051  -26.7687  -48.4917 H         1 UNK         0.0600 
    210 H210       -5.5255  -22.9891  -48.9483 H         1 UNK         0.3000 
    211 H211       -5.3607  -21.7479  -50.7317 H         1 UNK         0.0600 
    212 H212       -7.3464  -20.6315  -51.6573 H         1 UNK         0.0600 
    213 H213       -7.5076  -20.7653  -49.9155 H         1 UNK         0.0600 
    214 H214       -8.4083  -21.8529  -50.9728 H         1 UNK         0.0600 
    215 H215       -5.4347  -24.7731  -51.1189 H         1 UNK         0.3000 
    216 H216       -6.1894  -25.1882  -53.8751 H         1 UNK         0.0600 
    217 H217       -4.3133  -26.8096  -52.0663 H         1 UNK         0.0600 
    218 H218       -5.0502  -27.3668  -53.5618 H         1 UNK         0.0600 
    219 H219       -6.0604  -27.0308  -52.1680 H         1 UNK         0.0600 
    220 H220       -4.6641  -25.8456  -55.5396 H         1 UNK         0.3000 
    221 H221       -2.7933  -23.8911  -56.2349 H         1 UNK         0.0600 
    222 H222       -4.0730  -25.2530  -57.8602 H         1 UNK         0.0600 
    223 H223       -3.2107  -26.7096  -57.3619 H         1 UNK         0.0600 
    224 H224       -2.3536  -25.4063  -58.1756 H         1 UNK         0.0600 
    225 H225       -2.2564  -26.5499  -54.1525 H         1 UNK         0.3000 
    226 H226        0.5409  -27.0152  -54.4876 H         1 UNK         0.0600 
    227 H227       -1.2616  -27.2547  -52.0135 H         1 UNK         0.0600 
    228 H228       -0.9441  -28.5297  -53.1908 H         1 UNK         0.0600 
    229 H229        0.3531  -27.9364  -52.1662 H         1 UNK         0.0600 
    230 H230       -1.2952  -24.4559  -52.8847 H         1 UNK         0.3000 
    231 H231        1.2464  -23.0659  -52.0921 H         1 UNK         0.0600 
    232 H232       -1.5922  -22.7406  -50.9993 H         1 UNK         0.0600 
    233 H233       -0.2088  -21.7451  -50.5553 H         1 UNK         0.0600 
    234 H234       -0.2213  -23.4519  -50.1435 H         1 UNK         0.0600 
    235 H235       -1.9930  -22.7414  -53.5542 H         1 UNK         0.3000 
    236 H236       -2.9379  -21.5153  -55.0669 H         1 UNK         0.0600 
    237 H237       -0.1330  -20.8183  -56.0919 H         1 UNK         0.0600 
    238 H238       -1.1003  -22.2024  -56.5794 H         1 UNK         0.0600 
    239 H239       -1.6387  -20.5760  -56.9644 H         1 UNK         0.0600 
    240 H240       -0.1407  -19.5298  -54.1481 H         1 UNK         0.3000 
    241 H241       -1.6065  -17.5430  -52.7858 H         1 UNK         0.0600 
    242 H242        2.2078  -18.1896  -52.2181 H         1 UNK         0.3800 
    243 H243        1.1059  -19.3532  -52.8984 H         1 UNK         0.3800 
    244 H244       -2.0696  -16.9562  -55.3107 H         1 UNK         0.0800 
    245 H245       -0.4068  -16.4790  -55.3864 H         1 UNK         0.0800 
    246 H246       -3.9862  -14.2239  -53.6945 H         1 UNK         0.0800 
    247 H247       -3.9543  -15.8728  -54.2663 H         1 UNK         0.0800 
@<TRIPOS>BOND
     1    1    2 1    
     2    1  127 1    
     3    1  128 1    
     4    1  129 1    
     5    2    3 2    
     6    2    4 am   BACKBONE|DICT|INTERRES
     7    4    5 1    
     8    4  130 1    
     9    5    6 1    
    10    5   65 1    
    11    5  131 1    
    12    6    7 1    
    13    6  132 1    
    14    6  133 1    
    15    7    8 1    
    16    8    9 1    
    17    8  134 1    
    18    8  135 1    
    19    9   10 ar   
    20    9   14 ar   
    21   10   11 ar   
    22   10  136 1    
    23   11   12 ar   
    24   11  126 1    
    25   12   13 ar   
    26   12  137 1    
    27   13   14 ar   
    28   13   15 1    
    29   14  138 1    
    30   15   16 1    
    31   15  139 1    
    32   15  140 1    
    33   16   17 1    
    34   17   18 1    
    35   17  141 1    
    36   17  142 1    
    37   18   19 1    
    38   18   67 1    
    39   18  143 1    
    40   19   20 am   BACKBONE|DICT|INTERRES
    41   19  144 1    
    42   20   21 2    
    43   20   22 1    
    44   22   23 1    
    45   22   24 1    
    46   22  145 1    
    47   23  146 1    
    48   23  147 1    
    49   23  148 1    
    50   24   25 am   BACKBONE|DICT|INTERRES
    51   24  149 1    
    52   25   26 2    
    53   25   27 1    
    54   27   28 1    
    55   27   29 1    
    56   27  150 1    
    57   28  151 1    
    58   28  152 1    
    59   28  153 1    
    60   29   30 am   BACKBONE|DICT|INTERRES
    61   29  154 1    
    62   30   31 2    
    63   30   32 1    
    64   32   33 1    
    65   32   34 1    
    66   32  155 1    
    67   33  156 1    
    68   33  157 1    
    69   33  158 1    
    70   34   35 am   BACKBONE|DICT|INTERRES
    71   34  159 1    
    72   35   36 2    
    73   35   37 1    
    74   37   38 1    
    75   37   39 1    
    76   37  160 1    
    77   38  161 1    
    78   38  162 1    
    79   38  163 1    
    80   39   40 am   BACKBONE|DICT|INTERRES
    81   39  164 1    
    82   40   41 2    
    83   40   42 1    
    84   42   43 1    
    85   42   44 1    
    86   42  165 1    
    87   43  166 1    
    88   43  167 1    
    89   43  168 1    
    90   44   45 am   BACKBONE|DICT|INTERRES
    91   44  169 1    
    92   45   46 2    
    93   45   47 1    
    94   47   48 1    
    95   47   49 1    
    96   47  170 1    
    97   48  171 1    
    98   48  172 1    
    99   48  173 1    
   100   49   50 am   BACKBONE|DICT|INTERRES
   101   49  174 1    
   102   50   51 2    
   103   50   52 1    
   104   52   53 1    
   105   52   54 1    
   106   52  175 1    
   107   53  176 1    
   108   53  177 1    
   109   53  178 1    
   110   54   55 am   BACKBONE|DICT|INTERRES
   111   54  179 1    
   112   55   56 2    
   113   55   57 1    
   114   57   58 1    
   115   57   59 1    
   116   57  180 1    
   117   58  181 1    
   118   58  182 1    
   119   58  183 1    
   120   59   60 am   BACKBONE|DICT|INTERRES
   121   59  184 1    
   122   60   61 2    
   123   60   62 1    
   124   62   63 1    
   125   62   64 1    
   126   62  185 1    
   127   63  186 1    
   128   63  187 1    
   129   63  188 1    
   130   64   65 am   BACKBONE|DICT|INTERRES
   131   64  189 1    
   132   65   66 2    
   133   67   68 2    
   134   67   69 am   BACKBONE|DICT|INTERRES
   135   69   70 1    
   136   69  190 1    
   137   70   71 1    
   138   70   72 1    
   139   70  191 1    
   140   71  192 1    
   141   71  193 1    
   142   71  194 1    
   143   72   73 2    
   144   72   74 am   BACKBONE|DICT|INTERRES
   145   74   75 1    
   146   74  195 1    
   147   75   76 1    
   148   75   77 1    
   149   75  196 1    
   150   76  197 1    
   151   76  198 1    
   152   76  199 1    
   153   77   78 2    
   154   77   79 am   BACKBONE|DICT|INTERRES
   155   79   80 1    
   156   79  200 1    
   157   80   81 1    
   158   80   82 1    
   159   80  201 1    
   160   81  202 1    
   161   81  203 1    
   162   81  204 1    
   163   82   83 2    
   164   82   84 am   BACKBONE|DICT|INTERRES
   165   84   85 1    
   166   84  205 1    
   167   85   86 1    
   168   85   87 1    
   169   85  206 1    
   170   86  207 1    
   171   86  208 1    
   172   86  209 1    
   173   87   88 2    
   174   87   89 am   BACKBONE|DICT|INTERRES
   175   89   90 1    
   176   89  210 1    
   177   90   91 1    
   178   90   92 1    
   179   90  211 1    
   180   91  212 1    
   181   91  213 1    
   182   91  214 1    
   183   92   93 2    
   184   92   94 am   BACKBONE|DICT|INTERRES
   185   94   95 1    
   186   94  215 1    
   187   95   96 1    
   188   95   97 1    
   189   95  216 1    
   190   96  217 1    
   191   96  218 1    
   192   96  219 1    
   193   97   98 2    
   194   97   99 am   BACKBONE|DICT|INTERRES
   195   99  100 1    
   196   99  220 1    
   197  100  101 1    
   198  100  102 1    
   199  100  221 1    
   200  101  222 1    
   201  101  223 1    
   202  101  224 1    
   203  102  103 2    
   204  102  104 am   BACKBONE|DICT|INTERRES
   205  104  105 1    
   206  104  225 1    
   207  105  106 1    
   208  105  107 1    
   209  105  226 1    
   210  106  227 1    
   211  106  228 1    
   212  106  229 1    
   213  107  108 2    
   214  107  109 am   BACKBONE|DICT|INTERRES
   215  109  110 1    
   216  109  230 1    
   217  110  111 1    
   218  110  112 1    
   219  110  231 1    
   220  111  232 1    
   221  111  233 1    
   222  111  234 1    
   223  112  113 2    
   224  112  114 am   BACKBONE|DICT|INTERRES
   225  114  115 1    
   226  114  235 1    
   227  115  116 1    
   228  115  117 1    
   229  115  236 1    
   230  116  237 1    
   231  116  238 1    
   232  116  239 1    
   233  117  118 2    
   234  117  119 am   BACKBONE|DICT|INTERRES
   235  119  120 1    
   236  119  240 1    
   237  120  121 1    
   238  120  124 1    
   239  120  241 1    
   240  121  122 am   BACKBONE|DICT|INTERRES
   241  121  123 2    
   242  122  242 1    
   243  122  243 1    
   244  124  125 1    
   245  124  244 1    
   246  124  245 1    
   247  125  126 1    
   248  126  246 1    
   249  126  247 1    
@<TRIPOS>SUBSTRUCTURE
     1 UNK         1 GROUP             0       ****    0 ROOT    
