@<TRIPOS>MOLECULE
3R540
247   249    1
SMALL
USER_CHARGES


@<TRIPOS>ATOM
      1 CA         -2.5175   -8.6050  -45.0806 C.3       0 UNK        -0.1800 
      2 C          -2.7474  -10.1054  -45.1939 C.2       0 UNK         0.5000 
      3 O          -3.7880  -10.5971  -44.7580 O.2       0 UNK        -0.5000 
      4 N          -1.7817  -10.8250  -45.7820 N.am      1 UNK        -0.5000 
      5 CA         -1.7655  -12.2829  -45.9600 C.3       1 UNK         0.1400 
      6 C6         -2.8934  -12.8009  -46.9047 C.3       23 UNK        -0.0398 
      7 S7         -2.2652  -13.9669  -48.1587 S.3       23 UNK        -0.2404 
      8 C8         -2.6552  -15.5784  -47.4122 C.3       23 UNK        -0.0205 
      9 C9         -2.1520  -16.7096  -48.2960 C.ar      23 UNK        -0.0193 
     10 C10        -2.9672  -17.2468  -49.2961 C.ar      23 UNK        -0.1150 
     11 C11        -2.4986  -18.2805  -50.1139 C.ar      23 UNK        -0.0193 
     12 C12        -1.1974  -18.7616  -49.9392 C.ar      23 UNK        -0.1150 
     13 C13        -0.3710  -18.2284  -48.9472 C.ar      23 UNK        -0.0193 
     14 C14        -0.8614  -17.2142  -48.1220 C.ar      23 UNK        -0.1150 
     15 C15         1.0622  -18.7121  -48.7846 C.3       23 UNK        -0.0205 
     16 S16         1.2695  -19.8120  -47.3491 S.3       23 UNK        -0.2404 
     17 C17         0.7641  -21.4338  -48.0198 C.3       23 UNK        -0.0398 
     18 CA         -0.4560  -22.0946  -47.3296 C.3       11 UNK         0.1400 
     19 N          -0.3261  -22.1884  -45.8706 N.am      11 UNK        -0.5000 
     20 C          -0.7137  -23.2567  -45.1576 C.2       10 UNK         0.5000 
     21 O          -1.1622  -24.2878  -45.6588 O.2       10 UNK        -0.5000 
     22 CA         -0.5986  -23.1658  -43.6238 C.3       10 UNK         0.1400 
     23 CB          0.8143  -23.5587  -43.1660 C.3       10 UNK        -0.1800 
     24 N          -0.9282  -21.8493  -43.0782 N.am      10 UNK        -0.5000 
     25 C          -2.1107  -21.2298  -43.2000 C.2       9 UNK         0.5000 
     26 O          -3.0717  -21.7039  -43.8038 O.2       9 UNK        -0.5000 
     27 CA         -2.2326  -19.8274  -42.5705 C.3       9 UNK         0.1400 
     28 CB         -2.8697  -19.9217  -41.1764 C.3       9 UNK        -0.1800 
     29 N          -0.9638  -19.1000  -42.4704 N.am      9 UNK        -0.5000 
     30 C          -0.1806  -18.7727  -43.5072 C.2       8 UNK         0.5000 
     31 O          -0.4255  -19.0953  -44.6708 O.2       8 UNK        -0.5000 
     32 CA          1.1162  -18.0215  -43.1477 C.3       8 UNK         0.1400 
     33 CB          2.1547  -18.9917  -42.5620 C.3       8 UNK        -0.1800 
     34 N           1.7332  -17.3098  -44.2663 N.am      8 UNK        -0.5000 
     35 C           1.1847  -16.2901  -44.9377 C.2       7 UNK         0.5000 
     36 O           0.0572  -15.8508  -44.7158 O.2       7 UNK        -0.5000 
     37 CA          2.0983  -15.6070  -45.9687 C.3       7 UNK         0.1400 
     38 CB          1.4350  -14.4104  -46.6737 C.3       7 UNK        -0.1800 
     39 N           3.2836  -15.1136  -45.2764 N.am      7 UNK        -0.5000 
     40 C           4.5410  -15.5258  -45.4737 C.2       6 UNK         0.5000 
     41 O           4.8443  -16.4240  -46.2601 O.2       6 UNK        -0.5000 
     42 CA          5.6372  -14.8339  -44.6330 C.3       6 UNK         0.1400 
     43 CB          7.0110  -14.8121  -45.3354 C.3       6 UNK        -0.1800 
     44 N           5.2570  -13.4946  -44.1647 N.am      6 UNK        -0.5000 
     45 C           5.0158  -12.3996  -44.9060 C.2       5 UNK         0.5000 
     46 O           5.1579  -12.3601  -46.1286 O.2       5 UNK        -0.5000 
     47 CA          4.5018  -11.1439  -44.1683 C.3       5 UNK         0.1400 
     48 CB          3.2697  -10.5513  -44.8760 C.3       5 UNK        -0.1800 
     49 N           4.1371  -11.4412  -42.7824 N.am      5 UNK        -0.5000 
     50 C           4.8846  -11.1749  -41.7025 C.2       4 UNK         0.5000 
     51 O           5.9550  -10.5680  -41.7443 O.2       4 UNK        -0.5000 
     52 CA          4.3640  -11.6978  -40.3457 C.3       4 UNK         0.1400 
     53 CB          3.6237  -10.5829  -39.5913 C.3       4 UNK        -0.1800 
     54 N           3.4761  -12.8587  -40.4637 N.am      4 UNK        -0.5000 
     55 C           3.8329  -14.0607  -40.9386 C.2       3 UNK         0.5000 
     56 O           4.9819  -14.3461  -41.2739 O.2       3 UNK        -0.5000 
     57 CA          2.7079  -15.0937  -41.1476 C.3       3 UNK         0.1400 
     58 CB          2.6167  -16.0441  -39.9450 C.3       3 UNK        -0.1800 
     59 N           1.3882  -14.5018  -41.3983 N.am      3 UNK        -0.5000 
     60 C           1.0855  -13.6959  -42.4254 C.2       2 UNK         0.5000 
     61 O           1.9122  -13.3211  -43.2633 O.2       2 UNK        -0.5000 
     62 CA         -0.3665  -13.2024  -42.4948 C.3       2 UNK         0.1400 
     63 CB         -0.6059  -12.0905  -41.4600 C.3       2 UNK        -0.1800 
     64 N          -0.6463  -12.6687  -43.8245 N.am      2 UNK        -0.5000 
     65 C          -1.6937  -13.0001  -44.5902 C.2       1 UNK         0.5000 
     66 O          -2.5847  -13.7737  -44.2332 O.2       1 UNK        -0.5000 
     67 C          -1.7952  -21.4614  -47.7518 C.2       11 UNK         0.5000 
     68 O          -2.2258  -21.6863  -48.8819 O.2       11 UNK        -0.5000 
     69 N          -2.4513  -20.7154  -46.8514 N.am      12 UNK        -0.5000 
     70 CA         -3.7864  -20.1630  -47.0797 C.3       12 UNK         0.1400 
     71 CB         -4.0790  -19.0639  -46.0486 C.3       12 UNK        -0.1800 
     72 C          -4.8745  -21.2521  -47.0502 C.2       12 UNK         0.5000 
     73 O          -5.7889  -21.2142  -47.8752 O.2       12 UNK        -0.5000 
     74 N          -4.7425  -22.2084  -46.1176 N.am      13 UNK        -0.5000 
     75 CA         -5.6224  -23.3614  -45.9151 C.3       13 UNK         0.1400 
     76 CB         -5.0686  -24.2189  -44.7661 C.3       13 UNK        -0.1800 
     77 C          -5.7907  -24.1992  -47.1957 C.2       13 UNK         0.5000 
     78 O          -4.8342  -24.8393  -47.6392 O.2       13 UNK        -0.5000 
     79 N          -6.9878  -24.1164  -47.7970 N.am      14 UNK        -0.5000 
     80 CA         -7.3882  -24.7217  -49.0761 C.3       14 UNK         0.1400 
     81 CB         -7.4896  -26.2549  -48.9318 C.3       14 UNK        -0.1800 
     82 C          -6.4946  -24.3071  -50.2675 C.2       14 UNK         0.5000 
     83 O          -6.3854  -25.0573  -51.2387 O.2       14 UNK        -0.5000 
     84 N          -5.8234  -23.1508  -50.1488 N.am      15 UNK        -0.5000 
     85 CA         -4.7591  -22.6564  -51.0256 C.3       15 UNK         0.1400 
     86 CB         -5.3446  -22.1635  -52.3642 C.3       15 UNK        -0.1800 
     87 C          -3.6063  -23.6708  -51.2006 C.2       15 UNK         0.5000 
     88 O          -3.1152  -23.8545  -52.3152 O.2       15 UNK        -0.5000 
     89 N          -3.2346  -24.3445  -50.1003 N.am      16 UNK        -0.5000 
     90 CA         -2.2423  -25.4202  -50.0115 C.3       16 UNK         0.1400 
     91 CB         -0.8373  -24.9100  -50.4008 C.3       16 UNK        -0.1800 
     92 C          -2.6750  -26.6648  -50.8139 C.2       16 UNK         0.5000 
     93 O          -1.8528  -27.2785  -51.4932 O.2       16 UNK        -0.5000 
     94 N          -3.9775  -26.9832  -50.7542 N.am      17 UNK        -0.5000 
     95 CA         -4.6827  -27.9700  -51.5826 C.3       17 UNK         0.1400 
     96 CB         -4.2138  -29.4053  -51.2660 C.3       17 UNK        -0.1800 
     97 C          -4.5911  -27.6061  -53.0805 C.2       17 UNK         0.5000 
     98 O          -4.2189  -28.4372  -53.9099 O.2       17 UNK        -0.5000 
     99 N          -4.8920  -26.3324  -53.3694 N.am      18 UNK        -0.5000 
    100 CA        -4.8284  -25.6314  -54.6568 C.3       18 UNK         0.1400 
    101 CB        -5.7546  -26.2953  -55.6954 C.3       18 UNK        -0.1800 
    102 C         -3.4097  -25.3992  -55.2234 C.2       18 UNK         0.5000 
    103 O         -3.2914  -24.7427  -56.2593 O.2       18 UNK        -0.5000 
    104 N         -2.3569  -25.8921  -54.5542 N.am      19 UNK        -0.5000 
    105 CA        -0.9659  -25.8010  -55.0069 C.3       19 UNK         0.1400 
    106 CB        -0.0866  -26.7353  -54.1637 C.3       19 UNK        -0.1800 
    107 C         -0.3888  -24.3723  -55.0014 C.2       19 UNK         0.5000 
    108 O          0.5315  -24.1002  -55.7737 O.2       19 UNK        -0.5000 
    109 N         -0.9314  -23.4814  -54.1580 N.am      20 UNK        -0.5000 
    110 CA        -0.5471  -22.0676  -54.1093 C.3       20 UNK         0.1400 
    111 CB        -0.9568  -21.4710  -52.7558 C.3       20 UNK        -0.1800 
    112 C         -1.1519  -21.2413  -55.2621 C.2       20 UNK         0.5000 
    113 O         -0.6662  -20.1416  -55.5282 O.2       20 UNK        -0.5000 
    114 N         -2.1915  -21.7820  -55.9186 N.am      21 UNK        -0.5000 
    115 CA        -2.9130  -21.2181  -57.0643 C.3       21 UNK         0.1400 
    116 CB        -1.9978  -21.1541  -58.3051 C.3       21 UNK        -0.1800 
    117 C         -3.6185  -19.8763  -56.7638 C.2       21 UNK         0.5000 
    118 O         -3.7565  -19.0403  -57.6590 O.2       21 UNK        -0.5000 
    119 N         -4.0734  -19.7003  -55.5151 N.am      22 UNK        -0.5000 
    120 CA        -4.8332  -18.5204  -55.0610 C.3       22 UNK         0.1400 
    121 C         -6.2914  -18.4379  -55.6068 C.2       22 UNK         0.5000 
    122 N         -6.8547  -19.4957  -56.1786 N.am      22 UNK        -0.7600 
    123 O         -6.9230  -17.3890  -55.5128 O.2       22 UNK        -0.5000 
    124 C124       -4.8350  -18.3831  -53.5169 C.3       23 UNK        -0.0398 
    125 S125       -3.1731  -18.1506  -52.8003 S.3       23 UNK        -0.2404 
    126 C126       -3.4120  -18.8982  -51.1594 C.3       23 UNK        -0.0205 
    127 H127       -3.3089   -8.0637  -45.5990 H         1 UNK         0.0600 
    128 H128       -1.5621   -8.3061  -45.5127 H         1 UNK         0.0600 
    129 H129       -2.5257   -8.3028  -44.0333 H         1 UNK         0.0600 
    130 H130       -0.9601  -10.3433  -46.1195 H         1 UNK         0.3000 
    131 H131       -0.8082  -12.4757  -46.4445 H         1 UNK         0.0600 
    132 H132       -3.3177  -11.9679  -47.4666 H         1 UNK         0.0800 
    133 H133       -3.7409  -13.2319  -46.3700 H         1 UNK         0.0800 
    134 H134       -3.7326  -15.6654  -47.2645 H         1 UNK         0.0800 
    135 H135       -2.1982  -15.6448  -46.4231 H         1 UNK         0.0800 
    136 H136       -3.9686  -16.8639  -49.4335 H         1 UNK         0.1150 
    137 H137       -0.8323  -19.5592  -50.5680 H         1 UNK         0.1150 
    138 H138       -0.2317  -16.8129  -47.3455 H         1 UNK         0.1150 
    139 H139        1.4123  -19.2086  -49.6908 H         1 UNK         0.0800 
    140 H140        1.7123  -17.8464  -48.6519 H         1 UNK         0.0800 
    141 H141        1.6233  -22.0972  -47.9154 H         1 UNK         0.0800 
    142 H142        0.5944  -21.3574  -49.0952 H         1 UNK         0.0800 
    143 H143       -0.4934  -23.1091  -47.7299 H         1 UNK         0.0600 
    144 H144        0.0133  -21.3608  -45.3968 H         1 UNK         0.3000 
    145 H145       -1.3061  -23.8817  -43.2002 H         1 UNK         0.0600 
    146 H146        0.8813  -23.5955  -42.0786 H         1 UNK         0.0600 
    147 H147        1.0856  -24.5468  -43.5403 H         1 UNK         0.0600 
    148 H148        1.5648  -22.8537  -43.5259 H         1 UNK         0.0600 
    149 H149       -0.1973  -21.3762  -42.5690 H         1 UNK         0.3000 
    150 H150       -2.8940  -19.2373  -43.2056 H         1 UNK         0.0600 
    151 H151       -3.8318  -20.4342  -41.2205 H         1 UNK         0.0600 
    152 H152       -3.0504  -18.9321  -40.7563 H         1 UNK         0.0600 
    153 H153       -2.2359  -20.4730  -40.4805 H         1 UNK         0.0600 
    154 H154       -0.6870  -18.8192  -41.5409 H         1 UNK         0.3000 
    155 H155        0.8657  -17.2778  -42.3894 H         1 UNK         0.0600 
    156 H156        1.7659  -19.5096  -41.6845 H         1 UNK         0.0600 
    157 H157        3.0555  -18.4638  -42.2479 H         1 UNK         0.0600 
    158 H158        2.4470  -19.7511  -43.2888 H         1 UNK         0.0600 
    159 H159        2.6539  -17.6188  -44.5402 H         1 UNK         0.3000 
    160 H160        2.3570  -16.3528  -46.7226 H         1 UNK         0.0600 
    161 H161        1.2059  -13.6132  -45.9672 H         1 UNK         0.0600 
    162 H162        0.5066  -14.6944  -47.1662 H         1 UNK         0.0600 
    163 H163        2.0925  -13.9946  -47.4372 H         1 UNK         0.0600 
    164 H164        3.1055  -14.3962  -44.5817 H         1 UNK         0.3000 
    165 H165        5.7450  -15.4423  -43.7342 H         1 UNK         0.0600 
    166 H166        6.9695  -14.2974  -46.2956 H         1 UNK         0.0600 
    167 H167        7.7609  -14.3159  -44.7196 H         1 UNK         0.0600 
    168 H168        7.3685  -15.8247  -45.5256 H         1 UNK         0.0600 
    169 H169        5.1264  -13.4227  -43.1626 H         1 UNK         0.3000 
    170 H170        5.3010  -10.4008  -44.1986 H         1 UNK         0.0600 
    171 H171        3.5151  -10.2296  -45.8888 H         1 UNK         0.0600 
    172 H172        2.4594  -11.2770  -44.9509 H         1 UNK         0.0600 
    173 H173        2.8908   -9.6788  -44.3437 H         1 UNK         0.0600 
    174 H174        3.2841  -11.9784  -42.6688 H         1 UNK         0.3000 
    175 H175        5.2318  -11.9969  -39.7543 H         1 UNK         0.0600 
    176 H176        2.7304  -10.2592  -40.1273 H         1 UNK         0.0600 
    177 H177        3.3192  -10.9129  -38.5979 H         1 UNK         0.0600 
    178 H178        4.2627   -9.7086  -39.4599 H         1 UNK         0.0600 
    179 H179        2.5091  -12.7138  -40.2141 H         1 UNK         0.3000 
    180 H180        2.9750  -15.6826  -42.0274 H         1 UNK         0.0600 
    181 H181        2.3302  -15.5148  -39.0353 H         1 UNK         0.0600 
    182 H182        3.5763  -16.5272  -39.7554 H         1 UNK         0.0600 
    183 H183        1.8869  -16.8351  -40.1171 H         1 UNK         0.0600 
    184 H184        0.6612  -14.7422  -40.7396 H         1 UNK         0.3000 
    185 H185       -1.0179  -14.0509  -42.2752 H         1 UNK         0.0600 
    186 H186       -0.4362  -12.4496  -40.4443 H         1 UNK         0.0600 
    187 H187        0.0555  -11.2384  -41.6238 H         1 UNK         0.0600 
    188 H188       -1.6331  -11.7279  -41.5064 H         1 UNK         0.0600 
    189 H189        0.0735  -12.0688  -44.2014 H         1 UNK         0.3000 
    190 H190       -2.0238  -20.5414  -45.9528 H         1 UNK         0.3000 
    191 H191       -3.8006  -19.7072  -48.0702 H         1 UNK         0.0600 
    192 H192       -4.2355  -19.4774  -45.0532 H         1 UNK         0.0600 
    193 H193       -3.2629  -18.3428  -45.9920 H         1 UNK         0.0600 
    194 H194       -4.9821  -18.5151  -46.3174 H         1 UNK         0.0600 
    195 H195       -3.9773  -22.1217  -45.4549 H         1 UNK         0.3000 
    196 H196       -6.5993  -22.9810  -45.6109 H         1 UNK         0.0600 
    197 H197       -5.0522  -23.6604  -43.8301 H         1 UNK         0.0600 
    198 H198       -4.0515  -24.5564  -44.9710 H         1 UNK         0.0600 
    199 H199       -5.6843  -25.1046  -44.6051 H         1 UNK         0.0600 
    200 H200       -7.6863  -23.5221  -47.3717 H         1 UNK         0.3000 
    201 H201       -8.3854  -24.3410  -49.3005 H         1 UNK         0.0600 
    202 H202       -7.9096  -26.7086  -49.8304 H         1 UNK         0.0600 
    203 H203       -8.1387  -26.5294  -48.1004 H         1 UNK         0.0600 
    204 H204       -6.5148  -26.7119  -48.7595 H         1 UNK         0.0600 
    205 H205       -5.9751  -22.5992  -49.3090 H         1 UNK         0.3000 
    206 H206       -4.3302  -21.7976  -50.5120 H         1 UNK         0.0600 
    207 H207       -6.1042  -21.3999  -52.1994 H         1 UNK         0.0600 
    208 H208       -5.8081  -22.9739  -52.9253 H         1 UNK         0.0600 
    209 H209       -4.5713  -21.7250  -52.9952 H         1 UNK         0.0600 
    210 H210       -3.7332  -24.1569  -49.2368 H         1 UNK         0.3000 
    211 H211       -2.2098  -25.7195  -48.9629 H         1 UNK         0.0600 
    212 H212       -0.5869  -23.9913  -49.8733 H         1 UNK         0.0600 
    213 H213       -0.0736  -25.6484  -50.1552 H         1 UNK         0.0600 
    214 H214       -0.7595  -24.7058  -51.4684 H         1 UNK         0.0600 
    215 H215       -4.5712  -26.3883  -50.1932 H         1 UNK         0.3000 
    216 H216       -5.7378  -27.9023  -51.3133 H         1 UNK         0.0600 
    217 H217       -4.8224  -30.1377  -51.7975 H         1 UNK         0.0600 
    218 H218       -3.1767  -29.5720  -51.5582 H         1 UNK         0.0600 
    219 H219       -4.3012  -29.6218  -50.2014 H         1 UNK         0.0600 
    220 H220       -5.2134  -25.7567  -52.5950 H         1 UNK         0.3000 
    221 H221       -5.2269  -24.6362  -54.4614 H         1 UNK         0.0600 
    222 H222       -5.3895  -27.2769  -55.9980 H         1 UNK         0.0600 
    223 H223       -6.7641  -26.4173  -55.3029 H         1 UNK         0.0600 
    224 H224       -5.8302  -25.6865  -56.5971 H         1 UNK         0.0600 
    225 H225       -2.5214  -26.3860  -53.6875 H         1 UNK         0.3000 
    226 H226       -0.9366  -26.1578  -56.0385 H         1 UNK         0.0600 
    227 H227       -0.4869  -27.7492  -54.1437 H         1 UNK         0.0600 
    228 H228        0.9232  -26.7912  -54.5717 H         1 UNK         0.0600 
    229 H229       -0.0010  -26.3858  -53.1349 H         1 UNK         0.0600 
    230 H230       -1.6931  -23.7694  -53.5463 H         1 UNK         0.3000 
    231 H231        0.5399  -21.9988  -54.1891 H         1 UNK         0.0600 
    232 H232       -0.5949  -20.4465  -52.6667 H         1 UNK         0.0600 
    233 H233       -0.5445  -22.0403  -51.9226 H         1 UNK         0.0600 
    234 H234       -2.0396  -21.4431  -52.6438 H         1 UNK         0.0600 
    235 H235       -2.4864  -22.7101  -55.6416 H         1 UNK         0.3000 
    236 H236       -3.7110  -21.9272  -57.2888 H         1 UNK         0.0600 
    237 H237       -1.5299  -22.1196  -58.4984 H         1 UNK         0.0600 
    238 H238       -2.5644  -20.8860  -59.1975 H         1 UNK         0.0600 
    239 H239       -1.2053  -20.4147  -58.1868 H         1 UNK         0.0600 
    240 H240       -3.8994  -20.4194  -54.8305 H         1 UNK         0.3000 
    241 H241       -4.3244  -17.6404  -55.4597 H         1 UNK         0.0600 
    242 H242       -7.7967  -19.4247  -56.5306 H         1 UNK         0.3800 
    243 H243       -6.3526  -20.3639  -56.2657 H         1 UNK         0.3800 
    244 H244       -5.4330  -17.5236  -53.2080 H         1 UNK         0.0800 
    245 H245       -5.3088  -19.2565  -53.0684 H         1 UNK         0.0800 
    246 H246       -3.2183  -19.9672  -51.2263 H         1 UNK         0.0800 
    247 H247       -4.4511  -18.7913  -50.8440 H         1 UNK         0.0800 
@<TRIPOS>BOND
     1    1    2 1    
     2    1  127 1    
     3    1  128 1    
     4    1  129 1    
     5    2    3 2    
     6    2    4 am   BACKBONE|DICT|INTERRES
     7    4    5 1    
     8    4  130 1    
     9    5    6 1    
    10    5   65 1    
    11    5  131 1    
    12    6    7 1    
    13    6  132 1    
    14    6  133 1    
    15    7    8 1    
    16    8    9 1    
    17    8  134 1    
    18    8  135 1    
    19    9   10 ar   
    20    9   14 ar   
    21   10   11 ar   
    22   10  136 1    
    23   11   12 ar   
    24   11  126 1    
    25   12   13 ar   
    26   12  137 1    
    27   13   14 ar   
    28   13   15 1    
    29   14  138 1    
    30   15   16 1    
    31   15  139 1    
    32   15  140 1    
    33   16   17 1    
    34   17   18 1    
    35   17  141 1    
    36   17  142 1    
    37   18   19 1    
    38   18   67 1    
    39   18  143 1    
    40   19   20 am   BACKBONE|DICT|INTERRES
    41   19  144 1    
    42   20   21 2    
    43   20   22 1    
    44   22   23 1    
    45   22   24 1    
    46   22  145 1    
    47   23  146 1    
    48   23  147 1    
    49   23  148 1    
    50   24   25 am   BACKBONE|DICT|INTERRES
    51   24  149 1    
    52   25   26 2    
    53   25   27 1    
    54   27   28 1    
    55   27   29 1    
    56   27  150 1    
    57   28  151 1    
    58   28  152 1    
    59   28  153 1    
    60   29   30 am   BACKBONE|DICT|INTERRES
    61   29  154 1    
    62   30   31 2    
    63   30   32 1    
    64   32   33 1    
    65   32   34 1    
    66   32  155 1    
    67   33  156 1    
    68   33  157 1    
    69   33  158 1    
    70   34   35 am   BACKBONE|DICT|INTERRES
    71   34  159 1    
    72   35   36 2    
    73   35   37 1    
    74   37   38 1    
    75   37   39 1    
    76   37  160 1    
    77   38  161 1    
    78   38  162 1    
    79   38  163 1    
    80   39   40 am   BACKBONE|DICT|INTERRES
    81   39  164 1    
    82   40   41 2    
    83   40   42 1    
    84   42   43 1    
    85   42   44 1    
    86   42  165 1    
    87   43  166 1    
    88   43  167 1    
    89   43  168 1    
    90   44   45 am   BACKBONE|DICT|INTERRES
    91   44  169 1    
    92   45   46 2    
    93   45   47 1    
    94   47   48 1    
    95   47   49 1    
    96   47  170 1    
    97   48  171 1    
    98   48  172 1    
    99   48  173 1    
   100   49   50 am   BACKBONE|DICT|INTERRES
   101   49  174 1    
   102   50   51 2    
   103   50   52 1    
   104   52   53 1    
   105   52   54 1    
   106   52  175 1    
   107   53  176 1    
   108   53  177 1    
   109   53  178 1    
   110   54   55 am   BACKBONE|DICT|INTERRES
   111   54  179 1    
   112   55   56 2    
   113   55   57 1    
   114   57   58 1    
   115   57   59 1    
   116   57  180 1    
   117   58  181 1    
   118   58  182 1    
   119   58  183 1    
   120   59   60 am   BACKBONE|DICT|INTERRES
   121   59  184 1    
   122   60   61 2    
   123   60   62 1    
   124   62   63 1    
   125   62   64 1    
   126   62  185 1    
   127   63  186 1    
   128   63  187 1    
   129   63  188 1    
   130   64   65 am   BACKBONE|DICT|INTERRES
   131   64  189 1    
   132   65   66 2    
   133   67   68 2    
   134   67   69 am   BACKBONE|DICT|INTERRES
   135   69   70 1    
   136   69  190 1    
   137   70   71 1    
   138   70   72 1    
   139   70  191 1    
   140   71  192 1    
   141   71  193 1    
   142   71  194 1    
   143   72   73 2    
   144   72   74 am   BACKBONE|DICT|INTERRES
   145   74   75 1    
   146   74  195 1    
   147   75   76 1    
   148   75   77 1    
   149   75  196 1    
   150   76  197 1    
   151   76  198 1    
   152   76  199 1    
   153   77   78 2    
   154   77   79 am   BACKBONE|DICT|INTERRES
   155   79   80 1    
   156   79  200 1    
   157   80   81 1    
   158   80   82 1    
   159   80  201 1    
   160   81  202 1    
   161   81  203 1    
   162   81  204 1    
   163   82   83 2    
   164   82   84 am   BACKBONE|DICT|INTERRES
   165   84   85 1    
   166   84  205 1    
   167   85   86 1    
   168   85   87 1    
   169   85  206 1    
   170   86  207 1    
   171   86  208 1    
   172   86  209 1    
   173   87   88 2    
   174   87   89 am   BACKBONE|DICT|INTERRES
   175   89   90 1    
   176   89  210 1    
   177   90   91 1    
   178   90   92 1    
   179   90  211 1    
   180   91  212 1    
   181   91  213 1    
   182   91  214 1    
   183   92   93 2    
   184   92   94 am   BACKBONE|DICT|INTERRES
   185   94   95 1    
   186   94  215 1    
   187   95   96 1    
   188   95   97 1    
   189   95  216 1    
   190   96  217 1    
   191   96  218 1    
   192   96  219 1    
   193   97   98 2    
   194   97   99 am   BACKBONE|DICT|INTERRES
   195   99  100 1    
   196   99  220 1    
   197  100  101 1    
   198  100  102 1    
   199  100  221 1    
   200  101  222 1    
   201  101  223 1    
   202  101  224 1    
   203  102  103 2    
   204  102  104 am   BACKBONE|DICT|INTERRES
   205  104  105 1    
   206  104  225 1    
   207  105  106 1    
   208  105  107 1    
   209  105  226 1    
   210  106  227 1    
   211  106  228 1    
   212  106  229 1    
   213  107  108 2    
   214  107  109 am   BACKBONE|DICT|INTERRES
   215  109  110 1    
   216  109  230 1    
   217  110  111 1    
   218  110  112 1    
   219  110  231 1    
   220  111  232 1    
   221  111  233 1    
   222  111  234 1    
   223  112  113 2    
   224  112  114 am   BACKBONE|DICT|INTERRES
   225  114  115 1    
   226  114  235 1    
   227  115  116 1    
   228  115  117 1    
   229  115  236 1    
   230  116  237 1    
   231  116  238 1    
   232  116  239 1    
   233  117  118 2    
   234  117  119 am   BACKBONE|DICT|INTERRES
   235  119  120 1    
   236  119  240 1    
   237  120  121 1    
   238  120  124 1    
   239  120  241 1    
   240  121  122 am   BACKBONE|DICT|INTERRES
   241  121  123 2    
   242  122  242 1    
   243  122  243 1    
   244  124  125 1    
   245  124  244 1    
   246  124  245 1    
   247  125  126 1    
   248  126  246 1    
   249  126  247 1    
@<TRIPOS>SUBSTRUCTURE
     1 UNK         1 GROUP             0       ****    0 ROOT    
