@<TRIPOS>MOLECULE
3R540
247   249    1
SMALL
USER_CHARGES


@<TRIPOS>ATOM
      1 CA          1.5331  -17.0706  -48.2200 C.3       0 UNK        -0.1800 
      2 C           1.5644  -15.7155  -47.5356 C.2       0 UNK         0.5000 
      3 O           2.4890  -15.4315  -46.7756 O.2       0 UNK        -0.5000 
      4 N           0.5762  -14.8557  -47.8123 N.am      1 UNK        -0.5000 
      5 CA          0.4475  -13.5128  -47.2244 C.3       1 UNK         0.1400 
      6 C6         -0.9285  -12.8653  -47.5074 C.3       23 UNK        -0.0398 
      7 S7         -2.3207  -13.9236  -46.9824 S.3       23 UNK        -0.2404 
      8 C8         -3.1891  -14.2375  -48.5511 C.3       23 UNK        -0.0205 
      9 C9         -2.4202  -15.1794  -49.4657 C.ar      23 UNK        -0.0193 
     10 C10        -1.5948  -14.6651  -50.4708 C.ar      23 UNK        -0.1150 
     11 C11        -0.9169  -15.5214  -51.3414 C.ar      23 UNK        -0.0193 
     12 C12        -1.0843  -16.9014  -51.2109 C.ar      23 UNK        -0.1150 
     13 C13        -1.9255  -17.4284  -50.2301 C.ar      23 UNK        -0.0193 
     14 C14        -2.5725  -16.5644  -49.3409 C.ar      23 UNK        -0.1150 
     15 C15        -2.1902  -18.9238  -50.2049 C.3       23 UNK        -0.0205 
     16 S16        -0.7454  -19.8772  -49.6533 S.3       23 UNK        -0.2404 
     17 C17        -0.9886  -19.8731  -47.8503 C.3       23 UNK        -0.0398 
     18 CA         -0.6025  -21.2229  -47.2056 C.3       11 UNK         0.1400 
     19 N          -0.3381  -21.0678  -45.7751 N.am      11 UNK        -0.5000 
     20 C           0.1234  -22.0332  -44.9694 C.2       10 UNK         0.5000 
     21 O           0.4217  -23.1641  -45.3497 O.2       10 UNK        -0.5000 
     22 CA          0.2220  -21.6881  -43.4762 C.3       10 UNK         0.1400 
     23 CB          1.5411  -20.9682  -43.1674 C.3       10 UNK        -0.1800 
     24 N          -0.9114  -20.8797  -43.0247 N.am      10 UNK        -0.5000 
     25 C          -2.1672  -21.3409  -42.9349 C.2       9 UNK         0.5000 
     26 O          -2.4885  -22.5061  -43.1687 O.2       9 UNK        -0.5000 
     27 CA         -3.2522  -20.3102  -42.5826 C.3       9 UNK         0.1400 
     28 CB         -3.2646  -20.0182  -41.0747 C.3       9 UNK        -0.1800 
     29 N          -3.0915  -19.0638  -43.3345 N.am      9 UNK        -0.5000 
     30 C          -3.2709  -18.9677  -44.6606 C.2       8 UNK         0.5000 
     31 O          -3.5838  -19.9180  -45.3754 O.2       8 UNK        -0.5000 
     32 CA         -3.0421  -17.5962  -45.3185 C.3       8 UNK         0.1400 
     33 CB         -4.3629  -16.8150  -45.3794 C.3       8 UNK        -0.1800 
     34 N          -2.0225  -16.7784  -44.6655 N.am      8 UNK        -0.5000 
     35 C          -0.7367  -17.1153  -44.4952 C.2       7 UNK         0.5000 
     36 O          -0.2608  -18.1961  -44.8520 O.2       7 UNK        -0.5000 
     37 CA          0.1683  -16.0768  -43.7982 C.3       7 UNK         0.1400 
     38 CB         -0.5367  -14.7394  -43.4735 C.3       7 UNK        -0.1800 
     39 N           0.7978  -16.5902  -42.5809 N.am      7 UNK        -0.5000 
     40 C           0.1907  -17.1427  -41.5186 C.2       6 UNK         0.5000 
     41 O          -1.0045  -17.4387  -41.4868 O.2       6 UNK        -0.5000 
     42 CA          1.0560  -17.3751  -40.2613 C.3       6 UNK         0.1400 
     43 CB          1.5161  -18.8356  -40.1739 C.3       6 UNK        -0.1800 
     44 N           2.2327  -16.5038  -40.1983 N.am      6 UNK        -0.5000 
     45 C           2.1934  -15.1814  -39.9878 C.2       5 UNK         0.5000 
     46 O           1.1620  -14.5629  -39.7209 O.2       5 UNK        -0.5000 
     47 CA          3.5131  -14.3988  -40.1460 C.3       5 UNK         0.1400 
     48 CB          4.7874  -15.2630  -40.0079 C.3       5 UNK        -0.1800 
     49 N           3.5140  -13.6464  -41.4056 N.am      5 UNK        -0.5000 
     50 C           3.4270  -14.1471  -42.6474 C.2       4 UNK         0.5000 
     51 O           3.4237  -15.3548  -42.8987 O.2       4 UNK        -0.5000 
     52 CA          3.2443  -13.1430  -43.8039 C.3       4 UNK         0.1400 
     53 CB          3.5645  -11.6746  -43.4440 C.3       4 UNK        -0.1800 
     54 N           3.9568  -13.5627  -45.0098 N.am      4 UNK        -0.5000 
     55 C           5.2816  -13.6304  -45.2029 C.2       3 UNK         0.5000 
     56 O           6.1243  -13.3400  -44.3529 O.2       3 UNK        -0.5000 
     57 CA          5.7412  -14.0707  -46.6059 C.3       3 UNK         0.1400 
     58 CB          5.9594  -15.5911  -46.6542 C.3       3 UNK        -0.1800 
     59 N           4.7704  -13.6852  -47.6340 N.am      3 UNK        -0.5000 
     60 C           4.7225  -12.4775  -48.2165 C.2       2 UNK         0.5000 
     61 O           5.5643  -11.5975  -48.0331 O.2       2 UNK        -0.5000 
     62 CA          3.5261  -12.1937  -49.1491 C.3       2 UNK         0.1400 
     63 CB          3.8516  -12.6157  -50.5900 C.3       2 UNK        -0.1800 
     64 N           2.2995  -12.8676  -48.7210 N.am      2 UNK        -0.5000 
     65 C           1.5959  -12.5570  -47.6220 C.2       1 UNK         0.5000 
     66 O           1.8430  -11.5855  -46.9081 O.2       1 UNK        -0.5000 
     67 C          -1.6520  -22.3219  -47.4817 C.2       11 UNK         0.5000 
     68 O          -1.3911  -23.2296  -48.2726 O.2       11 UNK        -0.5000 
     69 N          -2.7928  -22.2509  -46.7808 N.am      12 UNK        -0.5000 
     70 CA         -3.8717  -23.2348  -46.8461 C.3       12 UNK         0.1400 
     71 CB         -5.0848  -22.7226  -46.0564 C.3       12 UNK        -0.1800 
     72 C          -3.4462  -24.6249  -46.3455 C.2       12 UNK         0.5000 
     73 O          -3.8249  -25.6215  -46.9569 O.2       12 UNK        -0.5000 
     74 N          -2.6462  -24.6791  -45.2714 N.am      13 UNK        -0.5000 
     75 CA         -2.0883  -25.9235  -44.7381 C.3       13 UNK         0.1400 
     76 CB         -1.4110  -25.6508  -43.3867 C.3       13 UNK        -0.1800 
     77 C          -1.1089  -26.6083  -45.7114 C.2       13 UNK         0.5000 
     78 O          -1.1221  -27.8351  -45.8201 O.2       13 UNK        -0.5000 
     79 N          -0.2847  -25.8074  -46.3988 N.am      14 UNK        -0.5000 
     80 CA          0.7090  -26.2734  -47.3605 C.3       14 UNK         0.1400 
     81 CB          1.7678  -25.1787  -47.5716 C.3       14 UNK        -0.1800 
     82 C           0.0917  -26.7010  -48.7032 C.2       14 UNK         0.5000 
     83 O           0.3541  -27.8146  -49.1601 O.2       14 UNK        -0.5000 
     84 N          -0.6774  -25.8012  -49.3303 N.am      15 UNK        -0.5000 
     85 CA         -1.1231  -25.9419  -50.7190 C.3       15 UNK         0.1400 
     86 CB         -0.9895  -24.5806  -51.4183 C.3       15 UNK        -0.1800 
     87 C          -2.5473  -26.5042  -50.8726 C.2       15 UNK         0.5000 
     88 O          -2.9148  -26.8764  -51.9880 O.2       15 UNK        -0.5000 
     89 N          -3.3278  -26.5685  -49.7833 N.am      16 UNK        -0.5000 
     90 CA         -4.7148  -27.0485  -49.7424 C.3       16 UNK         0.1400 
     91 CB         -4.7615  -28.5787  -49.9597 C.3       16 UNK        -0.1800 
     92 C          -5.6247  -26.2391  -50.6923 C.2       16 UNK         0.5000 
     93 O          -5.6168  -25.0083  -50.6333 O.2       16 UNK        -0.5000 
     94 N          -6.3720  -26.9249  -51.5669 N.am      17 UNK        -0.5000 
     95 CA         -7.2605  -26.3246  -52.5650 C.3       17 UNK         0.1400 
     96 CB         -8.1203  -27.4327  -53.1926 C.3       17 UNK        -0.1800 
     97 C          -6.5258  -25.5266  -53.6624 C.2       17 UNK         0.5000 
     98 O          -7.1436  -24.6698  -54.2953 O.2       17 UNK        -0.5000 
     99 N          -5.2295  -25.8030  -53.8661 N.am      18 UNK        -0.5000 
    100 CA        -4.3821  -25.1290  -54.8514 C.3       18 UNK         0.1400 
    101 CB        -3.2663  -26.0895  -55.2964 C.3       18 UNK        -0.1800 
    102 C         -3.7960  -23.7953  -54.3439 C.2       18 UNK         0.5000 
    103 O         -3.0968  -23.1307  -55.1095 O.2       18 UNK        -0.5000 
    104 N         -4.0690  -23.4243  -53.0815 N.am      19 UNK        -0.5000 
    105 CA        -3.6196  -22.1786  -52.4545 C.3       19 UNK         0.1400 
    106 CB        -4.0459  -22.1737  -50.9757 C.3       19 UNK        -0.1800 
    107 C         -4.1442  -20.9266  -53.1837 C.2       19 UNK         0.5000 
    108 O         -3.3580  -20.0454  -53.5312 O.2       19 UNK        -0.5000 
    109 N         -5.4676  -20.8849  -53.4052 N.am      20 UNK        -0.5000 
    110 CA        -6.2274  -19.8931  -54.1845 C.3       20 UNK         0.1400 
    111 CB        -5.8487  -20.0008  -55.6759 C.3       20 UNK        -0.1800 
    112 C         -6.1483  -18.4279  -53.6915 C.2       20 UNK         0.5000 
    113 O         -6.6649  -17.5392  -54.3710 O.2       20 UNK        -0.5000 
    114 N         -5.4971  -18.1871  -52.5434 N.am      21 UNK        -0.5000 
    115 CA        -5.2370  -16.8856  -51.9116 C.3       21 UNK         0.1400 
    116 CB        -6.5421  -16.3059  -51.3298 C.3       21 UNK        -0.1800 
    117 C         -4.4906  -15.8763  -52.8185 C.2       21 UNK         0.5000 
    118 O         -4.6623  -14.6672  -52.6541 O.2       21 UNK        -0.5000 
    119 N         -3.7130  -16.3905  -53.7844 N.am      22 UNK        -0.5000 
    120 CA        -3.1122  -15.6401  -54.9041 C.3       22 UNK         0.1400 
    121 C         -4.1491  -14.9704  -55.8656 C.2       22 UNK         0.5000 
    122 N         -5.4119  -15.3828  -55.8832 N.am      22 UNK        -0.7600 
    123 O         -3.8032  -14.0858  -56.6445 O.2       22 UNK        -0.5000 
    124 C124       -1.9718  -14.6743  -54.4587 C.3       23 UNK        -0.0398 
    125 S125       -0.4241  -15.5668  -54.0866 S.3       23 UNK        -0.2404 
    126 C126       -0.0038  -14.9587  -52.4207 C.3       23 UNK        -0.0205 
    127 H127        1.6485  -17.8635  -47.4813 H         1 UNK         0.0600 
    128 H128        2.3513  -17.1488  -48.9354 H         1 UNK         0.0600 
    129 H129        0.5968  -17.2277  -48.7536 H         1 UNK         0.0600 
    130 H130       -0.1722  -15.1348  -48.4329 H         1 UNK         0.3000 
    131 H131        0.5291  -13.6382  -46.1434 H         1 UNK         0.0600 
    132 H132       -1.0171  -11.9230  -46.9636 H         1 UNK         0.0800 
    133 H133       -1.0276  -12.6076  -48.5615 H         1 UNK         0.0800 
    134 H134       -4.1665  -14.6679  -48.3278 H         1 UNK         0.0800 
    135 H135       -3.3888  -13.2909  -49.0559 H         1 UNK         0.0800 
    136 H136       -1.4896  -13.5959  -50.5862 H         1 UNK         0.1150 
    137 H137       -0.5809  -17.5693  -51.8961 H         1 UNK         0.1150 
    138 H138       -3.2330  -16.9636  -48.5845 H         1 UNK         0.1150 
    139 H139       -3.0644  -19.1577  -49.5962 H         1 UNK         0.0800 
    140 H140       -2.4344  -19.2408  -51.2178 H         1 UNK         0.0800 
    141 H141       -0.3732  -19.0724  -47.4432 H         1 UNK         0.0800 
    142 H142       -2.0172  -19.6090  -47.6064 H         1 UNK         0.0800 
    143 H143        0.3378  -21.5550  -47.6514 H         1 UNK         0.0600 
    144 H144       -0.5098  -20.1509  -45.3760 H         1 UNK         0.3000 
    145 H145        0.2159  -22.6293  -42.9225 H         1 UNK         0.0600 
    146 H146        2.3867  -21.4784  -43.6309 H         1 UNK         0.0600 
    147 H147        1.5398  -19.9382  -43.5264 H         1 UNK         0.0600 
    148 H148        1.7273  -20.9604  -42.0953 H         1 UNK         0.0600 
    149 H149       -0.7448  -19.8954  -42.8697 H         1 UNK         0.3000 
    150 H150       -4.2197  -20.7414  -42.8493 H         1 UNK         0.0600 
    151 H151       -3.4576  -20.9285  -40.5058 H         1 UNK         0.0600 
    152 H152       -4.0452  -19.3023  -40.8171 H         1 UNK         0.0600 
    153 H153       -2.3123  -19.6152  -40.7299 H         1 UNK         0.0600 
    154 H154       -2.7743  -18.2529  -42.8183 H         1 UNK         0.3000 
    155 H155       -2.7061  -17.7720  -46.3407 H         1 UNK         0.0600 
    156 H156       -4.2528  -15.8874  -45.9390 H         1 UNK         0.0600 
    157 H157       -4.7281  -16.5643  -44.3827 H         1 UNK         0.0600 
    158 H158       -5.1392  -17.3983  -45.8766 H         1 UNK         0.0600 
    159 H159       -2.3244  -15.8747  -44.3319 H         1 UNK         0.3000 
    160 H160        0.9793  -15.8649  -44.4954 H         1 UNK         0.0600 
    161 H161       -1.3577  -14.8705  -42.7674 H         1 UNK         0.0600 
    162 H162       -0.9389  -14.2680  -44.3693 H         1 UNK         0.0600 
    163 H163        0.1596  -14.0304  -43.0265 H         1 UNK         0.0600 
    164 H164        1.7949  -16.4080  -42.5168 H         1 UNK         0.3000 
    165 H165        0.4257  -17.1657  -39.3945 H         1 UNK         0.0600 
    166 H166        2.2517  -19.0632  -40.9451 H         1 UNK         0.0600 
    167 H167        1.9730  -19.0452  -39.2066 H         1 UNK         0.0600 
    168 H168        0.6775  -19.5234  -40.2928 H         1 UNK         0.0600 
    169 H169        3.1203  -16.9222  -40.4368 H         1 UNK         0.3000 
    170 H170        3.5307  -13.6618  -39.3417 H         1 UNK         0.0600 
    171 H171        4.7968  -15.7946  -39.0556 H         1 UNK         0.0600 
    172 H172        4.8844  -16.0042  -40.8013 H         1 UNK         0.0600 
    173 H173        5.6808  -14.6391  -40.0349 H         1 UNK         0.0600 
    174 H174        3.4821  -12.6418  -41.3038 H         1 UNK         0.3000 
    175 H175        2.1872  -13.1840  -44.0671 H         1 UNK         0.0600 
    176 H176        4.5831  -11.5543  -43.0738 H         1 UNK         0.0600 
    177 H177        3.4508  -11.0288  -44.3153 H         1 UNK         0.0600 
    178 H178        2.8847  -11.2959  -42.6802 H         1 UNK         0.0600 
    179 H179        3.3736  -13.9558  -45.7399 H         1 UNK         0.3000 
    180 H180        6.6983  -13.5871  -46.8131 H         1 UNK         0.0600 
    181 H181        5.0454  -16.1405  -46.4268 H         1 UNK         0.0600 
    182 H182        6.7132  -15.8979  -45.9281 H         1 UNK         0.0600 
    183 H183        6.3065  -15.9087  -47.6375 H         1 UNK         0.0600 
    184 H184        4.0145  -14.3382  -47.7958 H         1 UNK         0.3000 
    185 H185        3.3454  -11.1167  -49.1406 H         1 UNK         0.0600 
    186 H186        3.0392  -12.3580  -51.2698 H         1 UNK         0.0600 
    187 H187        4.7487  -12.1109  -50.9509 H         1 UNK         0.0600 
    188 H188        4.0260  -13.6897  -50.6664 H         1 UNK         0.0600 
    189 H189        2.0196  -13.6798  -49.2506 H         1 UNK         0.3000 
    190 H190       -2.9498  -21.4582  -46.1622 H         1 UNK         0.3000 
    191 H191       -4.1661  -23.3370  -47.8930 H         1 UNK         0.0600 
    192 H192       -5.9080  -23.4370  -46.0957 H         1 UNK         0.0600 
    193 H193       -5.4513  -21.7811  -46.4660 H         1 UNK         0.0600 
    194 H194       -4.8396  -22.5575  -45.0064 H         1 UNK         0.0600 
    195 H195       -2.4117  -23.8226  -44.7815 H         1 UNK         0.3000 
    196 H196       -2.9171  -26.6131  -44.5650 H         1 UNK         0.0600 
    197 H197       -1.0066  -26.5695  -42.9600 H         1 UNK         0.0600 
    198 H198       -2.1195  -25.2425  -42.6659 H         1 UNK         0.0600 
    199 H199       -0.5871  -24.9440  -43.4843 H         1 UNK         0.0600 
    200 H200       -0.2995  -24.8100  -46.2084 H         1 UNK         0.3000 
    201 H201        1.2152  -27.1433  -46.9361 H         1 UNK         0.0600 
    202 H202        2.2858  -24.9495  -46.6402 H         1 UNK         0.0600 
    203 H203        1.3252  -24.2528  -47.9413 H         1 UNK         0.0600 
    204 H204        2.5215  -25.4956  -48.2935 H         1 UNK         0.0600 
    205 H205       -0.8714  -24.9077  -48.8810 H         1 UNK         0.3000 
    206 H206       -0.4643  -26.6343  -51.2474 H         1 UNK         0.0600 
    207 H207        0.0507  -24.2563  -51.4463 H         1 UNK         0.0600 
    208 H208       -1.3419  -24.6264  -52.4495 H         1 UNK         0.0600 
    209 H209       -1.5598  -23.8087  -50.9055 H         1 UNK         0.0600 
    210 H210       -2.9720  -26.2093  -48.9061 H         1 UNK         0.3000 
    211 H211       -5.0945  -26.8566  -48.7400 H         1 UNK         0.0600 
    212 H212       -4.4307  -28.8668  -50.9582 H         1 UNK         0.0600 
    213 H213       -5.7695  -28.9690  -49.8140 H         1 UNK         0.0600 
    214 H214       -4.1188  -29.0895  -49.2424 H         1 UNK         0.0600 
    215 H215       -6.3091  -27.9327  -51.5669 H         1 UNK         0.3000 
    216 H216       -7.9246  -25.6287  -52.0479 H         1 UNK         0.0600 
    217 H217       -8.8202  -27.0202  -53.9207 H         1 UNK         0.0600 
    218 H218       -8.7098  -27.9516  -52.4365 H         1 UNK         0.0600 
    219 H219       -7.5077  -28.1728  -53.7091 H         1 UNK         0.0600 
    220 H220       -4.7699  -26.4822  -53.2716 H         1 UNK         0.3000 
    221 H221       -4.9849  -24.8968  -55.7319 H         1 UNK         0.0600 
    222 H222       -2.5635  -26.2976  -54.4902 H         1 UNK         0.0600 
    223 H223       -3.6749  -27.0395  -55.6412 H         1 UNK         0.0600 
    224 H224       -2.6941  -25.6657  -56.1225 H         1 UNK         0.0600 
    225 H225       -4.6365  -24.0378  -52.5110 H         1 UNK         0.3000 
    226 H226       -2.5290  -22.1559  -52.4983 H         1 UNK         0.0600 
    227 H227       -3.6595  -23.0430  -50.4448 H         1 UNK         0.0600 
    228 H228       -3.6707  -21.2936  -50.4576 H         1 UNK         0.0600 
    229 H229       -5.1308  -22.1822  -50.8647 H         1 UNK         0.0600 
    230 H230       -6.0145  -21.6625  -53.0620 H         1 UNK         0.3000 
    231 H231       -7.2757  -20.1794  -54.0901 H         1 UNK         0.0600 
    232 H232       -6.4989  -19.3819  -56.2953 H         1 UNK         0.0600 
    233 H233       -5.9445  -21.0262  -56.0334 H         1 UNK         0.0600 
    234 H234       -4.8226  -19.6785  -55.8562 H         1 UNK         0.0600 
    235 H235       -5.0819  -18.9847  -52.0856 H         1 UNK         0.3000 
    236 H236       -4.5748  -17.0892  -51.0739 H         1 UNK         0.0600 
    237 H237       -7.0390  -17.0267  -50.6805 H         1 UNK         0.0600 
    238 H238       -6.3437  -15.4165  -50.7305 H         1 UNK         0.0600 
    239 H239       -7.2428  -16.0227  -52.1159 H         1 UNK         0.0600 
    240 H240       -3.6220  -17.3960  -53.8334 H         1 UNK         0.3000 
    241 H241       -2.6564  -16.4021  -55.5371 H         1 UNK         0.0600 
    242 H242       -5.7413  -16.1236  -55.2705 H         1 UNK         0.3800 
    243 H243       -6.0597  -14.9471  -56.5200 H         1 UNK         0.3800 
    244 H244       -1.7184  -13.9636  -55.2461 H         1 UNK         0.0800 
    245 H245       -2.2795  -14.0690  -53.6058 H         1 UNK         0.0800 
    246 H246        1.0217  -15.2510  -52.1915 H         1 UNK         0.0800 
    247 H247       -0.0190  -13.8677  -52.4227 H         1 UNK         0.0800 
@<TRIPOS>BOND
     1    1    2 1    
     2    1  127 1    
     3    1  128 1    
     4    1  129 1    
     5    2    3 2    
     6    2    4 am   BACKBONE|DICT|INTERRES
     7    4    5 1    
     8    4  130 1    
     9    5    6 1    
    10    5   65 1    
    11    5  131 1    
    12    6    7 1    
    13    6  132 1    
    14    6  133 1    
    15    7    8 1    
    16    8    9 1    
    17    8  134 1    
    18    8  135 1    
    19    9   10 ar   
    20    9   14 ar   
    21   10   11 ar   
    22   10  136 1    
    23   11   12 ar   
    24   11  126 1    
    25   12   13 ar   
    26   12  137 1    
    27   13   14 ar   
    28   13   15 1    
    29   14  138 1    
    30   15   16 1    
    31   15  139 1    
    32   15  140 1    
    33   16   17 1    
    34   17   18 1    
    35   17  141 1    
    36   17  142 1    
    37   18   19 1    
    38   18   67 1    
    39   18  143 1    
    40   19   20 am   BACKBONE|DICT|INTERRES
    41   19  144 1    
    42   20   21 2    
    43   20   22 1    
    44   22   23 1    
    45   22   24 1    
    46   22  145 1    
    47   23  146 1    
    48   23  147 1    
    49   23  148 1    
    50   24   25 am   BACKBONE|DICT|INTERRES
    51   24  149 1    
    52   25   26 2    
    53   25   27 1    
    54   27   28 1    
    55   27   29 1    
    56   27  150 1    
    57   28  151 1    
    58   28  152 1    
    59   28  153 1    
    60   29   30 am   BACKBONE|DICT|INTERRES
    61   29  154 1    
    62   30   31 2    
    63   30   32 1    
    64   32   33 1    
    65   32   34 1    
    66   32  155 1    
    67   33  156 1    
    68   33  157 1    
    69   33  158 1    
    70   34   35 am   BACKBONE|DICT|INTERRES
    71   34  159 1    
    72   35   36 2    
    73   35   37 1    
    74   37   38 1    
    75   37   39 1    
    76   37  160 1    
    77   38  161 1    
    78   38  162 1    
    79   38  163 1    
    80   39   40 am   BACKBONE|DICT|INTERRES
    81   39  164 1    
    82   40   41 2    
    83   40   42 1    
    84   42   43 1    
    85   42   44 1    
    86   42  165 1    
    87   43  166 1    
    88   43  167 1    
    89   43  168 1    
    90   44   45 am   BACKBONE|DICT|INTERRES
    91   44  169 1    
    92   45   46 2    
    93   45   47 1    
    94   47   48 1    
    95   47   49 1    
    96   47  170 1    
    97   48  171 1    
    98   48  172 1    
    99   48  173 1    
   100   49   50 am   BACKBONE|DICT|INTERRES
   101   49  174 1    
   102   50   51 2    
   103   50   52 1    
   104   52   53 1    
   105   52   54 1    
   106   52  175 1    
   107   53  176 1    
   108   53  177 1    
   109   53  178 1    
   110   54   55 am   BACKBONE|DICT|INTERRES
   111   54  179 1    
   112   55   56 2    
   113   55   57 1    
   114   57   58 1    
   115   57   59 1    
   116   57  180 1    
   117   58  181 1    
   118   58  182 1    
   119   58  183 1    
   120   59   60 am   BACKBONE|DICT|INTERRES
   121   59  184 1    
   122   60   61 2    
   123   60   62 1    
   124   62   63 1    
   125   62   64 1    
   126   62  185 1    
   127   63  186 1    
   128   63  187 1    
   129   63  188 1    
   130   64   65 am   BACKBONE|DICT|INTERRES
   131   64  189 1    
   132   65   66 2    
   133   67   68 2    
   134   67   69 am   BACKBONE|DICT|INTERRES
   135   69   70 1    
   136   69  190 1    
   137   70   71 1    
   138   70   72 1    
   139   70  191 1    
   140   71  192 1    
   141   71  193 1    
   142   71  194 1    
   143   72   73 2    
   144   72   74 am   BACKBONE|DICT|INTERRES
   145   74   75 1    
   146   74  195 1    
   147   75   76 1    
   148   75   77 1    
   149   75  196 1    
   150   76  197 1    
   151   76  198 1    
   152   76  199 1    
   153   77   78 2    
   154   77   79 am   BACKBONE|DICT|INTERRES
   155   79   80 1    
   156   79  200 1    
   157   80   81 1    
   158   80   82 1    
   159   80  201 1    
   160   81  202 1    
   161   81  203 1    
   162   81  204 1    
   163   82   83 2    
   164   82   84 am   BACKBONE|DICT|INTERRES
   165   84   85 1    
   166   84  205 1    
   167   85   86 1    
   168   85   87 1    
   169   85  206 1    
   170   86  207 1    
   171   86  208 1    
   172   86  209 1    
   173   87   88 2    
   174   87   89 am   BACKBONE|DICT|INTERRES
   175   89   90 1    
   176   89  210 1    
   177   90   91 1    
   178   90   92 1    
   179   90  211 1    
   180   91  212 1    
   181   91  213 1    
   182   91  214 1    
   183   92   93 2    
   184   92   94 am   BACKBONE|DICT|INTERRES
   185   94   95 1    
   186   94  215 1    
   187   95   96 1    
   188   95   97 1    
   189   95  216 1    
   190   96  217 1    
   191   96  218 1    
   192   96  219 1    
   193   97   98 2    
   194   97   99 am   BACKBONE|DICT|INTERRES
   195   99  100 1    
   196   99  220 1    
   197  100  101 1    
   198  100  102 1    
   199  100  221 1    
   200  101  222 1    
   201  101  223 1    
   202  101  224 1    
   203  102  103 2    
   204  102  104 am   BACKBONE|DICT|INTERRES
   205  104  105 1    
   206  104  225 1    
   207  105  106 1    
   208  105  107 1    
   209  105  226 1    
   210  106  227 1    
   211  106  228 1    
   212  106  229 1    
   213  107  108 2    
   214  107  109 am   BACKBONE|DICT|INTERRES
   215  109  110 1    
   216  109  230 1    
   217  110  111 1    
   218  110  112 1    
   219  110  231 1    
   220  111  232 1    
   221  111  233 1    
   222  111  234 1    
   223  112  113 2    
   224  112  114 am   BACKBONE|DICT|INTERRES
   225  114  115 1    
   226  114  235 1    
   227  115  116 1    
   228  115  117 1    
   229  115  236 1    
   230  116  237 1    
   231  116  238 1    
   232  116  239 1    
   233  117  118 2    
   234  117  119 am   BACKBONE|DICT|INTERRES
   235  119  120 1    
   236  119  240 1    
   237  120  121 1    
   238  120  124 1    
   239  120  241 1    
   240  121  122 am   BACKBONE|DICT|INTERRES
   241  121  123 2    
   242  122  242 1    
   243  122  243 1    
   244  124  125 1    
   245  124  244 1    
   246  124  245 1    
   247  125  126 1    
   248  126  246 1    
   249  126  247 1    
@<TRIPOS>SUBSTRUCTURE
     1 UNK         1 GROUP             0       ****    0 ROOT    
