@<TRIPOS>MOLECULE
3R540
247   249    1
SMALL
USER_CHARGES


@<TRIPOS>ATOM
      1 CA         -4.0923  -15.5205  -48.1405 C.3       0 UNK        -0.1800 
      2 C          -2.7274  -15.3619  -47.4854 C.2       0 UNK         0.5000 
      3 O          -2.3639  -16.1849  -46.6485 O.2       0 UNK        -0.5000 
      4 N          -1.9991  -14.2955  -47.8551 N.am      1 UNK        -0.5000 
      5 CA         -0.6155  -13.9380  -47.4828 C.3       1 UNK         0.1400 
      6 C6          0.4722  -14.6335  -48.3519 C.3       23 UNK        -0.0398 
      7 S7          0.5160  -16.4546  -48.2608 S.3       23 UNK        -0.2404 
      8 C8          1.5187  -16.8463  -49.7226 C.3       23 UNK        -0.0205 
      9 C9          1.4666  -18.3286  -50.0602 C.ar      23 UNK        -0.0193 
     10 C10         0.4362  -18.8223  -50.8638 C.ar      23 UNK        -0.1150 
     11 C11         0.4072  -20.1685  -51.2494 C.ar      23 UNK        -0.0193 
     12 C12         1.4158  -21.0241  -50.7943 C.ar      23 UNK        -0.1150 
     13 C13         2.4427  -20.5490  -49.9713 C.ar      23 UNK        -0.0193 
     14 C14         2.4613  -19.1987  -49.6070 C.ar      23 UNK        -0.1150 
     15 C15         3.5614  -21.4791  -49.5157 C.3       23 UNK        -0.0205 
     16 S16         2.9749  -22.8883  -48.5194 S.3       23 UNK        -0.2404 
     17 C17         2.3553  -22.0592  -47.0163 C.3       23 UNK        -0.0398 
     18 CA          1.0364  -22.6773  -46.4930 C.3       11 UNK         0.1400 
     19 N           0.7450  -22.2636  -45.1178 N.am      11 UNK        -0.5000 
     20 C          -0.2430  -22.7616  -44.3601 C.2       10 UNK         0.5000 
     21 O          -0.9864  -23.6738  -44.7182 O.2       10 UNK        -0.5000 
     22 CA         -0.4742  -22.1011  -42.9899 C.3       10 UNK         0.1400 
     23 CB          0.5134  -22.6443  -41.9469 C.3       10 UNK        -0.1800 
     24 N          -0.3824  -20.6427  -43.0480 N.am      10 UNK        -0.5000 
     25 C          -1.2120  -19.8546  -43.7480 C.2       9 UNK         0.5000 
     26 O          -2.1872  -20.2735  -44.3718 O.2       9 UNK        -0.5000 
     27 CA         -0.8632  -18.3541  -43.7931 C.3       9 UNK         0.1400 
     28 CB         -1.2913  -17.6636  -42.4892 C.3       9 UNK        -0.1800 
     29 N           0.5626  -18.1157  -44.0277 N.am      9 UNK        -0.5000 
     30 C           1.2385  -18.5349  -45.1084 C.2       8 UNK         0.5000 
     31 O           0.7280  -19.1485  -46.0431 O.2       8 UNK        -0.5000 
     32 CA          2.7596  -18.3112  -45.1015 C.3       8 UNK         0.1400 
     33 CB          3.1195  -16.8726  -45.4986 C.3       8 UNK        -0.1800 
     34 N           3.3353  -18.6269  -43.7944 N.am      8 UNK        -0.5000 
     35 C           3.4353  -19.8689  -43.2992 C.2       7 UNK         0.5000 
     36 O           3.0926  -20.8780  -43.9148 O.2       7 UNK        -0.5000 
     37 CA          3.9710  -20.0019  -41.8617 C.3       7 UNK         0.1400 
     38 CB          5.5067  -20.0002  -41.8537 C.3       7 UNK        -0.1800 
     39 N           3.4793  -18.9434  -40.9783 N.am      7 UNK        -0.5000 
     40 C           2.1985  -18.8010  -40.6085 C.2       6 UNK         0.5000 
     41 O           1.3043  -19.5787  -40.9378 O.2       6 UNK        -0.5000 
     42 CA          1.8504  -17.5552  -39.7712 C.3       6 UNK         0.1400 
     43 CB          2.0103  -17.8495  -38.2727 C.3       6 UNK        -0.1800 
     44 N           2.6473  -16.3759  -40.1221 N.am      6 UNK        -0.5000 
     45 C           2.6544  -15.7915  -41.3265 C.2       5 UNK         0.5000 
     46 O           1.9677  -16.1771  -42.2749 O.2       5 UNK        -0.5000 
     47 CA          3.5731  -14.5694  -41.4842 C.3       5 UNK         0.1400 
     48 CB          4.0945  -14.4178  -42.9230 C.3       5 UNK        -0.1800 
     49 N           2.8492  -13.3583  -41.1247 N.am      5 UNK        -0.5000 
     50 C           2.6579  -12.8907  -39.8857 C.2       4 UNK         0.5000 
     51 O           3.1149  -13.4395  -38.8819 O.2       4 UNK        -0.5000 
     52 CA          1.7919  -11.6197  -39.7272 C.3       4 UNK         0.1400 
     53 CB          2.5804  -10.4711  -39.0669 C.3       4 UNK        -0.1800 
     54 N           1.1271  -11.1781  -40.9637 N.am      4 UNK        -0.5000 
     55 C           1.6642  -10.6507  -42.0736 C.2       3 UNK         0.5000 
     56 O           2.8601  -10.3864  -42.2006 O.2       3 UNK        -0.5000 
     57 CA          0.7000  -10.4851  -43.2667 C.3       3 UNK         0.1400 
     58 CB          1.3692   -9.8322  -44.4894 C.3       3 UNK        -0.1800 
     59 N           0.1468  -11.7792  -43.6744 N.am      3 UNK        -0.5000 
     60 C          -0.8547  -12.4322  -43.0725 C.2       2 UNK         0.5000 
     61 O          -1.4406  -11.9883  -42.0828 O.2       2 UNK        -0.5000 
     62 CA         -1.2518  -13.8024  -43.6621 C.3       2 UNK         0.1400 
     63 CB         -2.5974  -14.3108  -43.1136 C.3       2 UNK        -0.1800 
     64 N          -1.3255  -13.7932  -45.1231 N.am      2 UNK        -0.5000 
     65 C          -0.2929  -13.9135  -45.9669 C.2       1 UNK         0.5000 
     66 O           0.8780  -13.9319  -45.5835 O.2       1 UNK        -0.5000 
     67 C          -0.1558  -22.4054  -47.4344 C.2       11 UNK         0.5000 
     68 O          -0.5757  -23.3134  -48.1505 O.2       11 UNK        -0.5000 
     69 N          -0.7193  -21.1915  -47.3688 N.am      12 UNK        -0.5000 
     70 CA         -1.9001  -20.7786  -48.1262 C.3       12 UNK         0.1400 
     71 CB         -2.1677  -19.2876  -47.8872 C.3       12 UNK        -0.1800 
     72 C          -3.1520  -21.6158  -47.8122 C.2       12 UNK         0.5000 
     73 O          -3.8925  -21.9664  -48.7328 O.2       12 UNK        -0.5000 
     74 N          -3.3507  -21.9464  -46.5292 N.am      13 UNK        -0.5000 
     75 CA         -4.4205  -22.8247  -46.0605 C.3       13 UNK         0.1400 
     76 CB         -4.5095  -22.7591  -44.5283 C.3       13 UNK        -0.1800 
     77 C          -4.2440  -24.2765  -46.5422 C.2       13 UNK         0.5000 
     78 O          -5.2075  -24.8726  -47.0237 O.2       13 UNK        -0.5000 
     79 N          -3.0194  -24.8100  -46.4252 N.am      14 UNK        -0.5000 
     80 CA         -2.6564  -26.1673  -46.8380 C.3       14 UNK         0.1400 
     81 CB         -1.2542  -26.5076  -46.3101 C.3       14 UNK        -0.1800 
     82 C          -2.7261  -26.3748  -48.3612 C.2       14 UNK         0.5000 
     83 O          -3.2217  -27.4086  -48.8114 O.2       14 UNK        -0.5000 
     84 N          -2.2439  -25.3860  -49.1253 N.am      15 UNK        -0.5000 
     85 CA         -2.2754  -25.3753  -50.5883 C.3       15 UNK         0.1400 
     86 CB         -1.2891  -24.3142  -51.1004 C.3       15 UNK        -0.1800 
     87 C          -3.6780  -25.1117  -51.1670 C.2       15 UNK         0.5000 
     88 O          -3.9121  -25.4511  -52.3265 O.2       15 UNK        -0.5000 
     89 N          -4.5634  -24.5050  -50.3606 N.am      16 UNK        -0.5000 
     90 CA         -5.8904  -23.9934  -50.7104 C.3       16 UNK         0.1400 
     91 CB         -6.8394  -25.1258  -51.1554 C.3       16 UNK        -0.1800 
     92 C          -5.7675  -22.8598  -51.7437 C.2       16 UNK         0.5000 
     93 O          -6.1617  -23.0212  -52.8995 O.2       16 UNK        -0.5000 
     94 N          -5.1730  -21.7433  -51.3008 N.am      17 UNK        -0.5000 
     95 CA         -4.7530  -20.5853  -52.0975 C.3       17 UNK         0.1400 
     96 CB         -4.3149  -19.4574  -51.1519 C.3       17 UNK        -0.1800 
     97 C          -5.7677  -20.0532  -53.1264 C.2       17 UNK         0.5000 
     98 O          -5.3706  -19.6957  -54.2365 O.2       17 UNK        -0.5000 
     99 N          -7.0548  -20.0447  -52.7557 N.am      18 UNK        -0.5000 
    100 CA        -8.1657  -19.6224  -53.6115 C.3       18 UNK         0.1400 
    101 CB        -9.4412  -19.5228  -52.7611 C.3       18 UNK        -0.1800 
    102 C         -8.3993  -20.5419  -54.8278 C.2       18 UNK         0.5000 
    103 O         -8.8615  -20.0617  -55.8635 O.2       18 UNK        -0.5000 
    104 N         -8.0746  -21.8336  -54.6871 N.am      19 UNK        -0.5000 
    105 CA        -8.1402  -22.8279  -55.7567 C.3       19 UNK         0.1400 
    106 CB        -8.5431  -24.1869  -55.1622 C.3       19 UNK        -0.1800 
    107 C         -6.7966  -22.9373  -56.4970 C.2       19 UNK         0.5000 
    108 O         -6.7914  -23.1186  -57.7151 O.2       19 UNK        -0.5000 
    109 N         -5.6853  -22.8238  -55.7544 N.am      20 UNK        -0.5000 
    110 CA        -4.3192  -22.9042  -56.2760 C.3       20 UNK         0.1400 
    111 CB        -3.3325  -23.0139  -55.1037 C.3       20 UNK        -0.1800 
    112 C         -3.9341  -21.7200  -57.1819 C.2       20 UNK         0.5000 
    113 O         -3.1495  -21.9096  -58.1121 O.2       20 UNK        -0.5000 
    114 N         -4.4824  -20.5304  -56.8867 N.am      21 UNK        -0.5000 
    115 CA        -4.2308  -19.2484  -57.5563 C.3       21 UNK         0.1400 
    116 CB        -4.7442  -19.2718  -59.0112 C.3       21 UNK        -0.1800 
    117 C         -2.7594  -18.7945  -57.4318 C.2       21 UNK         0.5000 
    118 O         -2.1872  -18.2484  -58.3768 O.2       21 UNK        -0.5000 
    119 N         -2.1770  -19.0420  -56.2532 N.am      22 UNK        -0.5000 
    120 CA        -0.7948  -18.7026  -55.8753 C.3       22 UNK         0.1400 
    121 C         -0.5253  -17.1875  -55.6282 C.2       22 UNK         0.5000 
    122 N         -1.5380  -16.3335  -55.5400 N.am      22 UNK        -0.7600 
    123 O          0.6282  -16.7773  -55.5315 O.2       22 UNK        -0.5000 
    124 C124       -0.3110  -19.5750  -54.6848 C.3       23 UNK        -0.0398 
    125 S125       -1.4663  -19.5380  -53.2732 S.3       23 UNK        -0.2404 
    126 C126       -0.7130  -20.7345  -52.1220 C.3       23 UNK        -0.0205 
    127 H127       -4.1370  -16.4645  -48.6839 H         1 UNK         0.0600 
    128 H128       -4.3039  -14.7138  -48.8426 H         1 UNK         0.0600 
    129 H129       -4.8746  -15.5260  -47.3815 H         1 UNK         0.0600 
    130 H130       -2.4148  -13.6633  -48.5247 H         1 UNK         0.3000 
    131 H131       -0.5534  -12.8821  -47.7505 H         1 UNK         0.0600 
    132 H132        1.4657  -14.2528  -48.1091 H         1 UNK         0.0800 
    133 H133        0.3059  -14.3568  -49.3936 H         1 UNK         0.0800 
    134 H134        1.1621  -16.2701  -50.5777 H         1 UNK         0.0800 
    135 H135        2.5485  -16.5317  -49.5467 H         1 UNK         0.0800 
    136 H136       -0.3384  -18.1446  -51.1920 H         1 UNK         0.1150 
    137 H137        1.4025  -22.0677  -51.0764 H         1 UNK         0.1150 
    138 H138        3.2586  -18.8179  -48.9843 H         1 UNK         0.1150 
    139 H139        4.0720  -21.8660  -50.3984 H         1 UNK         0.0800 
    140 H140        4.3138  -20.9333  -48.9443 H         1 UNK         0.0800 
    141 H141        2.2394  -20.9898  -47.1933 H         1 UNK         0.0800 
    142 H142        3.1347  -22.1552  -46.2598 H         1 UNK         0.0800 
    143 H143        1.1736  -23.7603  -46.4581 H         1 UNK         0.0600 
    144 H144        1.3368  -21.5367  -44.7303 H         1 UNK         0.3000 
    145 H145       -1.4845  -22.3573  -42.6647 H         1 UNK         0.0600 
    146 H146        0.4499  -23.7309  -41.8777 H         1 UNK         0.0600 
    147 H147        1.5439  -22.3901  -42.1955 H         1 UNK         0.0600 
    148 H148        0.3001  -22.2422  -40.9563 H         1 UNK         0.0600 
    149 H149        0.3605  -20.2122  -42.5048 H         1 UNK         0.3000 
    150 H150       -1.4106  -17.9003  -44.6218 H         1 UNK         0.0600 
    151 H151       -0.9730  -16.6231  -42.4663 H         1 UNK         0.0600 
    152 H152       -0.8700  -18.1540  -41.6123 H         1 UNK         0.0600 
    153 H153       -2.3763  -17.6793  -42.3817 H         1 UNK         0.0600 
    154 H154        1.0627  -17.5854  -43.3208 H         1 UNK         0.3000 
    155 H155        3.2048  -18.9828  -45.8388 H         1 UNK         0.0600 
    156 H156        2.8531  -16.6820  -46.5374 H         1 UNK         0.0600 
    157 H157        4.1890  -16.6870  -45.4025 H         1 UNK         0.0600 
    158 H158        2.5901  -16.1397  -44.8903 H         1 UNK         0.0600 
    159 H159        3.5773  -17.8452  -43.2044 H         1 UNK         0.3000 
    160 H160        3.6285  -20.9607  -41.4666 H         1 UNK         0.0600 
    161 H161        5.9004  -20.7923  -42.4921 H         1 UNK         0.0600 
    162 H162        5.8958  -20.1705  -40.8497 H         1 UNK         0.0600 
    163 H163        5.9123  -19.0546  -42.2158 H         1 UNK         0.0600 
    164 H164        4.1522  -18.2632  -40.6574 H         1 UNK         0.3000 
    165 H165        0.8026  -17.3143  -39.9610 H         1 UNK         0.0600 
    166 H166        1.6837  -17.0035  -37.6676 H         1 UNK         0.0600 
    167 H167        1.4085  -18.7102  -37.9775 H         1 UNK         0.0600 
    168 H168        3.0468  -18.0685  -38.0130 H         1 UNK         0.0600 
    169 H169        3.1973  -15.9624  -39.3813 H         1 UNK         0.3000 
    170 H170        4.4355  -14.6913  -40.8254 H         1 UNK         0.0600 
    171 H171        4.8006  -13.5907  -42.9981 H         1 UNK         0.0600 
    172 H172        4.6152  -15.3191  -43.2478 H         1 UNK         0.0600 
    173 H173        3.2858  -14.2268  -43.6300 H         1 UNK         0.0600 
    174 H174        2.4355  -12.8445  -41.8876 H         1 UNK         0.3000 
    175 H175        0.9854  -11.8939  -39.0457 H         1 UNK         0.0600 
    176 H176        3.4573  -10.1886  -39.6496 H         1 UNK         0.0600 
    177 H177        1.9582   -9.5849  -38.9424 H         1 UNK         0.0600 
    178 H178        2.9323  -10.7614  -38.0762 H         1 UNK         0.0600 
    179 H179        0.1360  -11.3974  -41.0154 H         1 UNK         0.3000 
    180 H180       -0.1137   -9.8326  -42.9431 H         1 UNK         0.0600 
    181 H181        0.6517   -9.6809  -45.2960 H         1 UNK         0.0600 
    182 H182        2.1848  -10.4437  -44.8778 H         1 UNK         0.0600 
    183 H183        1.7811   -8.8548  -44.2351 H         1 UNK         0.0600 
    184 H184        0.6076  -12.2503  -44.4454 H         1 UNK         0.3000 
    185 H185       -0.4762  -14.5093  -43.3601 H         1 UNK         0.0600 
    186 H186       -3.4090  -13.6159  -43.3326 H         1 UNK         0.0600 
    187 H187       -2.8602  -15.2765  -43.5462 H         1 UNK         0.0600 
    188 H188       -2.5570  -14.4416  -42.0315 H         1 UNK         0.0600 
    189 H189       -2.2517  -13.7597  -45.5226 H         1 UNK         0.3000 
    190 H190       -0.2892  -20.4817  -46.7778 H         1 UNK         0.3000 
    191 H191       -1.6729  -20.9179  -49.1826 H         1 UNK         0.0600 
    192 H192       -2.2727  -19.0606  -46.8263 H         1 UNK         0.0600 
    193 H193       -3.0806  -18.9570  -48.3822 H         1 UNK         0.0600 
    194 H194       -1.3506  -18.6819  -48.2757 H         1 UNK         0.0600 
    195 H195       -2.7276  -21.5641  -45.8245 H         1 UNK         0.3000 
    196 H196       -5.3624  -22.4514  -46.4682 H         1 UNK         0.0600 
    197 H197       -5.3169  -23.3910  -44.1564 H         1 UNK         0.0600 
    198 H198       -4.7089  -21.7423  -44.1894 H         1 UNK         0.0600 
    199 H199       -3.5861  -23.0925  -44.0545 H         1 UNK         0.0600 
    200 H200       -2.2849  -24.2625  -45.9834 H         1 UNK         0.3000 
    201 H201       -3.3668  -26.8569  -46.3775 H         1 UNK         0.0600 
    202 H202       -1.2207  -26.4575  -45.2217 H         1 UNK         0.0600 
    203 H203       -0.5009  -25.8216  -46.6993 H         1 UNK         0.0600 
    204 H204       -0.9610  -27.5178  -46.5984 H         1 UNK         0.0600 
    205 H205       -1.7908  -24.5910  -48.6773 H         1 UNK         0.3000 
    206 H206       -1.9459  -26.3515  -50.9498 H         1 UNK         0.0600 
    207 H207       -1.2775  -24.2768  -52.1905 H         1 UNK         0.0600 
    208 H208       -1.5573  -23.3220  -50.7381 H         1 UNK         0.0600 
    209 H209       -0.2722  -24.5262  -50.7694 H         1 UNK         0.0600 
    210 H210       -4.2405  -24.2524  -49.4360 H         1 UNK         0.3000 
    211 H211       -6.3043  -23.5561  -49.8004 H         1 UNK         0.0600 
    212 H212       -6.5185  -25.5938  -52.0863 H         1 UNK         0.0600 
    213 H213       -7.8469  -24.7421  -51.3190 H         1 UNK         0.0600 
    214 H214       -6.9056  -25.9036  -50.3948 H         1 UNK         0.0600 
    215 H215       -4.8392  -21.7508  -50.3392 H         1 UNK         0.3000 
    216 H216       -3.8808  -20.9116  -52.6597 H         1 UNK         0.0600 
    217 H217       -4.0426  -18.5581  -51.7062 H         1 UNK         0.0600 
    218 H218       -3.4389  -19.7537  -50.5778 H         1 UNK         0.0600 
    219 H219       -5.1049  -19.1872  -50.4505 H         1 UNK         0.0600 
    220 H220       -7.2895  -20.3716  -51.8301 H         1 UNK         0.3000 
    221 H221       -7.9325  -18.6267  -53.9947 H         1 UNK         0.0600 
    222 H222       -9.7120  -20.4866  -52.3281 H         1 UNK         0.0600 
    223 H223       -9.3177  -18.8099  -51.9457 H         1 UNK         0.0600 
    224 H224      -10.2861  -19.1839  -53.3621 H         1 UNK         0.0600 
    225 H225       -7.6337  -22.1378  -53.8249 H         1 UNK         0.3000 
    226 H226       -8.9035  -22.5414  -56.4834 H         1 UNK         0.0600 
    227 H227       -9.5108  -24.1268  -54.6641 H         1 UNK         0.0600 
    228 H228       -8.6251  -24.9442  -55.9427 H         1 UNK         0.0600 
    229 H229       -7.8141  -24.5446  -54.4341 H         1 UNK         0.0600 
    230 H230       -5.7866  -22.7441  -54.7466 H         1 UNK         0.3000 
    231 H231       -4.2430  -23.8168  -56.8708 H         1 UNK         0.0600 
    232 H232       -3.3314  -22.1114  -54.4947 H         1 UNK         0.0600 
    233 H233       -3.5777  -23.8562  -54.4577 H         1 UNK         0.0600 
    234 H234       -2.3139  -23.1646  -55.4633 H         1 UNK         0.0600 
    235 H235       -5.0616  -20.4706  -56.0546 H         1 UNK         0.3000 
    236 H236       -4.8206  -18.5074  -57.0148 H         1 UNK         0.0600 
    237 H237       -4.1592  -19.9441  -59.6391 H         1 UNK         0.0600 
    238 H238       -5.7852  -19.5922  -59.0555 H         1 UNK         0.0600 
    239 H239       -4.6912  -18.2789  -59.4592 H         1 UNK         0.0600 
    240 H240       -2.7295  -19.4734  -55.5257 H         1 UNK         0.3000 
    241 H241       -0.1660  -18.9629  -56.7289 H         1 UNK         0.0600 
    242 H242       -1.3509  -15.3550  -55.3878 H         1 UNK         0.3800 
    243 H243       -2.4884  -16.6583  -55.6111 H         1 UNK         0.3800 
    244 H244       -0.2158  -20.6102  -55.0151 H         1 UNK         0.0800 
    245 H245        0.6832  -19.2764  -54.3469 H         1 UNK         0.0800 
    246 H246       -1.5009  -21.1028  -51.4675 H         1 UNK         0.0800 
    247 H247       -0.3580  -21.5970  -52.6881 H         1 UNK         0.0800 
@<TRIPOS>BOND
     1    1    2 1    
     2    1  127 1    
     3    1  128 1    
     4    1  129 1    
     5    2    3 2    
     6    2    4 am   BACKBONE|DICT|INTERRES
     7    4    5 1    
     8    4  130 1    
     9    5    6 1    
    10    5   65 1    
    11    5  131 1    
    12    6    7 1    
    13    6  132 1    
    14    6  133 1    
    15    7    8 1    
    16    8    9 1    
    17    8  134 1    
    18    8  135 1    
    19    9   10 ar   
    20    9   14 ar   
    21   10   11 ar   
    22   10  136 1    
    23   11   12 ar   
    24   11  126 1    
    25   12   13 ar   
    26   12  137 1    
    27   13   14 ar   
    28   13   15 1    
    29   14  138 1    
    30   15   16 1    
    31   15  139 1    
    32   15  140 1    
    33   16   17 1    
    34   17   18 1    
    35   17  141 1    
    36   17  142 1    
    37   18   19 1    
    38   18   67 1    
    39   18  143 1    
    40   19   20 am   BACKBONE|DICT|INTERRES
    41   19  144 1    
    42   20   21 2    
    43   20   22 1    
    44   22   23 1    
    45   22   24 1    
    46   22  145 1    
    47   23  146 1    
    48   23  147 1    
    49   23  148 1    
    50   24   25 am   BACKBONE|DICT|INTERRES
    51   24  149 1    
    52   25   26 2    
    53   25   27 1    
    54   27   28 1    
    55   27   29 1    
    56   27  150 1    
    57   28  151 1    
    58   28  152 1    
    59   28  153 1    
    60   29   30 am   BACKBONE|DICT|INTERRES
    61   29  154 1    
    62   30   31 2    
    63   30   32 1    
    64   32   33 1    
    65   32   34 1    
    66   32  155 1    
    67   33  156 1    
    68   33  157 1    
    69   33  158 1    
    70   34   35 am   BACKBONE|DICT|INTERRES
    71   34  159 1    
    72   35   36 2    
    73   35   37 1    
    74   37   38 1    
    75   37   39 1    
    76   37  160 1    
    77   38  161 1    
    78   38  162 1    
    79   38  163 1    
    80   39   40 am   BACKBONE|DICT|INTERRES
    81   39  164 1    
    82   40   41 2    
    83   40   42 1    
    84   42   43 1    
    85   42   44 1    
    86   42  165 1    
    87   43  166 1    
    88   43  167 1    
    89   43  168 1    
    90   44   45 am   BACKBONE|DICT|INTERRES
    91   44  169 1    
    92   45   46 2    
    93   45   47 1    
    94   47   48 1    
    95   47   49 1    
    96   47  170 1    
    97   48  171 1    
    98   48  172 1    
    99   48  173 1    
   100   49   50 am   BACKBONE|DICT|INTERRES
   101   49  174 1    
   102   50   51 2    
   103   50   52 1    
   104   52   53 1    
   105   52   54 1    
   106   52  175 1    
   107   53  176 1    
   108   53  177 1    
   109   53  178 1    
   110   54   55 am   BACKBONE|DICT|INTERRES
   111   54  179 1    
   112   55   56 2    
   113   55   57 1    
   114   57   58 1    
   115   57   59 1    
   116   57  180 1    
   117   58  181 1    
   118   58  182 1    
   119   58  183 1    
   120   59   60 am   BACKBONE|DICT|INTERRES
   121   59  184 1    
   122   60   61 2    
   123   60   62 1    
   124   62   63 1    
   125   62   64 1    
   126   62  185 1    
   127   63  186 1    
   128   63  187 1    
   129   63  188 1    
   130   64   65 am   BACKBONE|DICT|INTERRES
   131   64  189 1    
   132   65   66 2    
   133   67   68 2    
   134   67   69 am   BACKBONE|DICT|INTERRES
   135   69   70 1    
   136   69  190 1    
   137   70   71 1    
   138   70   72 1    
   139   70  191 1    
   140   71  192 1    
   141   71  193 1    
   142   71  194 1    
   143   72   73 2    
   144   72   74 am   BACKBONE|DICT|INTERRES
   145   74   75 1    
   146   74  195 1    
   147   75   76 1    
   148   75   77 1    
   149   75  196 1    
   150   76  197 1    
   151   76  198 1    
   152   76  199 1    
   153   77   78 2    
   154   77   79 am   BACKBONE|DICT|INTERRES
   155   79   80 1    
   156   79  200 1    
   157   80   81 1    
   158   80   82 1    
   159   80  201 1    
   160   81  202 1    
   161   81  203 1    
   162   81  204 1    
   163   82   83 2    
   164   82   84 am   BACKBONE|DICT|INTERRES
   165   84   85 1    
   166   84  205 1    
   167   85   86 1    
   168   85   87 1    
   169   85  206 1    
   170   86  207 1    
   171   86  208 1    
   172   86  209 1    
   173   87   88 2    
   174   87   89 am   BACKBONE|DICT|INTERRES
   175   89   90 1    
   176   89  210 1    
   177   90   91 1    
   178   90   92 1    
   179   90  211 1    
   180   91  212 1    
   181   91  213 1    
   182   91  214 1    
   183   92   93 2    
   184   92   94 am   BACKBONE|DICT|INTERRES
   185   94   95 1    
   186   94  215 1    
   187   95   96 1    
   188   95   97 1    
   189   95  216 1    
   190   96  217 1    
   191   96  218 1    
   192   96  219 1    
   193   97   98 2    
   194   97   99 am   BACKBONE|DICT|INTERRES
   195   99  100 1    
   196   99  220 1    
   197  100  101 1    
   198  100  102 1    
   199  100  221 1    
   200  101  222 1    
   201  101  223 1    
   202  101  224 1    
   203  102  103 2    
   204  102  104 am   BACKBONE|DICT|INTERRES
   205  104  105 1    
   206  104  225 1    
   207  105  106 1    
   208  105  107 1    
   209  105  226 1    
   210  106  227 1    
   211  106  228 1    
   212  106  229 1    
   213  107  108 2    
   214  107  109 am   BACKBONE|DICT|INTERRES
   215  109  110 1    
   216  109  230 1    
   217  110  111 1    
   218  110  112 1    
   219  110  231 1    
   220  111  232 1    
   221  111  233 1    
   222  111  234 1    
   223  112  113 2    
   224  112  114 am   BACKBONE|DICT|INTERRES
   225  114  115 1    
   226  114  235 1    
   227  115  116 1    
   228  115  117 1    
   229  115  236 1    
   230  116  237 1    
   231  116  238 1    
   232  116  239 1    
   233  117  118 2    
   234  117  119 am   BACKBONE|DICT|INTERRES
   235  119  120 1    
   236  119  240 1    
   237  120  121 1    
   238  120  124 1    
   239  120  241 1    
   240  121  122 am   BACKBONE|DICT|INTERRES
   241  121  123 2    
   242  122  242 1    
   243  122  243 1    
   244  124  125 1    
   245  124  244 1    
   246  124  245 1    
   247  125  126 1    
   248  126  246 1    
   249  126  247 1    
@<TRIPOS>SUBSTRUCTURE
     1 UNK         1 GROUP             0       ****    0 ROOT    
