@<TRIPOS>MOLECULE
3R540
247   249    1
SMALL
USER_CHARGES


@<TRIPOS>ATOM
      1 CA         -2.9128  -11.9625  -48.0505 C.3       0 UNK        -0.1800 
      2 C          -2.5150  -13.4201  -47.8238 C.2       0 UNK         0.5000 
      3 O          -3.1994  -14.1165  -47.0780 O.2       0 UNK        -0.5000 
      4 N          -1.4381  -13.9290  -48.4389 N.am      1 UNK        -0.5000 
      5 CA         -0.4808  -13.2216  -49.2945 C.3       1 UNK         0.1400 
      6 C6          0.3195  -14.2021  -50.1930 C.3       23 UNK        -0.0398 
      7 S7          1.3655  -15.4035  -49.2937 S.3       23 UNK        -0.2404 
      8 C8          1.6848  -16.6484  -50.5882 C.3       23 UNK        -0.0205 
      9 C9          0.8031  -17.8890  -50.4727 C.ar      23 UNK        -0.0193 
     10 C10        -0.5914  -17.7840  -50.4666 C.ar      23 UNK        -0.1150 
     11 C11        -1.3948  -18.9252  -50.4023 C.ar      23 UNK        -0.0193 
     12 C12        -0.7960  -20.1854  -50.3454 C.ar      23 UNK        -0.1150 
     13 C13         0.5957  -20.3117  -50.3730 C.ar      23 UNK        -0.0193 
     14 C14         1.3878  -19.1599  -50.4351 C.ar      23 UNK        -0.1150 
     15 C15         1.2306  -21.6987  -50.3693 C.3       23 UNK        -0.0205 
     16 S16         2.4443  -21.9561  -49.0310 S.3       23 UNK        -0.2404 
     17 C17         1.5020  -21.4838  -47.5429 C.3       23 UNK        -0.0398 
     18 CA          0.8445  -22.6689  -46.7981 C.3       11 UNK         0.1400 
     19 N           0.4804  -22.2890  -45.4327 N.am      11 UNK        -0.5000 
     20 C           0.0078  -23.1126  -44.4890 C.2       10 UNK         0.5000 
     21 O          -0.1225  -24.3269  -44.6422 O.2       10 UNK        -0.5000 
     22 CA         -0.4420  -22.4561  -43.1697 C.3       10 UNK         0.1400 
     23 CB          0.7587  -22.1775  -42.2534 C.3       10 UNK        -0.1800 
     24 N          -1.1914  -21.2170  -43.3906 N.am      10 UNK        -0.5000 
     25 C          -2.3828  -21.1596  -44.0041 C.2       9 UNK         0.5000 
     26 O          -2.9978  -22.1523  -44.3927 O.2       9 UNK        -0.5000 
     27 CA         -2.9664  -19.7605  -44.2704 C.3       9 UNK         0.1400 
     28 CB         -3.6346  -19.1979  -43.0073 C.3       9 UNK        -0.1800 
     29 N          -1.9678  -18.8137  -44.7678 N.am      9 UNK        -0.5000 
     30 C          -1.3017  -18.9528  -45.9236 C.2       8 UNK         0.5000 
     31 O          -1.4818  -19.8837  -46.7038 O.2       8 UNK        -0.5000 
     32 CA         -0.2069  -17.9182  -46.2318 C.3       8 UNK         0.1400 
     33 CB         -0.8235  -16.6112  -46.7353 C.3       8 UNK        -0.1800 
     34 N           0.6344  -17.6332  -45.0729 N.am      8 UNK        -0.5000 
     35 C           1.3924  -18.5310  -44.4308 C.2       7 UNK         0.5000 
     36 O           1.4969  -19.7090  -44.7663 O.2       7 UNK        -0.5000 
     37 CA          2.1102  -18.0392  -43.1651 C.3       7 UNK         0.1400 
     38 CB          3.3879  -17.2660  -43.5251 C.3       7 UNK        -0.1800 
     39 N           1.2337  -17.2045  -42.3435 N.am      7 UNK        -0.5000 
     40 C           0.1565  -17.6617  -41.6882 C.2       6 UNK         0.5000 
     41 O          -0.1825  -18.8458  -41.6682 O.2       6 UNK        -0.5000 
     42 CA         -0.7056  -16.6087  -40.9680 C.3       6 UNK         0.1400 
     43 CB         -0.1065  -16.2610  -39.5971 C.3       6 UNK        -0.1800 
     44 N          -0.8644  -15.3836  -41.7546 N.am      6 UNK        -0.5000 
     45 C          -1.5588  -15.3081  -42.8992 C.2       5 UNK         0.5000 
     46 O          -2.1677  -16.2580  -43.3884 O.2       5 UNK        -0.5000 
     47 CA         -1.5328  -13.9581  -43.6417 C.3       5 UNK         0.1400 
     48 CB         -2.6553  -13.0386  -43.1392 C.3       5 UNK        -0.1800 
     49 N          -0.2467  -13.2607  -43.5393 N.am      5 UNK        -0.5000 
     50 C           0.9000  -13.7362  -44.0397 C.2       4 UNK         0.5000 
     51 O           1.0005  -14.8372  -44.5842 O.2       4 UNK        -0.5000 
     52 CA          2.1532  -12.8708  -43.8709 C.3       4 UNK         0.1400 
     53 CB          2.9716  -13.4025  -42.6744 C.3       4 UNK        -0.1800 
     54 N           2.8720  -12.9293  -45.1439 N.am      4 UNK        -0.5000 
     55 C           4.1486  -12.6426  -45.4271 C.2       3 UNK         0.5000 
     56 O           4.9919  -12.2824  -44.6055 O.2       3 UNK        -0.5000 
     57 CA          4.5360  -12.7404  -46.9166 C.3       3 UNK         0.1400 
     58 CB          4.7360  -14.2072  -47.3312 C.3       3 UNK        -0.1800 
     59 N           3.5414  -12.1213  -47.7970 N.am      3 UNK        -0.5000 
     60 C           3.2085  -10.8218  -47.7802 C.2       2 UNK         0.5000 
     61 O           3.7838   -9.9830  -47.0852 O.2       2 UNK        -0.5000 
     62 CA          2.0423  -10.3631  -48.6819 C.3       2 UNK         0.1400 
     63 CB          2.5730   -9.5345  -49.8629 C.3       2 UNK        -0.1800 
     64 N           1.1842  -11.4292  -49.2111 N.am      2 UNK        -0.5000 
     65 C           0.4378  -12.2747  -48.4871 C.2       1 UNK         0.5000 
     66 O           0.4612  -12.3191  -47.2543 O.2       1 UNK        -0.5000 
     67 C          -0.3643  -23.2399  -47.5687 C.2       11 UNK         0.5000 
     68 O          -0.2520  -24.3113  -48.1628 O.2       11 UNK        -0.5000 
     69 N          -1.5085  -22.5448  -47.5097 N.am      12 UNK        -0.5000 
     70 CA         -2.7697  -22.9592  -48.1225 C.3       12 UNK         0.1400 
     71 CB         -3.8036  -21.8317  -47.9964 C.3       12 UNK        -0.1800 
     72 C          -3.3222  -24.2669  -47.5320 C.2       12 UNK         0.5000 
     73 O          -3.8267  -25.1007  -48.2821 O.2       12 UNK        -0.5000 
     74 N          -3.1886  -24.4454  -46.2102 N.am      13 UNK        -0.5000 
     75 CA         -3.5460  -25.6765  -45.5054 C.3       13 UNK         0.1400 
     76 CB         -3.4980  -25.4414  -43.9883 C.3       13 UNK        -0.1800 
     77 C          -2.6554  -26.8666  -45.9080 C.2       13 UNK         0.5000 
     78 O          -3.1731  -27.9663  -46.1031 O.2       13 UNK        -0.5000 
     79 N          -1.3454  -26.6220  -46.0576 N.am      14 UNK        -0.5000 
     80 CA         -0.3640  -27.6045  -46.5221 C.3       14 UNK         0.1400 
     81 CB          1.0557  -27.0662  -46.2867 C.3       14 UNK        -0.1800 
     82 C          -0.5679  -27.9959  -47.9983 C.2       14 UNK         0.5000 
     83 O          -0.4797  -29.1785  -48.3307 O.2       14 UNK        -0.5000 
     84 N          -0.8611  -27.0033  -48.8498 N.am      15 UNK        -0.5000 
     85 CA         -1.1919  -27.1829  -50.2659 C.3       15 UNK         0.1400 
     86 CB         -1.1239  -25.8182  -50.9708 C.3       15 UNK        -0.1800 
     87 C          -2.5748  -27.8266  -50.4912 C.2       15 UNK         0.5000 
     88 O          -2.7959  -28.4284  -51.5425 O.2       15 UNK        -0.5000 
     89 N          -3.4726  -27.6683  -49.5081 N.am      16 UNK        -0.5000 
     90 CA         -4.8850  -28.0583  -49.4941 C.3       16 UNK         0.1400 
     91 CB         -5.0410  -29.5906  -49.5834 C.3       16 UNK        -0.1800 
     92 C          -5.7242  -27.2946  -50.5417 C.2       16 UNK         0.5000 
     93 O          -6.7051  -27.8335  -51.0582 O.2       16 UNK        -0.5000 
     94 N          -5.3271  -26.0500  -50.8326 N.am      17 UNK        -0.5000 
     95 CA         -5.9216  -25.1598  -51.8237 C.3       17 UNK         0.1400 
     96 CB         -5.6457  -25.6816  -53.2484 C.3       17 UNK        -0.1800 
     97 C          -5.3209  -23.7582  -51.6576 C.2       17 UNK         0.5000 
     98 O          -4.2140  -23.6206  -51.1304 O.2       17 UNK        -0.5000 
     99 N          -6.0335  -22.7414  -52.1576 N.am      18 UNK        -0.5000 
    100 CA        -5.5568  -21.3619  -52.2575 C.3       18 UNK         0.1400 
    101 CB        -6.7606  -20.4180  -52.4204 C.3       18 UNK        -0.1800 
    102 C         -4.5460  -21.2351  -53.4152 C.2       18 UNK         0.5000 
    103 O         -4.9127  -20.8315  -54.5196 O.2       18 UNK        -0.5000 
    104 N         -3.3027  -21.6535  -53.1487 N.am      19 UNK        -0.5000 
    105 CA        -2.2207  -21.7915  -54.1274 C.3       19 UNK         0.1400 
    106 CB        -1.0641  -22.5601  -53.4701 C.3       19 UNK        -0.1800 
    107 C         -1.7134  -20.4673  -54.7349 C.2       19 UNK         0.5000 
    108 O         -1.0994  -20.4972  -55.8026 O.2       19 UNK        -0.5000 
    109 N         -1.9716  -19.3409  -54.0620 N.am      20 UNK        -0.5000 
    110 CA        -1.6230  -17.9949  -54.5064 C.3       20 UNK         0.1400 
    111 CB        -0.1391  -17.6915  -54.2084 C.3       20 UNK        -0.1800 
    112 C         -2.6178  -16.9801  -53.9125 C.2       20 UNK         0.5000 
    113 O         -3.7937  -17.3108  -53.7416 O.2       20 UNK        -0.5000 
    114 N         -2.1467  -15.7602  -53.6264 N.am      21 UNK        -0.5000 
    115 CA        -2.9300  -14.5749  -53.2628 C.3       21 UNK         0.1400 
    116 CB        -2.0553  -13.3310  -53.5104 C.3       21 UNK        -0.1800 
    117 C         -3.5462  -14.5878  -51.8428 C.2       21 UNK         0.5000 
    118 O         -3.4311  -13.5965  -51.1220 O.2       21 UNK        -0.5000 
    119 N         -4.2178  -15.6838  -51.4737 N.am      22 UNK        -0.5000 
    120 CA        -5.0422  -15.7898  -50.2532 C.3       22 UNK         0.1400 
    121 C         -6.4610  -15.1617  -50.3993 C.2       22 UNK         0.5000 
    122 N         -6.9047  -14.7714  -51.5887 N.am      22 UNK        -0.7600 
    123 O         -7.1737  -15.0159  -49.4103 O.2       22 UNK        -0.5000 
    124 C124       -5.1397  -17.2497  -49.7358 C.3       23 UNK        -0.0398 
    125 S125       -3.5586  -17.8410  -49.0524 S.3       23 UNK        -0.2404 
    126 C126       -2.9074  -18.7929  -50.4532 C.3       23 UNK        -0.0205 
    127 H127       -3.8829  -11.7598  -47.5962 H         1 UNK         0.0600 
    128 H128       -2.9966  -11.7340  -49.1125 H         1 UNK         0.0600 
    129 H129       -2.1876  -11.2870  -47.5975 H         1 UNK         0.0600 
    130 H130       -1.1864  -14.8843  -48.2355 H         1 UNK         0.3000 
    131 H131       -1.0561  -12.5881  -49.9714 H         1 UNK         0.0600 
    132 H132        0.9578  -13.6535  -50.8871 H         1 UNK         0.0800 
    133 H133       -0.3807  -14.7447  -50.8270 H         1 UNK         0.0800 
    134 H134        1.5565  -16.2062  -51.5768 H         1 UNK         0.0800 
    135 H135        2.7366  -16.9300  -50.5207 H         1 UNK         0.0800 
    136 H136       -1.0644  -16.8158  -50.5202 H         1 UNK         0.1150 
    137 H137       -1.4143  -21.0704  -50.3006 H         1 UNK         0.1150 
    138 H138        2.4637  -19.2589  -50.4640 H         1 UNK         0.1150 
    139 H139        0.4664  -22.4743  -50.3020 H         1 UNK         0.0800 
    140 H140        1.7313  -21.8532  -51.3258 H         1 UNK         0.0800 
    141 H141        0.7737  -20.7072  -47.7724 H         1 UNK         0.0800 
    142 H142        2.2290  -21.0076  -46.8851 H         1 UNK         0.0800 
    143 H143        1.5842  -23.4676  -46.7117 H         1 UNK         0.0600 
    144 H144        0.6023  -21.3073  -45.1965 H         1 UNK         0.3000 
    145 H145       -1.1019  -23.1595  -42.6578 H         1 UNK         0.0600 
    146 H146        0.4355  -21.7745  -41.2935 H         1 UNK         0.0600 
    147 H147        1.3162  -23.0931  -42.0521 H         1 UNK         0.0600 
    148 H148        1.4508  -21.4624  -42.6983 H         1 UNK         0.0600 
    149 H149       -0.7601  -20.3560  -43.0733 H         1 UNK         0.3000 
    150 H150       -3.7330  -19.8644  -45.0410 H         1 UNK         0.0600 
    151 H151       -4.3851  -19.8886  -42.6210 H         1 UNK         0.0600 
    152 H152       -4.1387  -18.2543  -43.2166 H         1 UNK         0.0600 
    153 H153       -2.9097  -19.0202  -42.2124 H         1 UNK         0.0600 
    154 H154       -1.8045  -17.9852  -44.2030 H         1 UNK         0.3000 
    155 H155        0.4364  -18.3183  -47.0183 H         1 UNK         0.0600 
    156 H156       -0.0721  -15.8275  -46.8170 H         1 UNK         0.0600 
    157 H157       -1.2600  -16.7528  -47.7222 H         1 UNK         0.0600 
    158 H158       -1.6097  -16.2476  -46.0736 H         1 UNK         0.0600 
    159 H159        0.6518  -16.6664  -44.7570 H         1 UNK         0.3000 
    160 H160        2.3959  -18.9143  -42.5774 H         1 UNK         0.0600 
    161 H161        3.1756  -16.3989  -44.1511 H         1 UNK         0.0600 
    162 H162        4.0811  -17.9018  -44.0771 H         1 UNK         0.0600 
    163 H163        3.9065  -16.9196  -42.6311 H         1 UNK         0.0600 
    164 H164        1.4108  -16.2118  -42.3536 H         1 UNK         0.3000 
    165 H165       -1.6952  -17.0421  -40.8076 H         1 UNK         0.0600 
    166 H166       -0.7511  -15.5742  -39.0483 H         1 UNK         0.0600 
    167 H167        0.0093  -17.1561  -38.9843 H         1 UNK         0.0600 
    168 H168        0.8764  -15.7974  -39.6904 H         1 UNK         0.0600 
    169 H169       -0.3955  -14.5558  -41.4184 H         1 UNK         0.3000 
    170 H170       -1.7129  -14.1641  -44.6988 H         1 UNK         0.0600 
    171 H171       -3.6265  -13.5280  -43.2251 H         1 UNK         0.0600 
    172 H172       -2.5157  -12.7649  -42.0927 H         1 UNK         0.0600 
    173 H173       -2.7039  -12.1207  -43.7253 H         1 UNK         0.0600 
    174 H174       -0.2567  -12.3537  -43.0956 H         1 UNK         0.3000 
    175 H175        1.8594  -11.8360  -43.6884 H         1 UNK         0.0600 
    176 H176        2.3418  -13.5414  -41.7946 H         1 UNK         0.0600 
    177 H177        3.4403  -14.3604  -42.8976 H         1 UNK         0.0600 
    178 H178        3.7564  -12.7043  -42.3854 H         1 UNK         0.0600 
    179 H179        2.2772  -13.2085  -45.9154 H         1 UNK         0.3000 
    180 H180        5.4821  -12.2128  -47.0540 H         1 UNK         0.0600 
    181 H181        3.8139  -14.7831  -47.2398 H         1 UNK         0.0600 
    182 H182        5.4870  -14.6902  -46.7047 H         1 UNK         0.0600 
    183 H183        5.0768  -14.2831  -48.3639 H         1 UNK         0.0600 
    184 H184        3.0181  -12.7394  -48.3988 H         1 UNK         0.3000 
    185 H185        1.4115   -9.7148  -48.0702 H         1 UNK         0.0600 
    186 H186        3.1854   -8.7011  -49.5154 H         1 UNK         0.0600 
    187 H187        3.1893  -10.1375  -50.5309 H         1 UNK         0.0600 
    188 H188        1.7567   -9.1104  -50.4479 H         1 UNK         0.0600 
    189 H189        1.1158  -11.4631  -50.2178 H         1 UNK         0.3000 
    190 H190       -1.5107  -21.6368  -47.0461 H         1 UNK         0.3000 
    191 H191       -2.5716  -23.1267  -49.1818 H         1 UNK         0.0600 
    192 H192       -4.0685  -21.6427  -46.9558 H         1 UNK         0.0600 
    193 H193       -4.7196  -22.0814  -48.5332 H         1 UNK         0.0600 
    194 H194       -3.4230  -20.9008  -48.4128 H         1 UNK         0.0600 
    195 H195       -2.8250  -23.6830  -45.6464 H         1 UNK         0.3000 
    196 H196       -4.5743  -25.9272  -45.7741 H         1 UNK         0.0600 
    197 H197       -3.7835  -26.3426  -43.4444 H         1 UNK         0.0600 
    198 H198       -4.1863  -24.6501  -43.6909 H         1 UNK         0.0600 
    199 H199       -2.5000  -25.1583  -43.6539 H         1 UNK         0.0600 
    200 H200       -0.9912  -25.6986  -45.8277 H         1 UNK         0.3000 
    201 H201       -0.4846  -28.5079  -45.9205 H         1 UNK         0.0600 
    202 H202        1.2270  -26.8578  -45.2305 H         1 UNK         0.0600 
    203 H203        1.2368  -26.1453  -46.8412 H         1 UNK         0.0600 
    204 H204        1.8059  -27.7925  -46.6016 H         1 UNK         0.0600 
    205 H205       -0.8324  -26.0444  -48.5090 H         1 UNK         0.3000 
    206 H206       -0.4425  -27.8389  -50.7132 H         1 UNK         0.0600 
    207 H207       -0.1331  -25.3729  -50.8778 H         1 UNK         0.0600 
    208 H208       -1.3393  -25.9156  -52.0355 H         1 UNK         0.0600 
    209 H209       -1.8460  -25.1152  -50.5538 H         1 UNK         0.0600 
    210 H210       -3.1941  -27.0849  -48.7284 H         1 UNK         0.3000 
    211 H211       -5.2671  -27.7474  -48.5208 H         1 UNK         0.0600 
    212 H212       -4.7511  -29.9728  -50.5623 H         1 UNK         0.0600 
    213 H213       -6.0758  -29.8882  -49.4107 H         1 UNK         0.0600 
    214 H214       -4.4306  -30.0918  -48.8320 H         1 UNK         0.0600 
    215 H215       -4.5534  -25.6436  -50.3141 H         1 UNK         0.3000 
    216 H216       -6.9976  -25.1039  -51.6484 H         1 UNK         0.0600 
    217 H217       -4.5759  -25.7936  -53.4308 H         1 UNK         0.0600 
    218 H218       -6.0374  -24.9981  -54.0026 H         1 UNK         0.0600 
    219 H219       -6.1160  -26.6493  -53.4217 H         1 UNK         0.0600 
    220 H220       -6.9171  -22.9386  -52.6051 H         1 UNK         0.3000 
    221 H221       -5.0532  -21.0956  -51.3270 H         1 UNK         0.0600 
    222 H222       -7.4196  -20.4682  -51.5534 H         1 UNK         0.0600 
    223 H223       -7.3512  -20.6613  -53.3045 H         1 UNK         0.0600 
    224 H224       -6.4323  -19.3824  -52.5196 H         1 UNK         0.0600 
    225 H225       -3.1396  -22.0732  -52.2417 H         1 UNK         0.3000 
    226 H226       -2.6016  -22.3965  -54.9528 H         1 UNK         0.0600 
    227 H227       -0.2599  -22.7444  -54.1834 H         1 UNK         0.0600 
    228 H228       -0.6394  -22.0038  -52.6356 H         1 UNK         0.0600 
    229 H229       -1.3942  -23.5293  -53.0958 H         1 UNK         0.0600 
    230 H230       -2.5413  -19.3949  -53.2312 H         1 UNK         0.3000 
    231 H231       -1.7664  -17.9435  -55.5876 H         1 UNK         0.0600 
    232 H232        0.0598  -17.6736  -53.1396 H         1 UNK         0.0600 
    233 H233        0.1680  -16.7319  -54.6249 H         1 UNK         0.0600 
    234 H234        0.5137  -18.4453  -54.6485 H         1 UNK         0.0600 
    235 H235       -1.1602  -15.5995  -53.7655 H         1 UNK         0.3000 
    236 H236       -3.7732  -14.5170  -53.9541 H         1 UNK         0.0600 
    237 H237       -1.6980  -13.2975  -54.5398 H         1 UNK         0.0600 
    238 H238       -2.6172  -12.4118  -53.3390 H         1 UNK         0.0600 
    239 H239       -1.1859  -13.3128  -52.8525 H         1 UNK         0.0600 
    240 H240       -4.2753  -16.4457  -52.1431 H         1 UNK         0.3000 
    241 H241       -4.5564  -15.2056  -49.4690 H         1 UNK         0.0600 
    242 H242       -7.8231  -14.3625  -51.6640 H         1 UNK         0.3800 
    243 H243       -6.3402  -14.8877  -52.4142 H         1 UNK         0.3800 
    244 H244       -5.4917  -17.9211  -50.5204 H         1 UNK         0.0800 
    245 H245       -5.8681  -17.3262  -48.9265 H         1 UNK         0.0800 
    246 H246       -3.3838  -19.7716  -50.4668 H         1 UNK         0.0800 
    247 H247       -3.1798  -18.3026  -51.3838 H         1 UNK         0.0800 
@<TRIPOS>BOND
     1    1    2 1    
     2    1  127 1    
     3    1  128 1    
     4    1  129 1    
     5    2    3 2    
     6    2    4 am   BACKBONE|DICT|INTERRES
     7    4    5 1    
     8    4  130 1    
     9    5    6 1    
    10    5   65 1    
    11    5  131 1    
    12    6    7 1    
    13    6  132 1    
    14    6  133 1    
    15    7    8 1    
    16    8    9 1    
    17    8  134 1    
    18    8  135 1    
    19    9   10 ar   
    20    9   14 ar   
    21   10   11 ar   
    22   10  136 1    
    23   11   12 ar   
    24   11  126 1    
    25   12   13 ar   
    26   12  137 1    
    27   13   14 ar   
    28   13   15 1    
    29   14  138 1    
    30   15   16 1    
    31   15  139 1    
    32   15  140 1    
    33   16   17 1    
    34   17   18 1    
    35   17  141 1    
    36   17  142 1    
    37   18   19 1    
    38   18   67 1    
    39   18  143 1    
    40   19   20 am   BACKBONE|DICT|INTERRES
    41   19  144 1    
    42   20   21 2    
    43   20   22 1    
    44   22   23 1    
    45   22   24 1    
    46   22  145 1    
    47   23  146 1    
    48   23  147 1    
    49   23  148 1    
    50   24   25 am   BACKBONE|DICT|INTERRES
    51   24  149 1    
    52   25   26 2    
    53   25   27 1    
    54   27   28 1    
    55   27   29 1    
    56   27  150 1    
    57   28  151 1    
    58   28  152 1    
    59   28  153 1    
    60   29   30 am   BACKBONE|DICT|INTERRES
    61   29  154 1    
    62   30   31 2    
    63   30   32 1    
    64   32   33 1    
    65   32   34 1    
    66   32  155 1    
    67   33  156 1    
    68   33  157 1    
    69   33  158 1    
    70   34   35 am   BACKBONE|DICT|INTERRES
    71   34  159 1    
    72   35   36 2    
    73   35   37 1    
    74   37   38 1    
    75   37   39 1    
    76   37  160 1    
    77   38  161 1    
    78   38  162 1    
    79   38  163 1    
    80   39   40 am   BACKBONE|DICT|INTERRES
    81   39  164 1    
    82   40   41 2    
    83   40   42 1    
    84   42   43 1    
    85   42   44 1    
    86   42  165 1    
    87   43  166 1    
    88   43  167 1    
    89   43  168 1    
    90   44   45 am   BACKBONE|DICT|INTERRES
    91   44  169 1    
    92   45   46 2    
    93   45   47 1    
    94   47   48 1    
    95   47   49 1    
    96   47  170 1    
    97   48  171 1    
    98   48  172 1    
    99   48  173 1    
   100   49   50 am   BACKBONE|DICT|INTERRES
   101   49  174 1    
   102   50   51 2    
   103   50   52 1    
   104   52   53 1    
   105   52   54 1    
   106   52  175 1    
   107   53  176 1    
   108   53  177 1    
   109   53  178 1    
   110   54   55 am   BACKBONE|DICT|INTERRES
   111   54  179 1    
   112   55   56 2    
   113   55   57 1    
   114   57   58 1    
   115   57   59 1    
   116   57  180 1    
   117   58  181 1    
   118   58  182 1    
   119   58  183 1    
   120   59   60 am   BACKBONE|DICT|INTERRES
   121   59  184 1    
   122   60   61 2    
   123   60   62 1    
   124   62   63 1    
   125   62   64 1    
   126   62  185 1    
   127   63  186 1    
   128   63  187 1    
   129   63  188 1    
   130   64   65 am   BACKBONE|DICT|INTERRES
   131   64  189 1    
   132   65   66 2    
   133   67   68 2    
   134   67   69 am   BACKBONE|DICT|INTERRES
   135   69   70 1    
   136   69  190 1    
   137   70   71 1    
   138   70   72 1    
   139   70  191 1    
   140   71  192 1    
   141   71  193 1    
   142   71  194 1    
   143   72   73 2    
   144   72   74 am   BACKBONE|DICT|INTERRES
   145   74   75 1    
   146   74  195 1    
   147   75   76 1    
   148   75   77 1    
   149   75  196 1    
   150   76  197 1    
   151   76  198 1    
   152   76  199 1    
   153   77   78 2    
   154   77   79 am   BACKBONE|DICT|INTERRES
   155   79   80 1    
   156   79  200 1    
   157   80   81 1    
   158   80   82 1    
   159   80  201 1    
   160   81  202 1    
   161   81  203 1    
   162   81  204 1    
   163   82   83 2    
   164   82   84 am   BACKBONE|DICT|INTERRES
   165   84   85 1    
   166   84  205 1    
   167   85   86 1    
   168   85   87 1    
   169   85  206 1    
   170   86  207 1    
   171   86  208 1    
   172   86  209 1    
   173   87   88 2    
   174   87   89 am   BACKBONE|DICT|INTERRES
   175   89   90 1    
   176   89  210 1    
   177   90   91 1    
   178   90   92 1    
   179   90  211 1    
   180   91  212 1    
   181   91  213 1    
   182   91  214 1    
   183   92   93 2    
   184   92   94 am   BACKBONE|DICT|INTERRES
   185   94   95 1    
   186   94  215 1    
   187   95   96 1    
   188   95   97 1    
   189   95  216 1    
   190   96  217 1    
   191   96  218 1    
   192   96  219 1    
   193   97   98 2    
   194   97   99 am   BACKBONE|DICT|INTERRES
   195   99  100 1    
   196   99  220 1    
   197  100  101 1    
   198  100  102 1    
   199  100  221 1    
   200  101  222 1    
   201  101  223 1    
   202  101  224 1    
   203  102  103 2    
   204  102  104 am   BACKBONE|DICT|INTERRES
   205  104  105 1    
   206  104  225 1    
   207  105  106 1    
   208  105  107 1    
   209  105  226 1    
   210  106  227 1    
   211  106  228 1    
   212  106  229 1    
   213  107  108 2    
   214  107  109 am   BACKBONE|DICT|INTERRES
   215  109  110 1    
   216  109  230 1    
   217  110  111 1    
   218  110  112 1    
   219  110  231 1    
   220  111  232 1    
   221  111  233 1    
   222  111  234 1    
   223  112  113 2    
   224  112  114 am   BACKBONE|DICT|INTERRES
   225  114  115 1    
   226  114  235 1    
   227  115  116 1    
   228  115  117 1    
   229  115  236 1    
   230  116  237 1    
   231  116  238 1    
   232  116  239 1    
   233  117  118 2    
   234  117  119 am   BACKBONE|DICT|INTERRES
   235  119  120 1    
   236  119  240 1    
   237  120  121 1    
   238  120  124 1    
   239  120  241 1    
   240  121  122 am   BACKBONE|DICT|INTERRES
   241  121  123 2    
   242  122  242 1    
   243  122  243 1    
   244  124  125 1    
   245  124  244 1    
   246  124  245 1    
   247  125  126 1    
   248  126  246 1    
   249  126  247 1    
@<TRIPOS>SUBSTRUCTURE
     1 UNK         1 GROUP             0       ****    0 ROOT    
