@<TRIPOS>MOLECULE
3R540
247   249    1
SMALL
USER_CHARGES


@<TRIPOS>ATOM
      1 CA          5.8885  -16.3108  -45.5519 C.3       0 UNK        -0.1800 
      2 C           4.7402  -16.0568  -46.5175 C.2       0 UNK         0.5000 
      3 O           3.5849  -16.2697  -46.1577 O.2       0 UNK        -0.5000 
      4 N           5.0562  -15.5942  -47.7345 N.am      1 UNK        -0.5000 
      5 CA          4.1071  -15.3469  -48.8309 C.3       1 UNK         0.1400 
      6 C6          4.8302  -14.9546  -50.1439 C.3       23 UNK        -0.0398 
      7 S7          6.0582  -16.1922  -50.6827 S.3       23 UNK        -0.2404 
      8 C8          5.1998  -16.9714  -52.0848 C.3       23 UNK        -0.0205 
      9 C9          3.9869  -17.7715  -51.6358 C.ar      23 UNK        -0.0193 
     10 C10         2.6941  -17.2916  -51.8624 C.ar      23 UNK        -0.1150 
     11 C11         1.5789  -18.0434  -51.4786 C.ar      23 UNK        -0.0193 
     12 C12         1.7651  -19.2794  -50.8509 C.ar      23 UNK        -0.1150 
     13 C13         3.0554  -19.7631  -50.6108 C.ar      23 UNK        -0.0193 
     14 C14         4.1601  -19.0079  -51.0108 C.ar      23 UNK        -0.1150 
     15 C15         3.2685  -21.1151  -49.9511 C.3       23 UNK        -0.0205 
     16 S16         3.8403  -20.9613  -48.2280 S.3       23 UNK        -0.2404 
     17 C17         2.3434  -20.3806  -47.3611 C.3       23 UNK        -0.0398 
     18 CA          1.4966  -21.5567  -46.8096 C.3       11 UNK         0.1400 
     19 N           0.8075  -21.2153  -45.5645 N.am      11 UNK        -0.5000 
     20 C           0.2610  -22.1169  -44.7368 C.2       10 UNK         0.5000 
     21 O           0.3740  -23.3342  -44.8816 O.2       10 UNK        -0.5000 
     22 CA         -0.5801  -21.5750  -43.5675 C.3       10 UNK         0.1400 
     23 CB          0.3092  -21.2774  -42.3512 C.3       10 UNK        -0.1800 
     24 N          -1.3537  -20.3837  -43.9234 N.am      10 UNK        -0.5000 
     25 C          -2.3393  -20.3656  -44.8328 C.2       9 UNK         0.5000 
     26 O          -2.7226  -21.3650  -45.4409 O.2       9 UNK        -0.5000 
     27 CA         -2.9838  -19.0013  -45.1420 C.3       9 UNK         0.1400 
     28 CB         -4.0293  -18.6427  -44.0762 C.3       9 UNK        -0.1800 
     29 N          -2.0111  -17.9145  -45.2669 N.am      9 UNK        -0.5000 
     30 C          -1.0309  -17.8666  -46.1827 C.2       8 UNK         0.5000 
     31 O          -0.8367  -18.7408  -47.0250 O.2       8 UNK        -0.5000 
     32 CA         -0.0507  -16.6850  -46.0892 C.3       8 UNK         0.1400 
     33 CB         -0.6929  -15.3841  -46.5938 C.3       8 UNK        -0.1800 
     34 N           0.4425  -16.4940  -44.7271 N.am      8 UNK        -0.5000 
     35 C           1.1314  -17.4089  -44.0294 C.2       7 UNK         0.5000 
     36 O           1.4588  -18.5129  -44.4667 O.2       7 UNK        -0.5000 
     37 CA          1.4446  -17.0522  -42.5672 C.3       7 UNK         0.1400 
     38 CB          2.6363  -16.0855  -42.4770 C.3       7 UNK        -0.1800 
     39 N           0.2807  -16.4810  -41.8856 N.am      7 UNK        -0.5000 
     40 C          -0.8406  -17.1625  -41.6058 C.2       6 UNK         0.5000 
     41 O          -1.0002  -18.3534  -41.8672 O.2       6 UNK        -0.5000 
     42 CA         -1.9914  -16.3753  -40.9544 C.3       6 UNK         0.1400 
     43 CB         -1.7874  -16.2751  -39.4354 C.3       6 UNK        -0.1800 
     44 N          -2.1406  -15.0325  -41.5133 N.am      6 UNK        -0.5000 
     45 C          -2.5259  -14.7694  -42.7703 C.2       5 UNK         0.5000 
     46 O          -2.8342  -15.6339  -43.5897 O.2       5 UNK        -0.5000 
     47 CA         -2.4999  -13.2886  -43.1941 C.3       5 UNK         0.1400 
     48 CB         -3.7962  -12.5792  -42.7754 C.3       5 UNK        -0.1800 
     49 N          -1.3458  -12.5686  -42.6449 N.am      5 UNK        -0.5000 
     50 C          -0.0753  -12.8709  -42.9369 C.2       4 UNK         0.5000 
     51 O           0.2489  -13.7667  -43.7237 O.2       4 UNK        -0.5000 
     52 CA          1.0162  -12.0861  -42.1988 C.3       4 UNK         0.1400 
     53 CB          1.2103  -12.6323  -40.7714 C.3       4 UNK        -0.1800 
     54 N           2.2349  -12.2449  -42.9759 N.am      4 UNK        -0.5000 
     55 C           3.3766  -11.5615  -42.8679 C.2       3 UNK         0.5000 
     56 O           3.5891  -10.6959  -42.0182 O.2       3 UNK        -0.5000 
     57 CA          4.4559  -11.8973  -43.9159 C.3       3 UNK         0.1400 
     58 CB          5.3756  -13.0148  -43.4003 C.3       3 UNK        -0.1800 
     59 N           3.8841  -12.3046  -45.2051 N.am      3 UNK        -0.5000 
     60 C           3.2324  -11.4799  -46.0402 C.2       2 UNK         0.5000 
     61 O           3.0827  -10.2769  -45.8213 O.2       2 UNK        -0.5000 
     62 CA          2.6697  -12.1009  -47.3320 C.3       2 UNK         0.1400 
     63 CB          2.5329  -11.0797  -48.4793 C.3       2 UNK        -0.1800 
     64 N           3.4920  -13.2300  -47.7633 N.am      2 UNK        -0.5000 
     65 C           3.0572  -14.2704  -48.4848 C.2       1 UNK         0.5000 
     66 O           1.8983  -14.3969  -48.8789 O.2       1 UNK        -0.5000 
     67 C           0.4974  -22.0823  -47.8601 C.2       11 UNK         0.5000 
     68 O           0.7102  -23.1544  -48.4273 O.2       11 UNK        -0.5000 
     69 N          -0.5908  -21.3294  -48.0754 N.am      12 UNK        -0.5000 
     70 CA         -1.6552  -21.6139  -49.0376 C.3       12 UNK         0.1400 
     71 CB         -2.6816  -20.4782  -48.9966 C.3       12 UNK        -0.1800 
     72 C          -2.3571  -22.9648  -48.8278 C.2       12 UNK         0.5000 
     73 O          -2.7738  -23.5811  -49.8075 O.2       12 UNK        -0.5000 
     74 N          -2.4342  -23.4292  -47.5732 N.am      13 UNK        -0.5000 
     75 CA         -2.9719  -24.7332  -47.1765 C.3       13 UNK         0.1400 
     76 CB         -2.8731  -24.8756  -45.6511 C.3       13 UNK        -0.1800 
     77 C          -2.3117  -25.9408  -47.8766 C.2       13 UNK         0.5000 
     78 O          -2.9575  -26.9810  -48.0059 O.2       13 UNK        -0.5000 
     79 N          -1.0748  -25.7782  -48.3729 N.am      14 UNK        -0.5000 
     80 CA         -0.3732  -26.7570  -49.2081 C.3       14 UNK         0.1400 
     81 CB          1.0774  -26.2967  -49.4140 C.3       14 UNK        -0.1800 
     82 C          -1.0538  -27.0143  -50.5708 C.2       14 UNK         0.5000 
     83 O          -0.8602  -28.0874  -51.1429 O.2       14 UNK        -0.5000 
     84 N          -1.8555  -26.0535  -51.0561 N.am      15 UNK        -0.5000 
     85 CA         -2.6737  -26.1776  -52.2654 C.3       15 UNK         0.1400 
     86 CB         -2.8742  -24.7814  -52.8811 C.3       15 UNK        -0.1800 
     87 C          -4.0354  -26.8543  -51.9991 C.2       15 UNK         0.5000 
     88 O          -4.8113  -27.0219  -52.9409 O.2       15 UNK        -0.5000 
     89 N          -4.3233  -27.1988  -50.7334 N.am      16 UNK        -0.5000 
     90 CA         -5.5312  -27.8332  -50.1878 C.3       16 UNK         0.1400 
     91 CB         -5.7983  -29.2050  -50.8358 C.3       16 UNK        -0.1800 
     92 C          -6.7858  -26.9399  -50.2212 C.2       16 UNK         0.5000 
     93 O          -7.4674  -26.8186  -49.2030 O.2       16 UNK        -0.5000 
     94 N          -7.0616  -26.3178  -51.3736 N.am      17 UNK        -0.5000 
     95 CA         -8.1647  -25.3779  -51.5803 C.3       17 UNK         0.1400 
     96 CB         -8.3669  -25.1687  -53.0892 C.3       17 UNK        -0.1800 
     97 C          -7.9327  -24.0246  -50.8837 C.2       17 UNK         0.5000 
     98 O          -8.9004  -23.3685  -50.4971 O.2       17 UNK        -0.5000 
     99 N          -6.6557  -23.6310  -50.7615 N.am      18 UNK        -0.5000 
    100 CA        -6.1031  -22.4103  -50.1601 C.3       18 UNK         0.1400 
    101 CB        -6.3991  -22.3343  -48.6525 C.3       18 UNK        -0.1800 
    102 C         -6.4788  -21.0993  -50.8748 C.2       18 UNK         0.5000 
    103 O         -5.5947  -20.2797  -51.1268 O.2       18 UNK        -0.5000 
    104 N         -7.7552  -20.9268  -51.2341 N.am      19 UNK        -0.5000 
    105 CA        -8.2859  -19.7754  -51.9712 C.3       19 UNK         0.1400 
    106 CB        -9.8177  -19.8772  -52.0164 C.3       19 UNK        -0.1800 
    107 C         -7.7101  -19.6418  -53.3956 C.2       19 UNK         0.5000 
    108 O         -7.6570  -18.5351  -53.9319 O.2       19 UNK        -0.5000 
    109 N         -7.2642  -20.7694  -53.9662 N.am      20 UNK        -0.5000 
    110 CA        -6.5599  -20.8506  -55.2458 C.3       20 UNK         0.1400 
    111 CB        -6.5835  -22.3127  -55.7199 C.3       20 UNK        -0.1800 
    112 C         -5.1069  -20.3329  -55.1788 C.2       20 UNK         0.5000 
    113 O         -4.5291  -20.0390  -56.2262 O.2       20 UNK        -0.5000 
    114 N         -4.5418  -20.2470  -53.9671 N.am      21 UNK        -0.5000 
    115 CA        -3.1944  -19.7628  -53.6938 C.3       21 UNK         0.1400 
    116 CB        -2.4810  -20.7656  -52.7648 C.3       21 UNK        -0.1800 
    117 C         -3.2867  -18.3389  -53.1199 C.2       21 UNK         0.5000 
    118 O         -3.2491  -17.3778  -53.8890 O.2       21 UNK        -0.5000 
    119 N         -3.4116  -18.2220  -51.7939 N.am      22 UNK        -0.5000 
    120 CA        -3.4979  -16.9495  -51.0589 C.3       22 UNK         0.1400 
    121 C         -4.2173  -17.0637  -49.6830 C.2       22 UNK         0.5000 
    122 N         -4.9958  -18.1081  -49.4262 N.am      22 UNK        -0.7600 
    123 O         -4.1015  -16.1786  -48.8402 O.2       22 UNK        -0.5000 
    124 C124       -2.1506  -16.1712  -51.0117 C.3       23 UNK        -0.0398 
    125 S125       -0.7442  -17.0879  -50.2857 S.3       23 UNK        -0.2404 
    126 C126        0.1785  -17.5371  -51.7881 C.3       23 UNK        -0.0205 
    127 H127        6.0019  -17.3814  -45.3822 H         1 UNK         0.0600 
    128 H128        6.8330  -15.9224  -45.9334 H         1 UNK         0.0600 
    129 H129        5.6879  -15.8347  -44.5927 H         1 UNK         0.0600 
    130 H130        6.0291  -15.4625  -47.9725 H         1 UNK         0.3000 
    131 H131        3.5653  -16.2795  -49.0046 H         1 UNK         0.0600 
    132 H132        5.3543  -14.0050  -50.0212 H         1 UNK         0.0800 
    133 H133        4.1077  -14.7933  -50.9458 H         1 UNK         0.0800 
    134 H134        4.9179  -16.2085  -52.8123 H         1 UNK         0.0800 
    135 H135        5.8968  -17.6357  -52.5979 H         1 UNK         0.0800 
    136 H136        2.5557  -16.3386  -52.3533 H         1 UNK         0.1150 
    137 H137        0.9041  -19.8629  -50.5554 H         1 UNK         0.1150 
    138 H138        5.1586  -19.3827  -50.8332 H         1 UNK         0.1150 
    139 H139        2.3621  -21.7176  -49.9996 H         1 UNK         0.0800 
    140 H140        4.0208  -21.6682  -50.5154 H         1 UNK         0.0800 
    141 H141        1.7626  -19.7049  -47.9916 H         1 UNK         0.0800 
    142 H142        2.6993  -19.7627  -46.5355 H         1 UNK         0.0800 
    143 H143        2.1745  -22.3788  -46.5682 H         1 UNK         0.0600 
    144 H144        0.7132  -20.2286  -45.3457 H         1 UNK         0.3000 
    145 H145       -1.2883  -22.3565  -43.2843 H         1 UNK         0.0600 
    146 H146       -0.2899  -20.9966  -41.4850 H         1 UNK         0.0600 
    147 H147        0.8943  -22.1538  -42.0701 H         1 UNK         0.0600 
    148 H148        1.0085  -20.4656  -42.5526 H         1 UNK         0.0600 
    149 H149       -1.1266  -19.5299  -43.4221 H         1 UNK         0.3000 
    150 H150       -3.5002  -19.0864  -46.0993 H         1 UNK         0.0600 
    151 H151       -4.7720  -19.4350  -43.9743 H         1 UNK         0.0600 
    152 H152       -4.5626  -17.7294  -44.3400 H         1 UNK         0.0600 
    153 H153       -3.5714  -18.4923  -43.0981 H         1 UNK         0.0600 
    154 H154       -2.1143  -17.1402  -44.6174 H         1 UNK         0.3000 
    155 H155        0.8078  -16.9093  -46.7262 H         1 UNK         0.0600 
    156 H156       -1.5370  -15.0810  -45.9745 H         1 UNK         0.0600 
    157 H157       -1.0587  -15.5012  -47.6146 H         1 UNK         0.0600 
    158 H158        0.0294  -14.5675  -46.5992 H         1 UNK         0.0600 
    159 H159        0.2435  -15.5967  -44.2947 H         1 UNK         0.3000 
    160 H160        1.7188  -17.9742  -42.0501 H         1 UNK         0.0600 
    161 H161        2.8926  -15.8667  -41.4404 H         1 UNK         0.0600 
    162 H162        2.4325  -15.1414  -42.9805 H         1 UNK         0.0600 
    163 H163        3.5206  -16.5175  -42.9474 H         1 UNK         0.0600 
    164 H164        0.3111  -15.4949  -41.6800 H         1 UNK         0.3000 
    165 H165       -2.9172  -16.9243  -41.1391 H         1 UNK         0.0600 
    166 H166       -2.6359  -15.7874  -38.9552 H         1 UNK         0.0600 
    167 H167       -1.6885  -17.2657  -38.9895 H         1 UNK         0.0600 
    168 H168       -0.8886  -15.7105  -39.1840 H         1 UNK         0.0600 
    169 H169       -1.9078  -14.2582  -40.9098 H         1 UNK         0.3000 
    170 H170       -2.4299  -13.2575  -44.2836 H         1 UNK         0.0600 
    171 H171       -4.6691  -13.0890  -43.1856 H         1 UNK         0.0600 
    172 H172       -3.9110  -12.5524  -41.6911 H         1 UNK         0.0600 
    173 H173       -3.8195  -11.5526  -43.1414 H         1 UNK         0.0600 
    174 H174       -1.5424  -11.8226  -41.9930 H         1 UNK         0.3000 
    175 H175        0.7411  -11.0301  -42.1685 H         1 UNK         0.0600 
    176 H176        1.5141  -13.6795  -40.7784 H         1 UNK         0.0600 
    177 H177        1.9718  -12.0703  -40.2309 H         1 UNK         0.0600 
    178 H178        0.2890  -12.5596  -40.1925 H         1 UNK         0.0600 
    179 H179        2.1351  -12.9202  -43.7240 H         1 UNK         0.3000 
    180 H180        5.0592  -11.0008  -44.0742 H         1 UNK         0.0600 
    181 H181        4.8248  -13.9385  -43.2198 H         1 UNK         0.0600 
    182 H182        5.8483  -12.7271  -42.4604 H         1 UNK         0.0600 
    183 H183        6.1733  -13.2305  -44.1114 H         1 UNK         0.0600 
    184 H184        3.9326  -13.2863  -45.4345 H         1 UNK         0.3000 
    185 H185        1.6730  -12.4679  -47.0776 H         1 UNK         0.0600 
    186 H186        1.8863  -10.2490  -48.1940 H         1 UNK         0.0600 
    187 H187        3.5010  -10.6642  -48.7608 H         1 UNK         0.0600 
    188 H188        2.0933  -11.5354  -49.3665 H         1 UNK         0.0600 
    189 H189        4.4663  -13.1982  -47.4966 H         1 UNK         0.3000 
    190 H190       -0.6796  -20.4459  -47.5740 H         1 UNK         0.3000 
    191 H191       -1.2015  -21.6338  -50.0302 H         1 UNK         0.0600 
    192 H192       -3.1147  -20.3660  -48.0040 H         1 UNK         0.0600 
    193 H193       -3.5033  -20.6669  -49.6818 H         1 UNK         0.0600 
    194 H194       -2.2298  -19.5271  -49.2754 H         1 UNK         0.0600 
    195 H195       -2.1342  -22.8169  -46.8222 H         1 UNK         0.3000 
    196 H196       -4.0281  -24.7419  -47.4523 H         1 UNK         0.0600 
    197 H197       -1.8368  -24.8525  -45.3135 H         1 UNK         0.0600 
    198 H198       -3.3068  -25.8189  -45.3166 H         1 UNK         0.0600 
    199 H199       -3.4097  -24.0740  -45.1431 H         1 UNK         0.0600 
    200 H200       -0.6119  -24.8851  -48.2441 H         1 UNK         0.3000 
    201 H201       -0.3568  -27.7045  -48.6658 H         1 UNK         0.0600 
    202 H202        1.1256  -25.3636  -49.9767 H         1 UNK         0.0600 
    203 H203        1.6494  -27.0426  -49.9672 H         1 UNK         0.0600 
    204 H204        1.5828  -26.1398  -48.4608 H         1 UNK         0.0600 
    205 H205       -1.9876  -25.1991  -50.5212 H         1 UNK         0.3000 
    206 H206       -2.1424  -26.7920  -52.9951 H         1 UNK         0.0600 
    207 H207       -1.9203  -24.2779  -53.0385 H         1 UNK         0.0600 
    208 H208       -3.3675  -24.8494  -53.8516 H         1 UNK         0.0600 
    209 H209       -3.4909  -24.1417  -52.2497 H         1 UNK         0.0600 
    210 H210       -3.6209  -26.9955  -50.0321 H         1 UNK         0.3000 
    211 H211       -5.3098  -28.0146  -49.1348 H         1 UNK         0.0600 
    212 H212       -6.0564  -29.1188  -51.8915 H         1 UNK         0.0600 
    213 H213       -6.6276  -29.7118  -50.3407 H         1 UNK         0.0600 
    214 H214       -4.9264  -29.8542  -50.7554 H         1 UNK         0.0600 
    215 H215       -6.4395  -26.4941  -52.1587 H         1 UNK         0.3000 
    216 H216       -9.0759  -25.8152  -51.1667 H         1 UNK         0.0600 
    217 H217       -9.1897  -24.4792  -53.2831 H         1 UNK         0.0600 
    218 H218       -8.6073  -26.1081  -53.5874 H         1 UNK         0.0600 
    219 H219       -7.4743  -24.7581  -53.5631 H         1 UNK         0.0600 
    220 H220       -5.9620  -24.2630  -51.1338 H         1 UNK         0.3000 
    221 H221       -5.0251  -22.5053  -50.2734 H         1 UNK         0.0600 
    222 H222       -7.4662  -22.2383  -48.4506 H         1 UNK         0.0600 
    223 H223       -6.0385  -23.2246  -48.1374 H         1 UNK         0.0600 
    224 H224       -5.9010  -21.4752  -48.2008 H         1 UNK         0.0600 
    225 H225       -8.4112  -21.6642  -50.9859 H         1 UNK         0.3000 
    226 H226       -8.0150  -18.8714  -51.4217 H         1 UNK         0.0600 
    227 H227      -10.2411  -19.8923  -51.0120 H         1 UNK         0.0600 
    228 H228      -10.2521  -19.0240  -52.5391 H         1 UNK         0.0600 
    229 H229      -10.1448  -20.7813  -52.5318 H         1 UNK         0.0600 
    230 H230       -7.3662  -21.6306  -53.4510 H         1 UNK         0.3000 
    231 H231       -7.0957  -20.2413  -55.9766 H         1 UNK         0.0600 
    232 H232       -7.6052  -22.6794  -55.8216 H         1 UNK         0.0600 
    233 H233       -6.0577  -22.9697  -55.0258 H         1 UNK         0.0600 
    234 H234       -6.1046  -22.4154  -56.6946 H         1 UNK         0.0600 
    235 H235       -5.1125  -20.4308  -53.1512 H         1 UNK         0.3000 
    236 H236       -2.6105  -19.6984  -54.6144 H         1 UNK         0.0600 
    237 H237       -3.0909  -21.0381  -51.9055 H         1 UNK         0.0600 
    238 H238       -2.2551  -21.6874  -53.3005 H         1 UNK         0.0600 
    239 H239       -1.5346  -20.3702  -52.3957 H         1 UNK         0.0600 
    240 H240       -3.4765  -19.0561  -51.2296 H         1 UNK         0.3000 
    241 H241       -4.1857  -16.3215  -51.6280 H         1 UNK         0.0600 
    242 H242       -5.4648  -18.1472  -48.5367 H         1 UNK         0.3800 
    243 H243       -5.1846  -18.8235  -50.1227 H         1 UNK         0.3800 
    244 H244       -1.8874  -15.8515  -52.0199 H         1 UNK         0.0800 
    245 H245       -2.2669  -15.2417  -50.4524 H         1 UNK         0.0800 
    246 H246       -0.3686  -18.3041  -52.3344 H         1 UNK         0.0800 
    247 H247        0.2344  -16.6713  -52.4494 H         1 UNK         0.0800 
@<TRIPOS>BOND
     1    1    2 1    
     2    1  127 1    
     3    1  128 1    
     4    1  129 1    
     5    2    3 2    
     6    2    4 am   BACKBONE|DICT|INTERRES
     7    4    5 1    
     8    4  130 1    
     9    5    6 1    
    10    5   65 1    
    11    5  131 1    
    12    6    7 1    
    13    6  132 1    
    14    6  133 1    
    15    7    8 1    
    16    8    9 1    
    17    8  134 1    
    18    8  135 1    
    19    9   10 ar   
    20    9   14 ar   
    21   10   11 ar   
    22   10  136 1    
    23   11   12 ar   
    24   11  126 1    
    25   12   13 ar   
    26   12  137 1    
    27   13   14 ar   
    28   13   15 1    
    29   14  138 1    
    30   15   16 1    
    31   15  139 1    
    32   15  140 1    
    33   16   17 1    
    34   17   18 1    
    35   17  141 1    
    36   17  142 1    
    37   18   19 1    
    38   18   67 1    
    39   18  143 1    
    40   19   20 am   BACKBONE|DICT|INTERRES
    41   19  144 1    
    42   20   21 2    
    43   20   22 1    
    44   22   23 1    
    45   22   24 1    
    46   22  145 1    
    47   23  146 1    
    48   23  147 1    
    49   23  148 1    
    50   24   25 am   BACKBONE|DICT|INTERRES
    51   24  149 1    
    52   25   26 2    
    53   25   27 1    
    54   27   28 1    
    55   27   29 1    
    56   27  150 1    
    57   28  151 1    
    58   28  152 1    
    59   28  153 1    
    60   29   30 am   BACKBONE|DICT|INTERRES
    61   29  154 1    
    62   30   31 2    
    63   30   32 1    
    64   32   33 1    
    65   32   34 1    
    66   32  155 1    
    67   33  156 1    
    68   33  157 1    
    69   33  158 1    
    70   34   35 am   BACKBONE|DICT|INTERRES
    71   34  159 1    
    72   35   36 2    
    73   35   37 1    
    74   37   38 1    
    75   37   39 1    
    76   37  160 1    
    77   38  161 1    
    78   38  162 1    
    79   38  163 1    
    80   39   40 am   BACKBONE|DICT|INTERRES
    81   39  164 1    
    82   40   41 2    
    83   40   42 1    
    84   42   43 1    
    85   42   44 1    
    86   42  165 1    
    87   43  166 1    
    88   43  167 1    
    89   43  168 1    
    90   44   45 am   BACKBONE|DICT|INTERRES
    91   44  169 1    
    92   45   46 2    
    93   45   47 1    
    94   47   48 1    
    95   47   49 1    
    96   47  170 1    
    97   48  171 1    
    98   48  172 1    
    99   48  173 1    
   100   49   50 am   BACKBONE|DICT|INTERRES
   101   49  174 1    
   102   50   51 2    
   103   50   52 1    
   104   52   53 1    
   105   52   54 1    
   106   52  175 1    
   107   53  176 1    
   108   53  177 1    
   109   53  178 1    
   110   54   55 am   BACKBONE|DICT|INTERRES
   111   54  179 1    
   112   55   56 2    
   113   55   57 1    
   114   57   58 1    
   115   57   59 1    
   116   57  180 1    
   117   58  181 1    
   118   58  182 1    
   119   58  183 1    
   120   59   60 am   BACKBONE|DICT|INTERRES
   121   59  184 1    
   122   60   61 2    
   123   60   62 1    
   124   62   63 1    
   125   62   64 1    
   126   62  185 1    
   127   63  186 1    
   128   63  187 1    
   129   63  188 1    
   130   64   65 am   BACKBONE|DICT|INTERRES
   131   64  189 1    
   132   65   66 2    
   133   67   68 2    
   134   67   69 am   BACKBONE|DICT|INTERRES
   135   69   70 1    
   136   69  190 1    
   137   70   71 1    
   138   70   72 1    
   139   70  191 1    
   140   71  192 1    
   141   71  193 1    
   142   71  194 1    
   143   72   73 2    
   144   72   74 am   BACKBONE|DICT|INTERRES
   145   74   75 1    
   146   74  195 1    
   147   75   76 1    
   148   75   77 1    
   149   75  196 1    
   150   76  197 1    
   151   76  198 1    
   152   76  199 1    
   153   77   78 2    
   154   77   79 am   BACKBONE|DICT|INTERRES
   155   79   80 1    
   156   79  200 1    
   157   80   81 1    
   158   80   82 1    
   159   80  201 1    
   160   81  202 1    
   161   81  203 1    
   162   81  204 1    
   163   82   83 2    
   164   82   84 am   BACKBONE|DICT|INTERRES
   165   84   85 1    
   166   84  205 1    
   167   85   86 1    
   168   85   87 1    
   169   85  206 1    
   170   86  207 1    
   171   86  208 1    
   172   86  209 1    
   173   87   88 2    
   174   87   89 am   BACKBONE|DICT|INTERRES
   175   89   90 1    
   176   89  210 1    
   177   90   91 1    
   178   90   92 1    
   179   90  211 1    
   180   91  212 1    
   181   91  213 1    
   182   91  214 1    
   183   92   93 2    
   184   92   94 am   BACKBONE|DICT|INTERRES
   185   94   95 1    
   186   94  215 1    
   187   95   96 1    
   188   95   97 1    
   189   95  216 1    
   190   96  217 1    
   191   96  218 1    
   192   96  219 1    
   193   97   98 2    
   194   97   99 am   BACKBONE|DICT|INTERRES
   195   99  100 1    
   196   99  220 1    
   197  100  101 1    
   198  100  102 1    
   199  100  221 1    
   200  101  222 1    
   201  101  223 1    
   202  101  224 1    
   203  102  103 2    
   204  102  104 am   BACKBONE|DICT|INTERRES
   205  104  105 1    
   206  104  225 1    
   207  105  106 1    
   208  105  107 1    
   209  105  226 1    
   210  106  227 1    
   211  106  228 1    
   212  106  229 1    
   213  107  108 2    
   214  107  109 am   BACKBONE|DICT|INTERRES
   215  109  110 1    
   216  109  230 1    
   217  110  111 1    
   218  110  112 1    
   219  110  231 1    
   220  111  232 1    
   221  111  233 1    
   222  111  234 1    
   223  112  113 2    
   224  112  114 am   BACKBONE|DICT|INTERRES
   225  114  115 1    
   226  114  235 1    
   227  115  116 1    
   228  115  117 1    
   229  115  236 1    
   230  116  237 1    
   231  116  238 1    
   232  116  239 1    
   233  117  118 2    
   234  117  119 am   BACKBONE|DICT|INTERRES
   235  119  120 1    
   236  119  240 1    
   237  120  121 1    
   238  120  124 1    
   239  120  241 1    
   240  121  122 am   BACKBONE|DICT|INTERRES
   241  121  123 2    
   242  122  242 1    
   243  122  243 1    
   244  124  125 1    
   245  124  244 1    
   246  124  245 1    
   247  125  126 1    
   248  126  246 1    
   249  126  247 1    
@<TRIPOS>SUBSTRUCTURE
     1 UNK         1 GROUP             0       ****    0 ROOT    
