@<TRIPOS>MOLECULE
3R540
247   249    1
SMALL
USER_CHARGES


@<TRIPOS>ATOM
      1 CA         -0.1690  -12.1577  -47.0324 C.3       0 UNK        -0.1800 
      2 C           1.0997  -12.9956  -47.1118 C.2       0 UNK         0.5000 
      3 O           1.3339  -13.8340  -46.2402 O.2       0 UNK        -0.5000 
      4 N           1.8991  -12.7634  -48.1629 N.am      1 UNK        -0.5000 
      5 CA          3.2057  -13.3724  -48.4319 C.3       1 UNK         0.1400 
      6 C6          3.1298  -14.8998  -48.7030 C.3       23 UNK        -0.0398 
      7 S7          4.6264  -15.5183  -49.5473 S.3       23 UNK        -0.2404 
      8 C8          4.1060  -15.5131  -51.2989 C.3       23 UNK        -0.0205 
      9 C9          3.3152  -16.7391  -51.7575 C.ar      23 UNK        -0.0193 
     10 C10         2.5250  -16.6378  -52.9065 C.ar      23 UNK        -0.1150 
     11 C11         1.8229  -17.7433  -53.3960 C.ar      23 UNK        -0.0193 
     12 C12         1.9054  -18.9654  -52.7195 C.ar      23 UNK        -0.1150 
     13 C13         2.6996  -19.0882  -51.5751 C.ar      23 UNK        -0.0193 
     14 C14         3.4044  -17.9756  -51.1070 C.ar      23 UNK        -0.1150 
     15 C15         2.8580  -20.4298  -50.8713 C.3       23 UNK        -0.0205 
     16 S16         2.3033  -20.3711  -49.1361 S.3       23 UNK        -0.2404 
     17 C17         0.5198  -20.7125  -49.2865 C.3       23 UNK        -0.0398 
     18 CA          0.0950  -21.8995  -48.3884 C.3       11 UNK         0.1400 
     19 N           0.1468  -21.5719  -46.9580 N.am      11 UNK        -0.5000 
     20 C          -0.0574  -22.4456  -45.9610 C.2       10 UNK         0.5000 
     21 O          -0.2457  -23.6500  -46.1342 O.2       10 UNK        -0.5000 
     22 CA         -0.1171  -21.8744  -44.5317 C.3       10 UNK         0.1400 
     23 CB          1.2915  -21.6503  -43.9620 C.3       10 UNK        -0.1800 
     24 N          -0.8939  -20.6357  -44.4541 N.am      10 UNK        -0.5000 
     25 C          -2.2108  -20.5574  -44.6961 C.2       9 UNK         0.5000 
     26 O          -2.9146  -21.5328  -44.9526 O.2       9 UNK        -0.5000 
     27 CA         -2.8466  -19.1556  -44.6990 C.3       9 UNK         0.1400 
     28 CB         -3.1776  -18.6996  -43.2706 C.3       9 UNK        -0.1800 
     29 N          -2.0058  -18.1566  -45.3568 N.am      9 UNK        -0.5000 
     30 C          -1.6575  -18.1902  -46.6503 C.2       8 UNK         0.5000 
     31 O          -2.0606  -19.0408  -47.4426 O.2       8 UNK        -0.5000 
     32 CA         -0.6433  -17.1341  -47.1251 C.3       8 UNK         0.1400 
     33 CB         -1.3411  -15.8118  -47.4681 C.3       8 UNK        -0.1800 
     34 N           0.4366  -16.9005  -46.1646 N.am      8 UNK        -0.5000 
     35 C           1.3132  -17.8415  -45.7848 C.2       7 UNK         0.5000 
     36 O           1.3249  -18.9833  -46.2406 O.2       7 UNK        -0.5000 
     37 CA          2.2917  -17.4726  -44.6576 C.3       7 UNK         0.1400 
     38 CB          3.4717  -16.6426  -45.1782 C.3       7 UNK        -0.1800 
     39 N           1.6235  -16.7575  -43.5717 N.am      7 UNK        -0.5000 
     40 C           0.7525  -17.3260  -42.7275 C.2       6 UNK         0.5000 
     41 O           0.4513  -18.5192  -42.7565 O.2       6 UNK        -0.5000 
     42 CA          0.0799  -16.3962  -41.7016 C.3       6 UNK         0.1400 
     43 CB          0.9732  -16.2167  -40.4652 C.3       6 UNK        -0.1800 
     44 N          -0.2626  -15.0794  -42.2441 N.am      6 UNK        -0.5000 
     45 C          -1.1354  -14.8611  -43.2370 C.2       5 UNK         0.5000 
     46 O          -1.6971  -15.7702  -43.8458 O.2       5 UNK        -0.5000 
     47 CA         -1.4208  -13.4057  -43.6578 C.3       5 UNK         0.1400 
     48 CB         -2.9110  -13.0503  -43.4926 C.3       5 UNK        -0.1800 
     49 N          -0.5568  -12.3908  -43.0413 N.am      5 UNK        -0.5000 
     50 C          -0.5056  -11.9741  -41.7689 C.2       4 UNK         0.5000 
     51 O          -1.2144  -12.4274  -40.8700 O.2       4 UNK        -0.5000 
     52 CA          0.5760  -10.9161  -41.4534 C.3       4 UNK         0.1400 
     53 CB          0.5436  -10.4518  -39.9860 C.3       4 UNK        -0.1800 
     54 N           1.9206  -11.4146  -41.7591 N.am      4 UNK        -0.5000 
     55 C           2.4416  -11.5372  -42.9863 C.2       3 UNK         0.5000 
     56 O           1.8466  -11.1895  -44.0106 O.2       3 UNK        -0.5000 
     57 CA          3.8148  -12.2296  -43.0737 C.3       3 UNK         0.1400 
     58 CB          3.6622  -13.7365  -42.8130 C.3       3 UNK        -0.1800 
     59 N           4.4251  -12.0554  -44.3881 N.am      3 UNK        -0.5000 
     60 C           4.9407  -10.9191  -44.8654 C.2       2 UNK         0.5000 
     61 O           5.0790   -9.8987  -44.1888 O.2       2 UNK        -0.5000 
     62 CA          5.3552  -10.9016  -46.3509 C.3       2 UNK         0.1400 
     63 CB          6.8183  -11.3523  -46.5266 C.3       2 UNK        -0.1800 
     64 N           4.4517  -11.6321  -47.2556 N.am      2 UNK        -0.5000 
     65 C           4.2327  -12.9530  -47.3548 C.2       1 UNK         0.5000 
     66 O           4.7617  -13.7908  -46.6232 O.2       1 UNK        -0.5000 
     67 C          -1.2905  -22.4363  -48.7969 C.2       11 UNK         0.5000 
     68 O          -1.3634  -23.4840  -49.4404 O.2       11 UNK        -0.5000 
     69 N          -2.3586  -21.7484  -48.3687 N.am      12 UNK        -0.5000 
     70 CA         -3.7439  -22.1586  -48.5871 C.3       12 UNK         0.1400 
     71 CB         -4.6991  -21.0681  -48.0823 C.3       12 UNK        -0.1800 
     72 C          -4.0672  -23.5118  -47.9323 C.2       12 UNK         0.5000 
     73 O          -4.6562  -24.3687  -48.5876 O.2       12 UNK        -0.5000 
     74 N          -3.6462  -23.7009  -46.6733 N.am      13 UNK        -0.5000 
     75 CA         -3.8166  -24.9414  -45.9141 C.3       13 UNK         0.1400 
     76 CB         -3.3519  -24.7351  -44.4651 C.3       13 UNK        -0.1800 
     77 C          -3.0978  -26.1438  -46.5510 C.2       13 UNK         0.5000 
     78 O          -3.6818  -27.2255  -46.6219 O.2       13 UNK        -0.5000 
     79 N          -1.8733  -25.9280  -47.0531 N.am      14 UNK        -0.5000 
     80 CA         -1.0884  -26.9245  -47.7890 C.3       14 UNK         0.1400 
     81 CB          0.3263  -26.3791  -48.0349 C.3       14 UNK        -0.1800 
     82 C          -1.7448  -27.3580  -49.1161 C.2       14 UNK         0.5000 
     83 O          -1.5917  -28.5100  -49.5227 O.2       14 UNK        -0.5000 
     84 N          -2.4926  -26.4410  -49.7414 N.am      15 UNK        -0.5000 
     85 CA         -3.2952  -26.6680  -50.9432 C.3       15 UNK         0.1400 
     86 CB         -3.2673  -25.3841  -51.7851 C.3       15 UNK        -0.1800 
     87 C          -4.7457  -27.0960  -50.6280 C.2       15 UNK         0.5000 
     88 O          -5.5689  -27.1383  -51.5434 O.2       15 UNK        -0.5000 
     89 N          -5.0539  -27.3775  -49.3511 N.am      16 UNK        -0.5000 
     90 CA         -6.3587  -27.7926  -48.8173 C.3       16 UNK         0.1400 
     91 CB         -6.7069  -29.2149  -49.3028 C.3       16 UNK        -0.1800 
     92 C          -7.4934  -26.7771  -49.0838 C.2       16 UNK         0.5000 
     93 O          -8.6512  -27.1703  -49.2341 O.2       16 UNK        -0.5000 
     94 N          -7.1282  -25.4890  -49.1593 N.am      17 UNK        -0.5000 
     95 CA         -7.9526  -24.3197  -49.4796 C.3       17 UNK         0.1400 
     96 CB         -9.0400  -24.1024  -48.4077 C.3       17 UNK        -0.1800 
     97 C          -8.5259  -24.3113  -50.9145 C.2       17 UNK         0.5000 
     98 O          -9.3817  -23.4769  -51.2141 O.2       17 UNK        -0.5000 
     99 N          -8.0457  -25.2084  -51.7879 N.am      18 UNK        -0.5000 
    100 CA        -8.4735  -25.3097  -53.1848 C.3       18 UNK         0.1400 
    101 CB        -8.2467  -26.7496  -53.6712 C.3       18 UNK        -0.1800 
    102 C         -7.7445  -24.3112  -54.1039 C.2       18 UNK         0.5000 
    103 O         -8.2307  -24.0345  -55.2014 O.2       18 UNK        -0.5000 
    104 N         -6.5963  -23.7972  -53.6509 N.am      19 UNK        -0.5000 
    105 CA        -5.7163  -22.8735  -54.3569 C.3       19 UNK         0.1400 
    106 CB        -4.9559  -23.6248  -55.4719 C.3       19 UNK        -0.1800 
    107 C         -4.7561  -22.2367  -53.3367 C.2       19 UNK         0.5000 
    108 O         -4.9166  -22.4466  -52.1320 O.2       19 UNK        -0.5000 
    109 N         -3.7680  -21.4860  -53.8445 N.am      20 UNK        -0.5000 
    110 CA        -2.6079  -20.9388  -53.1272 C.3       20 UNK         0.1400 
    111 CB        -1.7002  -22.0770  -52.6244 C.3       20 UNK        -0.1800 
    112 C         -2.9438  -19.9168  -52.0202 C.2       20 UNK         0.5000 
    113 O         -2.1297  -19.6972  -51.1220 O.2       20 UNK        -0.5000 
    114 N         -4.1036  -19.2530  -52.1414 N.am      21 UNK        -0.5000 
    115 CA        -4.5785  -18.1858  -51.2493 C.3       21 UNK         0.1400 
    116 CB        -6.0221  -17.8268  -51.6326 C.3       21 UNK        -0.1800 
    117 C         -3.6844  -16.9267  -51.2391 C.2       21 UNK         0.5000 
    118 O         -3.7795  -16.1149  -50.3188 O.2       21 UNK        -0.5000 
    119 N         -2.8250  -16.8058  -52.2554 N.am      22 UNK        -0.5000 
    120 CA        -1.6798  -15.8921  -52.3324 C.3       22 UNK         0.1400 
    121 C         -0.5847  -16.1242  -51.2518 C.2       22 UNK         0.5000 
    122 N         -0.4592  -17.3137  -50.6753 N.am      22 UNK        -0.7600 
    123 O          0.1603  -15.2021  -50.9349 O.2       22 UNK        -0.5000 
    124 C124       -1.0619  -15.9072  -53.7577 C.3       23 UNK        -0.0398 
    125 S125       -0.7720  -17.5941  -54.4193 S.3       23 UNK        -0.2404 
    126 C126        1.0269  -17.6300  -54.6890 C.3       23 UNK        -0.0205 
    127 H127       -0.1818  -11.5864  -46.1044 H         1 UNK         0.0600 
    128 H128       -0.2428  -11.4535  -47.8613 H         1 UNK         0.0600 
    129 H129       -1.0495  -12.7988  -47.0572 H         1 UNK         0.0600 
    130 H130        1.6098  -12.0692  -48.8375 H         1 UNK         0.3000 
    131 H131        3.5414  -12.9055  -49.3594 H         1 UNK         0.0600 
    132 H132        2.9807  -15.4595  -47.7810 H         1 UNK         0.0800 
    133 H133        2.2637  -15.1276  -49.3246 H         1 UNK         0.0800 
    134 H134        3.5306  -14.6062  -51.4921 H         1 UNK         0.0800 
    135 H135        5.0022  -15.4450  -51.9166 H         1 UNK         0.0800 
    136 H136        2.4686  -15.6948  -53.4318 H         1 UNK         0.1150 
    137 H137        1.3691  -19.8232  -53.1000 H         1 UNK         0.1150 
    138 H138        4.0333  -18.0906  -50.2365 H         1 UNK         0.1150 
    139 H139        2.3376  -21.2251  -51.4069 H         1 UNK         0.0800 
    140 H140        3.9146  -20.7003  -50.8846 H         1 UNK         0.0800 
    141 H141        0.2874  -20.9140  -50.3322 H         1 UNK         0.0800 
    142 H142       -0.0358  -19.8114  -49.0272 H         1 UNK         0.0800 
    143 H143        0.8015  -22.7159  -48.5539 H         1 UNK         0.0600 
    144 H144        0.3579  -20.6055  -46.7238 H         1 UNK         0.3000 
    145 H145       -0.6152  -22.6146  -43.9024 H         1 UNK         0.0600 
    146 H146        1.2480  -21.3022  -42.9298 H         1 UNK         0.0600 
    147 H147        1.8652  -22.5778  -43.9692 H         1 UNK         0.0600 
    148 H148        1.8521  -20.9153  -44.5385 H         1 UNK         0.0600 
    149 H149       -0.3875  -19.7921  -44.2098 H         1 UNK         0.3000 
    150 H150       -3.7821  -19.2183  -45.2584 H         1 UNK         0.0600 
    151 H151       -3.8291  -19.4189  -42.7727 H         1 UNK         0.0600 
    152 H152       -3.6941  -17.7396  -43.2732 H         1 UNK         0.0600 
    153 H153       -2.2795  -18.5940  -42.6623 H         1 UNK         0.0600 
    154 H154       -1.6852  -17.3803  -44.7828 H         1 UNK         0.3000 
    155 H155       -0.1839  -17.5204  -48.0342 H         1 UNK         0.0600 
    156 H156       -0.6659  -15.1455  -48.0032 H         1 UNK         0.0600 
    157 H157       -1.6994  -15.2967  -46.5768 H         1 UNK         0.0600 
    158 H158       -2.1994  -15.9817  -48.1186 H         1 UNK         0.0600 
    159 H159        0.5049  -15.9732  -45.7669 H         1 UNK         0.3000 
    160 H160        2.6946  -18.4052  -44.2562 H         1 UNK         0.0600 
    161 H161        3.1547  -15.6479  -45.4873 H         1 UNK         0.0600 
    162 H162        3.9440  -17.1219  -46.0368 H         1 UNK         0.0600 
    163 H163        4.2368  -16.5224  -44.4114 H         1 UNK         0.0600 
    164 H164        1.7895  -15.7656  -43.5021 H         1 UNK         0.3000 
    165 H165       -0.8489  -16.8744  -41.3837 H         1 UNK         0.0600 
    166 H166        1.9124  -15.7215  -40.7131 H         1 UNK         0.0600 
    167 H167        0.4725  -15.6237  -39.6995 H         1 UNK         0.0600 
    168 H168        1.2189  -17.1812  -40.0188 H         1 UNK         0.0600 
    169 H169        0.1215  -14.2755  -41.7709 H         1 UNK         0.3000 
    170 H170       -1.1980  -13.3708  -44.7227 H         1 UNK         0.0600 
    171 H171       -3.5394  -13.7271  -44.0729 H         1 UNK         0.0600 
    172 H172       -3.2345  -13.1202  -42.4539 H         1 UNK         0.0600 
    173 H173       -3.1164  -12.0388  -43.8427 H         1 UNK         0.0600 
    174 H174        0.1365  -11.9831  -43.6645 H         1 UNK         0.3000 
    175 H175        0.3707  -10.0459  -42.0806 H         1 UNK         0.0600 
    176 H176        1.2774   -9.6661  -39.8053 H         1 UNK         0.0600 
    177 H177       -0.4347  -10.0454  -39.7259 H         1 UNK         0.0600 
    178 H178        0.7534  -11.2715  -39.2977 H         1 UNK         0.0600 
    179 H179        2.4569  -11.7452  -40.9698 H         1 UNK         0.3000 
    180 H180        4.4757  -11.7983  -42.3192 H         1 UNK         0.0600 
    181 H181        2.9674  -14.1878  -43.5211 H         1 UNK         0.0600 
    182 H182        3.2848  -13.9300  -41.8086 H         1 UNK         0.0600 
    183 H183        4.6176  -14.2537  -42.9043 H         1 UNK         0.0600 
    184 H184        4.3610  -12.8380  -45.0325 H         1 UNK         0.3000 
    185 H185        5.2998   -9.8596  -46.6699 H         1 UNK         0.0600 
    186 H186        7.1308  -11.2818  -47.5684 H         1 UNK         0.0600 
    187 H187        7.4901  -10.7225  -45.9423 H         1 UNK         0.0600 
    188 H188        6.9723  -12.3805  -46.1982 H         1 UNK         0.0600 
    189 H189        3.9115  -11.0354  -47.8663 H         1 UNK         0.3000 
    190 H190       -2.2154  -20.8632  -47.8881 H         1 UNK         0.3000 
    191 H191       -3.8863  -22.2638  -49.6641 H         1 UNK         0.0600 
    192 H192       -4.4787  -20.1086  -48.5467 H         1 UNK         0.0600 
    193 H193       -5.7342  -21.3175  -48.3183 H         1 UNK         0.0600 
    194 H194       -4.6288  -20.9358  -47.0026 H         1 UNK         0.0600 
    195 H195       -3.2047  -22.9273  -46.1819 H         1 UNK         0.3000 
    196 H196       -4.8843  -25.1695  -45.8967 H         1 UNK         0.0600 
    197 H197       -3.4809  -25.6459  -43.8791 H         1 UNK         0.0600 
    198 H198       -3.9274  -23.9497  -43.9752 H         1 UNK         0.0600 
    199 H199       -2.2986  -24.4584  -44.4160 H         1 UNK         0.0600 
    200 H200       -1.4415  -25.0177  -46.9188 H         1 UNK         0.3000 
    201 H201       -1.0052  -27.8124  -47.1591 H         1 UNK         0.0600 
    202 H202        0.8274  -26.1459  -47.0953 H         1 UNK         0.0600 
    203 H203        0.3084  -25.4709  -48.6378 H         1 UNK         0.0600 
    204 H204        0.9422  -27.1105  -48.5597 H         1 UNK         0.0600 
    205 H205       -2.5439  -25.5107  -49.3430 H         1 UNK         0.3000 
    206 H206       -2.8490  -27.4684  -51.5364 H         1 UNK         0.0600 
    207 H207       -2.2479  -25.1241  -52.0700 H         1 UNK         0.0600 
    208 H208       -3.8439  -25.4909  -52.7045 H         1 UNK         0.0600 
    209 H209       -3.6813  -24.5442  -51.2278 H         1 UNK         0.0600 
    210 H210       -4.3244  -27.2736  -48.6559 H         1 UNK         0.3000 
    211 H211       -6.2424  -27.8333  -47.7336 H         1 UNK         0.0600 
    212 H212       -6.8981  -29.2400  -50.3761 H         1 UNK         0.0600 
    213 H213       -7.5989  -29.5935  -48.8024 H         1 UNK         0.0600 
    214 H214       -5.8973  -29.9129  -49.0896 H         1 UNK         0.0600 
    215 H215       -6.1432  -25.2699  -49.0097 H         1 UNK         0.3000 
    216 H216       -7.2752  -23.4659  -49.4323 H         1 UNK         0.0600 
    217 H217       -8.6092  -24.0917  -47.4065 H         1 UNK         0.0600 
    218 H218       -9.8018  -24.8816  -48.4383 H         1 UNK         0.0600 
    219 H219       -9.5462  -23.1471  -48.5507 H         1 UNK         0.0600 
    220 H220       -7.3316  -25.8612  -51.4847 H         1 UNK         0.3000 
    221 H221       -9.5432  -25.0988  -53.2472 H         1 UNK         0.0600 
    222 H222       -7.1874  -27.0077  -53.6864 H         1 UNK         0.0600 
    223 H223       -8.7583  -27.4686  -53.0310 H         1 UNK         0.0600 
    224 H224       -8.6300  -26.8839  -54.6834 H         1 UNK         0.0600 
    225 H225       -6.2935  -24.0153  -52.7098 H         1 UNK         0.3000 
    226 H226       -6.3181  -22.0749  -54.7947 H         1 UNK         0.0600 
    227 H227       -5.6403  -24.1087  -56.1685 H         1 UNK         0.0600 
    228 H228       -4.3367  -22.9493  -56.0624 H         1 UNK         0.0600 
    229 H229       -4.3035  -24.3956  -55.0597 H         1 UNK         0.0600 
    230 H230       -3.7491  -21.3506  -54.8457 H         1 UNK         0.3000 
    231 H231       -2.0376  -20.3828  -53.8722 H         1 UNK         0.0600 
    232 H232       -0.7450  -21.6916  -52.2696 H         1 UNK         0.0600 
    233 H233       -1.4836  -22.7929  -53.4170 H         1 UNK         0.0600 
    234 H234       -2.1649  -22.6177  -51.8013 H         1 UNK         0.0600 
    235 H235       -4.7070  -19.4962  -52.9128 H         1 UNK         0.3000 
    236 H236       -4.5814  -18.5787  -50.2324 H         1 UNK         0.0600 
    237 H237       -6.4236  -17.0591  -50.9698 H         1 UNK         0.0600 
    238 H238       -6.0838  -17.4454  -52.6526 H         1 UNK         0.0600 
    239 H239       -6.6778  -18.6945  -51.5564 H         1 UNK         0.0600 
    240 H240       -2.8341  -17.5273  -52.9605 H         1 UNK         0.3000 
    241 H241       -2.0665  -14.8873  -52.1526 H         1 UNK         0.0600 
    242 H242       -1.0710  -18.0877  -50.9160 H         1 UNK         0.3800 
    243 H243        0.3016  -17.4554  -50.0352 H         1 UNK         0.3800 
    244 H244       -1.7466  -15.4081  -54.4443 H         1 UNK         0.0800 
    245 H245       -0.1415  -15.3218  -53.7947 H         1 UNK         0.0800 
    246 H246        1.2635  -18.4859  -55.3226 H         1 UNK         0.0800 
    247 H247        1.3264  -16.7470  -55.2558 H         1 UNK         0.0800 
@<TRIPOS>BOND
     1    1    2 1    
     2    1  127 1    
     3    1  128 1    
     4    1  129 1    
     5    2    3 2    
     6    2    4 am   BACKBONE|DICT|INTERRES
     7    4    5 1    
     8    4  130 1    
     9    5    6 1    
    10    5   65 1    
    11    5  131 1    
    12    6    7 1    
    13    6  132 1    
    14    6  133 1    
    15    7    8 1    
    16    8    9 1    
    17    8  134 1    
    18    8  135 1    
    19    9   10 ar   
    20    9   14 ar   
    21   10   11 ar   
    22   10  136 1    
    23   11   12 ar   
    24   11  126 1    
    25   12   13 ar   
    26   12  137 1    
    27   13   14 ar   
    28   13   15 1    
    29   14  138 1    
    30   15   16 1    
    31   15  139 1    
    32   15  140 1    
    33   16   17 1    
    34   17   18 1    
    35   17  141 1    
    36   17  142 1    
    37   18   19 1    
    38   18   67 1    
    39   18  143 1    
    40   19   20 am   BACKBONE|DICT|INTERRES
    41   19  144 1    
    42   20   21 2    
    43   20   22 1    
    44   22   23 1    
    45   22   24 1    
    46   22  145 1    
    47   23  146 1    
    48   23  147 1    
    49   23  148 1    
    50   24   25 am   BACKBONE|DICT|INTERRES
    51   24  149 1    
    52   25   26 2    
    53   25   27 1    
    54   27   28 1    
    55   27   29 1    
    56   27  150 1    
    57   28  151 1    
    58   28  152 1    
    59   28  153 1    
    60   29   30 am   BACKBONE|DICT|INTERRES
    61   29  154 1    
    62   30   31 2    
    63   30   32 1    
    64   32   33 1    
    65   32   34 1    
    66   32  155 1    
    67   33  156 1    
    68   33  157 1    
    69   33  158 1    
    70   34   35 am   BACKBONE|DICT|INTERRES
    71   34  159 1    
    72   35   36 2    
    73   35   37 1    
    74   37   38 1    
    75   37   39 1    
    76   37  160 1    
    77   38  161 1    
    78   38  162 1    
    79   38  163 1    
    80   39   40 am   BACKBONE|DICT|INTERRES
    81   39  164 1    
    82   40   41 2    
    83   40   42 1    
    84   42   43 1    
    85   42   44 1    
    86   42  165 1    
    87   43  166 1    
    88   43  167 1    
    89   43  168 1    
    90   44   45 am   BACKBONE|DICT|INTERRES
    91   44  169 1    
    92   45   46 2    
    93   45   47 1    
    94   47   48 1    
    95   47   49 1    
    96   47  170 1    
    97   48  171 1    
    98   48  172 1    
    99   48  173 1    
   100   49   50 am   BACKBONE|DICT|INTERRES
   101   49  174 1    
   102   50   51 2    
   103   50   52 1    
   104   52   53 1    
   105   52   54 1    
   106   52  175 1    
   107   53  176 1    
   108   53  177 1    
   109   53  178 1    
   110   54   55 am   BACKBONE|DICT|INTERRES
   111   54  179 1    
   112   55   56 2    
   113   55   57 1    
   114   57   58 1    
   115   57   59 1    
   116   57  180 1    
   117   58  181 1    
   118   58  182 1    
   119   58  183 1    
   120   59   60 am   BACKBONE|DICT|INTERRES
   121   59  184 1    
   122   60   61 2    
   123   60   62 1    
   124   62   63 1    
   125   62   64 1    
   126   62  185 1    
   127   63  186 1    
   128   63  187 1    
   129   63  188 1    
   130   64   65 am   BACKBONE|DICT|INTERRES
   131   64  189 1    
   132   65   66 2    
   133   67   68 2    
   134   67   69 am   BACKBONE|DICT|INTERRES
   135   69   70 1    
   136   69  190 1    
   137   70   71 1    
   138   70   72 1    
   139   70  191 1    
   140   71  192 1    
   141   71  193 1    
   142   71  194 1    
   143   72   73 2    
   144   72   74 am   BACKBONE|DICT|INTERRES
   145   74   75 1    
   146   74  195 1    
   147   75   76 1    
   148   75   77 1    
   149   75  196 1    
   150   76  197 1    
   151   76  198 1    
   152   76  199 1    
   153   77   78 2    
   154   77   79 am   BACKBONE|DICT|INTERRES
   155   79   80 1    
   156   79  200 1    
   157   80   81 1    
   158   80   82 1    
   159   80  201 1    
   160   81  202 1    
   161   81  203 1    
   162   81  204 1    
   163   82   83 2    
   164   82   84 am   BACKBONE|DICT|INTERRES
   165   84   85 1    
   166   84  205 1    
   167   85   86 1    
   168   85   87 1    
   169   85  206 1    
   170   86  207 1    
   171   86  208 1    
   172   86  209 1    
   173   87   88 2    
   174   87   89 am   BACKBONE|DICT|INTERRES
   175   89   90 1    
   176   89  210 1    
   177   90   91 1    
   178   90   92 1    
   179   90  211 1    
   180   91  212 1    
   181   91  213 1    
   182   91  214 1    
   183   92   93 2    
   184   92   94 am   BACKBONE|DICT|INTERRES
   185   94   95 1    
   186   94  215 1    
   187   95   96 1    
   188   95   97 1    
   189   95  216 1    
   190   96  217 1    
   191   96  218 1    
   192   96  219 1    
   193   97   98 2    
   194   97   99 am   BACKBONE|DICT|INTERRES
   195   99  100 1    
   196   99  220 1    
   197  100  101 1    
   198  100  102 1    
   199  100  221 1    
   200  101  222 1    
   201  101  223 1    
   202  101  224 1    
   203  102  103 2    
   204  102  104 am   BACKBONE|DICT|INTERRES
   205  104  105 1    
   206  104  225 1    
   207  105  106 1    
   208  105  107 1    
   209  105  226 1    
   210  106  227 1    
   211  106  228 1    
   212  106  229 1    
   213  107  108 2    
   214  107  109 am   BACKBONE|DICT|INTERRES
   215  109  110 1    
   216  109  230 1    
   217  110  111 1    
   218  110  112 1    
   219  110  231 1    
   220  111  232 1    
   221  111  233 1    
   222  111  234 1    
   223  112  113 2    
   224  112  114 am   BACKBONE|DICT|INTERRES
   225  114  115 1    
   226  114  235 1    
   227  115  116 1    
   228  115  117 1    
   229  115  236 1    
   230  116  237 1    
   231  116  238 1    
   232  116  239 1    
   233  117  118 2    
   234  117  119 am   BACKBONE|DICT|INTERRES
   235  119  120 1    
   236  119  240 1    
   237  120  121 1    
   238  120  124 1    
   239  120  241 1    
   240  121  122 am   BACKBONE|DICT|INTERRES
   241  121  123 2    
   242  122  242 1    
   243  122  243 1    
   244  124  125 1    
   245  124  244 1    
   246  124  245 1    
   247  125  126 1    
   248  126  246 1    
   249  126  247 1    
@<TRIPOS>SUBSTRUCTURE
     1 UNK         1 GROUP             0       ****    0 ROOT    
