@<TRIPOS>MOLECULE
3R540
247   249    1
SMALL
USER_CHARGES


@<TRIPOS>ATOM
      1 CA          2.9182  -15.5828  -47.1231 C.3       0 UNK        -0.1800 
      2 C           1.6333  -14.8048  -47.3657 C.2       0 UNK         0.5000 
      3 O           1.6438  -13.8315  -48.1191 O.2       0 UNK        -0.5000 
      4 N           0.5326  -15.2325  -46.7325 N.am      1 UNK        -0.5000 
      5 CA         -0.8403  -14.7049  -46.8323 C.3       1 UNK         0.1400 
      6 C6         -1.4517  -14.7647  -48.2595 C.3       23 UNK        -0.0398 
      7 S7         -1.4820  -16.4563  -48.9402 S.3       23 UNK        -0.2404 
      8 C8         -0.2564  -16.3509  -50.2775 C.3       23 UNK        -0.0205 
      9 C9          0.4505  -17.6815  -50.4748 C.ar      23 UNK        -0.0193 
     10 C10        -0.1590  -18.7083  -51.2007 C.ar      23 UNK        -0.1150 
     11 C11         0.5045  -19.9223  -51.4024 C.ar      23 UNK        -0.0193 
     12 C12         1.7875  -20.1027  -50.8786 C.ar      23 UNK        -0.1150 
     13 C13         2.4012  -19.0877  -50.1387 C.ar      23 UNK        -0.0193 
     14 C14         1.7259  -17.8810  -49.9408 C.ar      23 UNK        -0.1150 
     15 C15         3.8060  -19.2759  -49.5838 C.3       23 UNK        -0.0205 
     16 S16         3.9346  -20.6834  -48.4360 S.3       23 UNK        -0.2404 
     17 C17         2.9490  -20.1238  -47.0064 C.3       23 UNK        -0.0398 
     18 CA          1.8653  -21.1617  -46.6123 C.3       11 UNK         0.1400 
     19 N           1.7283  -21.3034  -45.1600 N.am      11 UNK        -0.5000 
     20 C           1.0594  -22.2972  -44.5566 C.2       10 UNK         0.5000 
     21 O           0.5432  -23.2383  -45.1586 O.2       10 UNK        -0.5000 
     22 CA          0.9036  -22.2054  -43.0278 C.3       10 UNK         0.1400 
     23 CB          2.1287  -22.8001  -42.3182 C.3       10 UNK        -0.1800 
     24 N           0.6730  -20.8354  -42.5647 N.am      10 UNK        -0.5000 
     25 C          -0.4093  -20.1066  -42.8740 C.2       9 UNK         0.5000 
     26 O          -1.3492  -20.5395  -43.5383 O.2       9 UNK        -0.5000 
     27 CA         -0.4285  -18.6394  -42.4096 C.3       9 UNK         0.1400 
     28 CB         -0.8693  -18.5325  -40.9425 C.3       9 UNK        -0.1800 
     29 N           0.8676  -17.9868  -42.5782 N.am      9 UNK        -0.5000 
     30 C           1.4536  -17.7342  -43.7562 C.2       8 UNK         0.5000 
     31 O           0.9340  -17.9530  -44.8522 O.2       8 UNK        -0.5000 
     32 CA          2.8879  -17.1851  -43.6965 C.3       8 UNK         0.1400 
     33 CB          2.8879  -15.6657  -43.4832 C.3       8 UNK        -0.1800 
     34 N           3.6836  -17.8274  -42.6509 N.am      8 UNK        -0.5000 
     35 C           4.0914  -19.1034  -42.6882 C.2       7 UNK         0.5000 
     36 O           3.8547  -19.8675  -43.6230 O.2       7 UNK        -0.5000 
     37 CA          4.8584  -19.6199  -41.4573 C.3       7 UNK         0.1400 
     38 CB          6.3447  -19.2443  -41.5489 C.3       7 UNK        -0.1800 
     39 N           4.3061  -19.1142  -40.1997 N.am      7 UNK        -0.5000 
     40 C           3.0977  -19.4414  -39.7203 C.2       6 UNK         0.5000 
     41 O           2.3360  -20.2336  -40.2721 O.2       6 UNK        -0.5000 
     42 CA          2.6422  -18.7209  -38.4381 C.3       6 UNK         0.1400 
     43 CB          3.1648  -19.4513  -37.1923 C.3       6 UNK        -0.1800 
     44 N           3.0496  -17.3135  -38.3865 N.am      6 UNK        -0.5000 
     45 C           2.6748  -16.3816  -39.2727 C.2       5 UNK         0.5000 
     46 O           1.9793  -16.6215  -40.2620 O.2       5 UNK        -0.5000 
     47 CA          3.2231  -14.9609  -39.0440 C.3       5 UNK         0.1400 
     48 CB          4.5833  -14.8033  -39.7423 C.3       5 UNK        -0.1800 
     49 N           2.3236  -13.9174  -39.5371 N.am      5 UNK        -0.5000 
     50 C           1.0785  -13.6849  -39.0979 C.2       4 UNK         0.5000 
     51 O           0.5533  -14.3155  -38.1787 O.2       4 UNK        -0.5000 
     52 CA          0.2936  -12.5345  -39.7645 C.3       4 UNK         0.1400 
     53 CB         -0.0918  -11.4664  -38.7267 C.3       4 UNK        -0.1800 
     54 N           1.0257  -11.8766  -40.8518 N.am      4 UNK        -0.5000 
     55 C           1.0436  -12.2908  -42.1237 C.2       3 UNK         0.5000 
     56 O           0.4740  -13.3077  -42.5245 O.2       3 UNK        -0.5000 
     57 CA          1.8699  -11.4348  -43.0990 C.3       3 UNK         0.1400 
     58 CB          3.3215  -11.9313  -43.1754 C.3       3 UNK        -0.1800 
     59 N           1.2857  -11.4626  -44.4370 N.am      3 UNK        -0.5000 
     60 C           0.2724  -10.6840  -44.8354 C.2       2 UNK         0.5000 
     61 O          -0.2315   -9.8031  -44.1369 O.2       2 UNK        -0.5000 
     62 CA         -0.2672  -10.9267  -46.2557 C.3       2 UNK         0.1400 
     63 CB          0.5020  -10.0761  -47.2780 C.3       2 UNK        -0.1800 
     64 N          -0.2009  -12.3317  -46.6589 N.am      2 UNK        -0.5000 
     65 C          -1.0227  -13.2954  -46.2272 C.2       1 UNK         0.5000 
     66 O          -1.9193  -13.1036  -45.4050 O.2       1 UNK        -0.5000 
     67 C           0.5050  -20.8753  -47.2830 C.2       11 UNK         0.5000 
     68 O           0.1817  -21.5017  -48.2909 O.2       11 UNK        -0.5000 
     69 N          -0.2989  -19.9925  -46.6709 N.am      12 UNK        -0.5000 
     70 CA         -1.6680  -19.6884  -47.0930 C.3       12 UNK         0.1400 
     71 CB         -2.2233  -18.5390  -46.2378 C.3       12 UNK        -0.1800 
     72 C          -2.5992  -20.9131  -47.0187 C.2       12 UNK         0.5000 
     73 O          -3.3605  -21.1622  -47.9529 O.2       12 UNK        -0.5000 
     74 N          -2.4914  -21.6802  -45.9255 N.am      13 UNK        -0.5000 
     75 CA         -3.2480  -22.9090  -45.6765 C.3       13 UNK         0.1400 
     76 CB         -3.0314  -23.3430  -44.2186 C.3       13 UNK        -0.1800 
     77 C          -2.9141  -24.0665  -46.6401 C.2       13 UNK         0.5000 
     78 O          -3.7119  -24.9978  -46.7528 O.2       13 UNK        -0.5000 
     79 N          -1.7612  -23.9974  -47.3202 N.am      14 UNK        -0.5000 
     80 CA         -1.3289  -24.9716  -48.3229 C.3       14 UNK         0.1400 
     81 CB          0.1984  -24.8937  -48.4807 C.3       14 UNK        -0.1800 
     82 C          -2.0312  -24.8007  -49.6865 C.2       14 UNK         0.5000 
     83 O          -1.8995  -25.6847  -50.5346 O.2       14 UNK        -0.5000 
     84 N          -2.7520  -23.6873  -49.8917 N.am      15 UNK        -0.5000 
     85 CA         -3.5452  -23.4279  -51.0936 C.3       15 UNK         0.1400 
     86 CB         -4.0268  -21.9677  -51.0782 C.3       15 UNK        -0.1800 
     87 C          -4.7564  -24.3749  -51.2090 C.2       15 UNK         0.5000 
     88 O          -5.3263  -24.7834  -50.1933 O.2       15 UNK        -0.5000 
     89 N          -5.1515  -24.6675  -52.4520 N.am      16 UNK        -0.5000 
     90 CA         -6.3843  -25.3730  -52.8014 C.3       16 UNK         0.1400 
     91 CB         -6.2945  -25.7904  -54.2791 C.3       16 UNK        -0.1800 
     92 C          -7.6377  -24.5058  -52.5584 C.2       16 UNK         0.5000 
     93 O          -7.5247  -23.3052  -52.3008 O.2       16 UNK        -0.5000 
     94 N          -8.8220  -25.1243  -52.6826 N.am      17 UNK        -0.5000 
     95 CA        -10.1254  -24.4522  -52.5953 C.3       17 UNK         0.1400 
     96 CB        -11.2461  -25.5020  -52.6399 C.3       17 UNK        -0.1800 
     97 C         -10.3256  -23.3910  -53.6965 C.2       17 UNK         0.5000 
     98 O         -10.8797  -22.3241  -53.4284 O.2       17 UNK        -0.5000 
     99 N          -9.8111  -23.6835  -54.8980 N.am      18 UNK        -0.5000 
    100 CA        -9.5771  -22.7150  -55.9638 C.3       18 UNK         0.1400 
    101 CB        -9.7158  -23.4214  -57.3238 C.3       18 UNK        -0.1800 
    102 C         -8.1716  -22.1312  -55.7428 C.2       18 UNK         0.5000 
    103 O         -7.2005  -22.6447  -56.2970 O.2       18 UNK        -0.5000 
    104 N         -8.0865  -21.1258  -54.8628 N.am      19 UNK        -0.5000 
    105 CA        -6.8389  -20.5917  -54.3067 C.3       19 UNK         0.1400 
    106 CB        -7.1683  -19.8263  -53.0149 C.3       19 UNK        -0.1800 
    107 C         -6.0184  -19.7061  -55.2659 C.2       19 UNK         0.5000 
    108 O         -4.9036  -19.3180  -54.9106 O.2       19 UNK        -0.5000 
    109 N         -6.5637  -19.3896  -56.4493 N.am      20 UNK        -0.5000 
    110 CA        -5.8908  -18.6485  -57.5182 C.3       20 UNK         0.1400 
    111 CB        -6.8724  -18.4358  -58.6808 C.3       20 UNK        -0.1800 
    112 C         -4.6248  -19.3882  -57.9907 C.2       20 UNK         0.5000 
    113 O         -4.7205  -20.5460  -58.4033 O.2       20 UNK        -0.5000 
    114 N         -3.4624  -18.7321  -57.8569 N.am      21 UNK        -0.5000 
    115 CA        -2.1166  -19.2821  -58.0829 C.3       21 UNK         0.1400 
    116 CB        -1.8776  -19.5325  -59.5868 C.3       21 UNK        -0.1800 
    117 C         -1.8204  -20.5240  -57.2079 C.2       21 UNK         0.5000 
    118 O         -1.1651  -21.4623  -57.6638 O.2       21 UNK        -0.5000 
    119 N         -2.3484  -20.5056  -55.9763 N.am      22 UNK        -0.5000 
    120 CA        -2.3788  -21.6042  -54.9951 C.3       22 UNK         0.1400 
    121 C         -3.4020  -22.7325  -55.3180 C.2       22 UNK         0.5000 
    122 N         -4.1976  -22.6426  -56.3748 N.am      22 UNK        -0.7600 
    123 O         -3.5222  -23.6853  -54.5545 O.2       22 UNK        -0.5000 
    124 C124       -0.9825  -22.1673  -54.6042 C.3       23 UNK        -0.0398 
    125 S125        0.1406  -20.8805  -53.9632 S.3       23 UNK        -0.2404 
    126 C126       -0.1683  -21.0395  -52.1796 C.3       23 UNK        -0.0205 
    127 H127        3.5105  -15.6304  -48.0368 H         1 UNK         0.0600 
    128 H128        2.7095  -16.6038  -46.8050 H         1 UNK         0.0600 
    129 H129        3.5197  -15.0914  -46.3591 H         1 UNK         0.0600 
    130 H130        0.6142  -16.0458  -46.1347 H         1 UNK         0.3000 
    131 H131       -1.4370  -15.3671  -46.2037 H         1 UNK         0.0600 
    132 H132       -0.9263  -14.0950  -48.9417 H         1 UNK         0.0800 
    133 H133       -2.4849  -14.4135  -48.2390 H         1 UNK         0.0800 
    134 H134        0.4771  -15.5739  -50.0596 H         1 UNK         0.0800 
    135 H135       -0.7549  -16.0508  -51.2002 H         1 UNK         0.0800 
    136 H136       -1.1487  -18.5612  -51.6098 H         1 UNK         0.1150 
    137 H137        2.3059  -21.0378  -51.0373 H         1 UNK         0.1150 
    138 H138        2.1989  -17.0873  -49.3838 H         1 UNK         0.1150 
    139 H139        4.4893  -19.4424  -50.4176 H         1 UNK         0.0800 
    140 H140        4.1544  -18.3732  -49.0794 H         1 UNK         0.0800 
    141 H141        2.5227  -19.1352  -47.1867 H         1 UNK         0.0800 
    142 H142        3.6607  -19.9871  -46.1929 H         1 UNK         0.0800 
    143 H143        2.1866  -22.1431  -46.9694 H         1 UNK         0.0600 
    144 H144        2.1813  -20.6020  -44.5846 H         1 UNK         0.3000 
    145 H145        0.0321  -22.8007  -42.7483 H         1 UNK         0.0600 
    146 H146        1.9873  -22.8188  -41.2375 H         1 UNK         0.0600 
    147 H147        3.0334  -22.2300  -42.5281 H         1 UNK         0.0600 
    148 H148        2.3056  -23.8271  -42.6399 H         1 UNK         0.0600 
    149 H149        1.3751  -20.4396  -41.9467 H         1 UNK         0.3000 
    150 H150       -1.1552  -18.1039  -43.0239 H         1 UNK         0.0600 
    151 H151       -1.8554  -18.9754  -40.7983 H         1 UNK         0.0600 
    152 H152       -0.9284  -17.4914  -40.6242 H         1 UNK         0.0600 
    153 H153       -0.1772  -19.0460  -40.2750 H         1 UNK         0.0600 
    154 H154        1.3489  -17.7024  -41.7293 H         1 UNK         0.3000 
    155 H155        3.3630  -17.3951  -44.6564 H         1 UNK         0.0600 
    156 H156        2.2754  -15.1618  -44.2311 H         1 UNK         0.0600 
    157 H157        3.8979  -15.2633  -43.5581 H         1 UNK         0.0600 
    158 H158        2.4875  -15.3896  -42.5082 H         1 UNK         0.0600 
    159 H159        3.8646  -17.2848  -41.8201 H         1 UNK         0.3000 
    160 H160        4.7817  -20.7092  -41.4495 H         1 UNK         0.0600 
    161 H161        6.4907  -18.1634  -41.5344 H         1 UNK         0.0600 
    162 H162        6.7862  -19.6231  -42.4717 H         1 UNK         0.0600 
    163 H163        6.9106  -19.6709  -40.7205 H         1 UNK         0.0600 
    164 H164        4.8688  -18.4555  -39.6820 H         1 UNK         0.3000 
    165 H165        1.5509  -18.7497  -38.4163 H         1 UNK         0.0600 
    166 H166        2.7715  -19.0046  -36.2790 H         1 UNK         0.0600 
    167 H167        2.8594  -20.4986  -37.1973 H         1 UNK         0.0600 
    168 H168        4.2539  -19.4271  -37.1368 H         1 UNK         0.0600 
    169 H169        3.6338  -17.0438  -37.6080 H         1 UNK         0.3000 
    170 H170        3.3563  -14.8073  -37.9712 H         1 UNK         0.0600 
    171 H171        4.4977  -14.9199  -40.8234 H         1 UNK         0.0600 
    172 H172        5.0163  -13.8224  -39.5453 H         1 UNK         0.0600 
    173 H173        5.2975  -15.5474  -39.3872 H         1 UNK         0.0600 
    174 H174        2.6590  -13.3602  -40.3067 H         1 UNK         0.3000 
    175 H175       -0.6277  -12.9644  -40.1632 H         1 UNK         0.0600 
    176 H176        0.7888  -11.0092  -38.2736 H         1 UNK         0.0600 
    177 H177       -0.6873  -10.6734  -39.1795 H         1 UNK         0.0600 
    178 H178       -0.6891  -11.8966  -37.9216 H         1 UNK         0.0600 
    179 H179        1.5326  -11.0392  -40.6012 H         1 UNK         0.3000 
    180 H180        1.8830  -10.4049  -42.7350 H         1 UNK         0.0600 
    181 H181        3.9294  -11.2666  -43.7895 H         1 UNK         0.0600 
    182 H182        3.7810  -11.9686  -42.1869 H         1 UNK         0.0600 
    183 H183        3.3845  -12.9284  -43.6074 H         1 UNK         0.0600 
    184 H184        1.5972  -12.1962  -45.0551 H         1 UNK         0.3000 
    185 H185       -1.3129  -10.6122  -46.2713 H         1 UNK         0.0600 
    186 H186        1.5537  -10.3609  -47.3287 H         1 UNK         0.0600 
    187 H187        0.0778  -10.1816  -48.2767 H         1 UNK         0.0600 
    188 H188        0.4594   -9.0177  -47.0173 H         1 UNK         0.0600 
    189 H189        0.5240  -12.5972  -47.3221 H         1 UNK         0.3000 
    190 H190        0.0479  -19.4918  -45.8598 H         1 UNK         0.3000 
    191 H191       -1.6241  -19.3601  -48.1334 H         1 UNK         0.0600 
    192 H192       -1.5293  -17.7009  -46.2087 H         1 UNK         0.0600 
    193 H193       -2.4120  -18.8445  -45.2095 H         1 UNK         0.0600 
    194 H194       -3.1650  -18.1725  -46.6475 H         1 UNK         0.0600 
    195 H195       -1.8800  -21.3680  -45.1755 H         1 UNK         0.3000 
    196 H196       -4.3068  -22.6768  -45.8075 H         1 UNK         0.0600 
    197 H197       -3.3364  -22.5604  -43.5236 H         1 UNK         0.0600 
    198 H198       -1.9851  -23.5771  -44.0225 H         1 UNK         0.0600 
    199 H199       -3.6168  -24.2325  -43.9827 H         1 UNK         0.0600 
    200 H200       -1.1510  -23.2052  -47.1647 H         1 UNK         0.3000 
    201 H201       -1.5729  -25.9707  -47.9559 H         1 UNK         0.0600 
    202 H202        0.5654  -25.7103  -49.1033 H         1 UNK         0.0600 
    203 H203        0.7029  -24.9676  -47.5169 H         1 UNK         0.0600 
    204 H204        0.5101  -23.9632  -48.9540 H         1 UNK         0.0600 
    205 H205       -2.8366  -23.0141  -49.1402 H         1 UNK         0.3000 
    206 H206       -2.8933  -23.5719  -51.9570 H         1 UNK         0.0600 
    207 H207       -4.7686  -21.8011  -50.2958 H         1 UNK         0.0600 
    208 H208       -3.2079  -21.2715  -50.9042 H         1 UNK         0.0600 
    209 H209       -4.4911  -21.7009  -52.0284 H         1 UNK         0.0600 
    210 H210       -4.6200  -24.2879  -53.2337 H         1 UNK         0.3000 
    211 H211       -6.4603  -26.2692  -52.1826 H         1 UNK         0.0600 
    212 H212       -6.2447  -24.9217  -54.9372 H         1 UNK         0.0600 
    213 H213       -7.1582  -26.3833  -54.5812 H         1 UNK         0.0600 
    214 H214       -5.4077  -26.3972  -54.4635 H         1 UNK         0.0600 
    215 H215       -8.8396  -26.1137  -52.8844 H         1 UNK         0.3000 
    216 H216      -10.1737  -23.9409  -51.6316 H         1 UNK         0.0600 
    217 H217      -12.2260  -25.0297  -52.5577 H         1 UNK         0.0600 
    218 H218      -11.1576  -26.2089  -51.8147 H         1 UNK         0.0600 
    219 H219      -11.2321  -26.0687  -53.5717 H         1 UNK         0.0600 
    220 H220       -9.3486  -24.5742  -55.0053 H         1 UNK         0.3000 
    221 H221      -10.3104  -21.9068  -55.9216 H         1 UNK         0.0600 
    222 H222       -9.0271  -24.2619  -57.4199 H         1 UNK         0.0600 
    223 H223      -10.7273  -23.8022  -57.4658 H         1 UNK         0.0600 
    224 H224       -9.5092  -22.7314  -58.1428 H         1 UNK         0.0600 
    225 H225       -8.9388  -20.7982  -54.4298 H         1 UNK         0.3000 
    226 H226       -6.2022  -21.4386  -54.0413 H         1 UNK         0.0600 
    227 H227       -7.6763  -20.4692  -52.2956 H         1 UNK         0.0600 
    228 H228       -6.2612  -19.4603  -52.5320 H         1 UNK         0.0600 
    229 H229       -7.8088  -18.9655  -53.2097 H         1 UNK         0.0600 
    230 H230       -7.4692  -19.7765  -56.6671 H         1 UNK         0.3000 
    231 H231       -5.6093  -17.6704  -57.1230 H         1 UNK         0.0600 
    232 H232       -6.4017  -17.8770  -59.4906 H         1 UNK         0.0600 
    233 H233       -7.7471  -17.8693  -58.3608 H         1 UNK         0.0600 
    234 H234       -7.2189  -19.3840  -59.0942 H         1 UNK         0.0600 
    235 H235       -3.4862  -17.7924  -57.4852 H         1 UNK         0.3000 
    236 H236       -1.4120  -18.5136  -57.7619 H         1 UNK         0.0600 
    237 H237       -2.5083  -20.3354  -59.9697 H         1 UNK         0.0600 
    238 H238       -2.0824  -18.6367  -60.1729 H         1 UNK         0.0600 
    239 H239       -0.8409  -19.8128  -59.7768 H         1 UNK         0.0600 
    240 H240       -2.9254  -19.7127  -55.7218 H         1 UNK         0.3000 
    241 H241       -2.7879  -21.1427  -54.0956 H         1 UNK         0.0600 
    242 H242       -4.9202  -23.3326  -56.5104 H         1 UNK         0.3800 
    243 H243       -4.1536  -21.8576  -57.0144 H         1 UNK         0.3800 
    244 H244       -0.5066  -22.6483  -55.4590 H         1 UNK         0.0800 
    245 H245       -1.0786  -22.9478  -53.8475 H         1 UNK         0.0800 
    246 H246       -1.2415  -21.0147  -51.9970 H         1 UNK         0.0800 
    247 H247        0.1832  -22.0109  -51.8276 H         1 UNK         0.0800 
@<TRIPOS>BOND
     1    1    2 1    
     2    1  127 1    
     3    1  128 1    
     4    1  129 1    
     5    2    3 2    
     6    2    4 am   BACKBONE|DICT|INTERRES
     7    4    5 1    
     8    4  130 1    
     9    5    6 1    
    10    5   65 1    
    11    5  131 1    
    12    6    7 1    
    13    6  132 1    
    14    6  133 1    
    15    7    8 1    
    16    8    9 1    
    17    8  134 1    
    18    8  135 1    
    19    9   10 ar   
    20    9   14 ar   
    21   10   11 ar   
    22   10  136 1    
    23   11   12 ar   
    24   11  126 1    
    25   12   13 ar   
    26   12  137 1    
    27   13   14 ar   
    28   13   15 1    
    29   14  138 1    
    30   15   16 1    
    31   15  139 1    
    32   15  140 1    
    33   16   17 1    
    34   17   18 1    
    35   17  141 1    
    36   17  142 1    
    37   18   19 1    
    38   18   67 1    
    39   18  143 1    
    40   19   20 am   BACKBONE|DICT|INTERRES
    41   19  144 1    
    42   20   21 2    
    43   20   22 1    
    44   22   23 1    
    45   22   24 1    
    46   22  145 1    
    47   23  146 1    
    48   23  147 1    
    49   23  148 1    
    50   24   25 am   BACKBONE|DICT|INTERRES
    51   24  149 1    
    52   25   26 2    
    53   25   27 1    
    54   27   28 1    
    55   27   29 1    
    56   27  150 1    
    57   28  151 1    
    58   28  152 1    
    59   28  153 1    
    60   29   30 am   BACKBONE|DICT|INTERRES
    61   29  154 1    
    62   30   31 2    
    63   30   32 1    
    64   32   33 1    
    65   32   34 1    
    66   32  155 1    
    67   33  156 1    
    68   33  157 1    
    69   33  158 1    
    70   34   35 am   BACKBONE|DICT|INTERRES
    71   34  159 1    
    72   35   36 2    
    73   35   37 1    
    74   37   38 1    
    75   37   39 1    
    76   37  160 1    
    77   38  161 1    
    78   38  162 1    
    79   38  163 1    
    80   39   40 am   BACKBONE|DICT|INTERRES
    81   39  164 1    
    82   40   41 2    
    83   40   42 1    
    84   42   43 1    
    85   42   44 1    
    86   42  165 1    
    87   43  166 1    
    88   43  167 1    
    89   43  168 1    
    90   44   45 am   BACKBONE|DICT|INTERRES
    91   44  169 1    
    92   45   46 2    
    93   45   47 1    
    94   47   48 1    
    95   47   49 1    
    96   47  170 1    
    97   48  171 1    
    98   48  172 1    
    99   48  173 1    
   100   49   50 am   BACKBONE|DICT|INTERRES
   101   49  174 1    
   102   50   51 2    
   103   50   52 1    
   104   52   53 1    
   105   52   54 1    
   106   52  175 1    
   107   53  176 1    
   108   53  177 1    
   109   53  178 1    
   110   54   55 am   BACKBONE|DICT|INTERRES
   111   54  179 1    
   112   55   56 2    
   113   55   57 1    
   114   57   58 1    
   115   57   59 1    
   116   57  180 1    
   117   58  181 1    
   118   58  182 1    
   119   58  183 1    
   120   59   60 am   BACKBONE|DICT|INTERRES
   121   59  184 1    
   122   60   61 2    
   123   60   62 1    
   124   62   63 1    
   125   62   64 1    
   126   62  185 1    
   127   63  186 1    
   128   63  187 1    
   129   63  188 1    
   130   64   65 am   BACKBONE|DICT|INTERRES
   131   64  189 1    
   132   65   66 2    
   133   67   68 2    
   134   67   69 am   BACKBONE|DICT|INTERRES
   135   69   70 1    
   136   69  190 1    
   137   70   71 1    
   138   70   72 1    
   139   70  191 1    
   140   71  192 1    
   141   71  193 1    
   142   71  194 1    
   143   72   73 2    
   144   72   74 am   BACKBONE|DICT|INTERRES
   145   74   75 1    
   146   74  195 1    
   147   75   76 1    
   148   75   77 1    
   149   75  196 1    
   150   76  197 1    
   151   76  198 1    
   152   76  199 1    
   153   77   78 2    
   154   77   79 am   BACKBONE|DICT|INTERRES
   155   79   80 1    
   156   79  200 1    
   157   80   81 1    
   158   80   82 1    
   159   80  201 1    
   160   81  202 1    
   161   81  203 1    
   162   81  204 1    
   163   82   83 2    
   164   82   84 am   BACKBONE|DICT|INTERRES
   165   84   85 1    
   166   84  205 1    
   167   85   86 1    
   168   85   87 1    
   169   85  206 1    
   170   86  207 1    
   171   86  208 1    
   172   86  209 1    
   173   87   88 2    
   174   87   89 am   BACKBONE|DICT|INTERRES
   175   89   90 1    
   176   89  210 1    
   177   90   91 1    
   178   90   92 1    
   179   90  211 1    
   180   91  212 1    
   181   91  213 1    
   182   91  214 1    
   183   92   93 2    
   184   92   94 am   BACKBONE|DICT|INTERRES
   185   94   95 1    
   186   94  215 1    
   187   95   96 1    
   188   95   97 1    
   189   95  216 1    
   190   96  217 1    
   191   96  218 1    
   192   96  219 1    
   193   97   98 2    
   194   97   99 am   BACKBONE|DICT|INTERRES
   195   99  100 1    
   196   99  220 1    
   197  100  101 1    
   198  100  102 1    
   199  100  221 1    
   200  101  222 1    
   201  101  223 1    
   202  101  224 1    
   203  102  103 2    
   204  102  104 am   BACKBONE|DICT|INTERRES
   205  104  105 1    
   206  104  225 1    
   207  105  106 1    
   208  105  107 1    
   209  105  226 1    
   210  106  227 1    
   211  106  228 1    
   212  106  229 1    
   213  107  108 2    
   214  107  109 am   BACKBONE|DICT|INTERRES
   215  109  110 1    
   216  109  230 1    
   217  110  111 1    
   218  110  112 1    
   219  110  231 1    
   220  111  232 1    
   221  111  233 1    
   222  111  234 1    
   223  112  113 2    
   224  112  114 am   BACKBONE|DICT|INTERRES
   225  114  115 1    
   226  114  235 1    
   227  115  116 1    
   228  115  117 1    
   229  115  236 1    
   230  116  237 1    
   231  116  238 1    
   232  116  239 1    
   233  117  118 2    
   234  117  119 am   BACKBONE|DICT|INTERRES
   235  119  120 1    
   236  119  240 1    
   237  120  121 1    
   238  120  124 1    
   239  120  241 1    
   240  121  122 am   BACKBONE|DICT|INTERRES
   241  121  123 2    
   242  122  242 1    
   243  122  243 1    
   244  124  125 1    
   245  124  244 1    
   246  124  245 1    
   247  125  126 1    
   248  126  246 1    
   249  126  247 1    
@<TRIPOS>SUBSTRUCTURE
     1 UNK         1 GROUP             0       ****    0 ROOT    
