@<TRIPOS>MOLECULE
3R540
247   249    1
SMALL
USER_CHARGES


@<TRIPOS>ATOM
      1 CA          4.3948  -11.4244  -49.0587 C.3       0 UNK        -0.1800 
      2 C           3.4545  -11.8984  -47.9597 C.2       0 UNK         0.5000 
      3 O           2.8486  -11.0748  -47.2744 O.2       0 UNK        -0.5000 
      4 N           3.3330  -13.2211  -47.7891 N.am      1 UNK        -0.5000 
      5 CA          2.4522  -13.8681  -46.8082 C.3       1 UNK         0.1400 
      6 C6          2.8479  -15.3440  -46.5660 C.3       23 UNK        -0.0398 
      7 S7          2.9217  -16.3657  -48.0770 S.3       23 UNK        -0.2404 
      8 C8          1.3996  -17.3327  -47.8805 C.3       23 UNK        -0.0205 
      9 C9          1.1133  -18.1702  -49.1122 C.ar      23 UNK        -0.0193 
     10 C10         0.2468  -17.6972  -50.0984 C.ar      23 UNK        -0.1150 
     11 C11        -0.0649  -18.4903  -51.2046 C.ar      23 UNK        -0.0193 
     12 C12         0.4972  -19.7669  -51.3168 C.ar      23 UNK        -0.1150 
     13 C13         1.3681  -20.2572  -50.3362 C.ar      23 UNK        -0.0193 
     14 C14         1.6891  -19.4341  -49.2493 C.ar      23 UNK        -0.1150 
     15 C15         1.9249  -21.6786  -50.4809 C.3       23 UNK        -0.0205 
     16 S16         2.5183  -22.4710  -48.9361 S.3       23 UNK        -0.2404 
     17 C17         1.0555  -22.3116  -47.8610 C.3       23 UNK        -0.0398 
     18 CA          0.6846  -23.6051  -47.1037 C.3       11 UNK         0.1400 
     19 N           1.7089  -24.0361  -46.1492 N.am      11 UNK        -0.5000 
     20 C           1.7279  -25.2408  -45.5598 C.2       10 UNK         0.5000 
     21 O           0.9107  -26.1299  -45.7982 O.2       10 UNK        -0.5000 
     22 CA          2.8074  -25.4727  -44.4856 C.3       10 UNK         0.1400 
     23 CB          4.1531  -25.8258  -45.1361 C.3       10 UNK        -0.1800 
     24 N           2.9819  -24.3184  -43.6022 N.am      10 UNK        -0.5000 
     25 C           2.0382  -23.8432  -42.7767 C.2       9 UNK         0.5000 
     26 O           0.9381  -24.3718  -42.6253 O.2       9 UNK        -0.5000 
     27 CA          2.3509  -22.5313  -42.0299 C.3       9 UNK         0.1400 
     28 CB          2.9491  -22.8316  -40.6478 C.3       9 UNK        -0.1800 
     29 N           3.2411  -21.6174  -42.7531 N.am      9 UNK        -0.5000 
     30 C           3.0253  -21.1289  -43.9824 C.2       8 UNK         0.5000 
     31 O           2.0458  -21.4205  -44.6726 O.2       8 UNK        -0.5000 
     32 CA          4.0999  -20.1549  -44.5006 C.3       8 UNK         0.1400 
     33 CB          3.9989  -19.8980  -46.0178 C.3       8 UNK        -0.1800 
     34 N           4.0990  -18.9000  -43.7386 N.am      8 UNK        -0.5000 
     35 C           3.1160  -17.9896  -43.6817 C.2       7 UNK         0.5000 
     36 O           2.0596  -18.0679  -44.3164 O.2       7 UNK        -0.5000 
     37 CA          3.3549  -16.7745  -42.7659 C.3       7 UNK         0.1400 
     38 CB          4.6979  -16.0686  -43.0426 C.3       7 UNK        -0.1800 
     39 N           2.2446  -15.8522  -42.9641 N.am      7 UNK        -0.5000 
     40 C           1.8231  -14.8945  -42.1344 C.2       6 UNK         0.5000 
     41 O           2.4026  -14.5911  -41.0909 O.2       6 UNK        -0.5000 
     42 CA          0.5276  -14.1527  -42.5303 C.3       6 UNK         0.1400 
     43 CB          0.8385  -12.7175  -42.9823 C.3       6 UNK        -0.1800 
     44 N          -0.2498  -14.8215  -43.5807 N.am      6 UNK        -0.5000 
     45 C          -0.9247  -15.9691  -43.4193 C.2       5 UNK         0.5000 
     46 O          -0.9418  -16.6039  -42.3631 O.2       5 UNK        -0.5000 
     47 CA         -1.7218  -16.4631  -44.6441 C.3       5 UNK         0.1400 
     48 CB         -2.5540  -17.7304  -44.3547 C.3       5 UNK        -0.1800 
     49 N          -2.5666  -15.4084  -45.2122 N.am      5 UNK        -0.5000 
     50 C          -3.5632  -14.7461  -44.5986 C.2       4 UNK         0.5000 
     51 O          -3.9190  -14.9566  -43.4385 O.2       4 UNK        -0.5000 
     52 CA         -4.2919  -13.6514  -45.4061 C.3       4 UNK         0.1400 
     53 CB         -3.7777  -12.2621  -44.9962 C.3       4 UNK        -0.1800 
     54 N          -4.1312  -13.7972  -46.8511 N.am      4 UNK        -0.5000 
     55 C          -4.6753  -14.7629  -47.6052 C.2       3 UNK         0.5000 
     56 O          -5.5200  -15.5558  -47.1910 O.2       3 UNK        -0.5000 
     57 CA         -4.1778  -14.8678  -49.0647 C.3       3 UNK         0.1400 
     58 CB         -5.2652  -14.4037  -50.0451 C.3       3 UNK        -0.1800 
     59 N          -2.9531  -14.1012  -49.3251 N.am      3 UNK        -0.5000 
     60 C          -1.7549  -14.3629  -48.7853 C.2       2 UNK         0.5000 
     61 O          -1.5475  -15.3426  -48.0683 O.2       2 UNK        -0.5000 
     62 CA         -0.6449  -13.3306  -49.0795 C.3       2 UNK         0.1400 
     63 CB         -1.0873  -11.9002  -48.6998 C.3       2 UNK        -0.1800 
     64 N           0.6509  -13.6211  -48.4570 N.am      2 UNK        -0.5000 
     65 C           0.9521  -13.7152  -47.1509 C.2       1 UNK         0.5000 
     66 O           0.1290  -13.6593  -46.2339 O.2       1 UNK        -0.5000 
     67 C          -0.6693  -23.4094  -46.4014 C.2       11 UNK         0.5000 
     68 O          -1.6959  -23.7780  -46.9692 O.2       11 UNK        -0.5000 
     69 N          -0.6553  -22.8435  -45.1861 N.am      12 UNK        -0.5000 
     70 CA         -1.8504  -22.6359  -44.3665 C.3       12 UNK         0.1400 
     71 CB         -1.4986  -21.7888  -43.1353 C.3       12 UNK        -0.1800 
     72 C          -2.5222  -23.9621  -43.9634 C.2       12 UNK         0.5000 
     73 O          -3.7399  -24.0860  -44.0924 O.2       12 UNK        -0.5000 
     74 N          -1.7128  -24.9448  -43.5429 N.am      13 UNK        -0.5000 
     75 CA         -2.1446  -26.3034  -43.2065 C.3       13 UNK         0.1400 
     76 CB         -0.9737  -27.0652  -42.5674 C.3       13 UNK        -0.1800 
     77 C          -2.6973  -27.0798  -44.4168 C.2       13 UNK         0.5000 
     78 O          -3.6680  -27.8231  -44.2699 O.2       13 UNK        -0.5000 
     79 N          -2.0887  -26.8751  -45.5929 N.am      14 UNK        -0.5000 
     80 CA         -2.5196  -27.4548  -46.8674 C.3       14 UNK         0.1400 
     81 CB         -1.3453  -27.3906  -47.8576 C.3       14 UNK        -0.1800 
     82 C          -3.7603  -26.7671  -47.4746 C.2       14 UNK         0.5000 
     83 O          -4.3307  -27.3019  -48.4261 O.2       14 UNK        -0.5000 
     84 N          -4.1279  -25.5883  -46.9480 N.am      15 UNK        -0.5000 
     85 CA         -5.1386  -24.6535  -47.4592 C.3       15 UNK         0.1400 
     86 CB         -6.5509  -25.2726  -47.4175 C.3       15 UNK        -0.1800 
     87 C          -4.7684  -24.0718  -48.8432 C.2       15 UNK         0.5000 
     88 O          -5.6498  -23.7092  -49.6236 O.2       15 UNK        -0.5000 
     89 N          -3.4599  -23.9843  -49.1108 N.am      16 UNK        -0.5000 
     90 CA         -2.8666  -23.4275  -50.3230 C.3       16 UNK         0.1400 
     91 CB         -1.5615  -24.1807  -50.6242 C.3       16 UNK        -0.1800 
     92 C          -2.5914  -21.9207  -50.1892 C.2       16 UNK         0.5000 
     93 O          -2.4199  -21.2535  -51.2072 O.2       16 UNK        -0.5000 
     94 N          -2.5563  -21.3987  -48.9540 N.am      17 UNK        -0.5000 
     95 CA         -2.3821  -19.9772  -48.6541 C.3       17 UNK         0.1400 
     96 CB         -1.8541  -19.8147  -47.2185 C.3       17 UNK        -0.1800 
     97 C          -3.6869  -19.1954  -48.9038 C.2       17 UNK         0.5000 
     98 O          -4.3388  -18.7610  -47.9539 O.2       17 UNK        -0.5000 
     99 N          -4.0717  -19.0790  -50.1787 N.am      18 UNK        -0.5000 
    100 CA        -5.3229  -18.4847  -50.6292 C.3       18 UNK         0.1400 
    101 CB        -6.4134  -19.5697  -50.6628 C.3       18 UNK        -0.1800 
    102 C         -5.1426  -17.8633  -52.0190 C.2       18 UNK         0.5000 
    103 O         -4.2687  -18.2816  -52.7854 O.2       18 UNK        -0.5000 
    104 N         -6.0229  -16.9080  -52.3440 N.am      19 UNK        -0.5000 
    105 CA        -6.0731  -16.2088  -53.6317 C.3       19 UNK         0.1400 
    106 CB        -7.0917  -15.0627  -53.5426 C.3       19 UNK        -0.1800 
    107 C         -6.4027  -17.1308  -54.8213 C.2       19 UNK         0.5000 
    108 O         -6.0155  -16.8243  -55.9474 O.2       19 UNK        -0.5000 
    109 N         -7.0682  -18.2622  -54.5508 N.am      20 UNK        -0.5000 
    110 CA        -7.3497  -19.3201  -55.5226 C.3       20 UNK         0.1400 
    111 CB        -8.2783  -20.3579  -54.8737 C.3       20 UNK        -0.1800 
    112 C         -6.0787  -20.0016  -56.0708 C.2       20 UNK         0.5000 
    113 O         -6.0953  -20.4760  -57.2073 O.2       20 UNK        -0.5000 
    114 N         -5.0076  -20.0298  -55.2653 N.am      21 UNK        -0.5000 
    115 CA        -3.7001  -20.5543  -55.6506 C.3       21 UNK         0.1400 
    116 CB        -3.0698  -21.2715  -54.4495 C.3       21 UNK        -0.1800 
    117 C         -2.7790  -19.4315  -56.1543 C.2       21 UNK         0.5000 
    118 O         -2.1292  -19.6044  -57.1864 O.2       21 UNK        -0.5000 
    119 N         -2.7304  -18.3110  -55.4198 N.am      22 UNK        -0.5000 
    120 CA        -1.8634  -17.1612  -55.7323 C.3       22 UNK         0.1400 
    121 C         -2.3375  -16.2762  -56.9222 C.2       22 UNK         0.5000 
    122 N         -3.5985  -16.3027  -57.3300 N.am      22 UNK        -0.7600 
    123 O         -1.5314  -15.5539  -57.5024 O.2       22 UNK        -0.5000 
    124 C124       -1.5724  -16.3085  -54.4692 C.3       23 UNK        -0.0398 
    125 S125       -0.1813  -16.9786  -53.4982 S.3       23 UNK        -0.2404 
    126 C126       -1.0406  -17.9760  -52.2495 C.3       23 UNK        -0.0205 
    127 H127        5.1828  -10.8015  -48.6355 H         1 UNK         0.0600 
    128 H128        3.8467  -10.8320  -49.7913 H         1 UNK         0.0600 
    129 H129        4.8642  -12.2596  -49.5792 H         1 UNK         0.0600 
    130 H130        3.8596  -13.8512  -48.3784 H         1 UNK         0.3000 
    131 H131        2.5996  -13.3462  -45.8608 H         1 UNK         0.0600 
    132 H132        3.8398  -15.3737  -46.1172 H         1 UNK         0.0800 
    133 H133        2.1815  -15.8051  -45.8368 H         1 UNK         0.0800 
    134 H134        1.4776  -17.9742  -47.0028 H         1 UNK         0.0800 
    135 H135        0.5647  -16.6626  -47.6844 H         1 UNK         0.0800 
    136 H136       -0.1973  -16.7174  -49.9977 H         1 UNK         0.1150 
    137 H137        0.2368  -20.3884  -52.1623 H         1 UNK         0.1150 
    138 H138        2.3732  -19.7774  -48.4893 H         1 UNK         0.1150 
    139 H139        1.1591  -22.3228  -50.9160 H         1 UNK         0.0800 
    140 H140        2.7491  -21.6544  -51.1946 H         1 UNK         0.0800 
    141 H141        0.2158  -21.9967  -48.4823 H         1 UNK         0.0800 
    142 H142        1.2375  -21.4944  -47.1620 H         1 UNK         0.0800 
    143 H143        0.5581  -24.4020  -47.8392 H         1 UNK         0.0600 
    144 H144        2.3662  -23.3291  -45.8501 H         1 UNK         0.3000 
    145 H145        2.4902  -26.3199  -43.8738 H         1 UNK         0.0600 
    146 H146        4.9031  -26.0694  -44.3834 H         1 UNK         0.0600 
    147 H147        4.0544  -26.6948  -45.7881 H         1 UNK         0.0600 
    148 H148        4.5381  -25.0037  -45.7410 H         1 UNK         0.0600 
    149 H149        3.8597  -23.8247  -43.6621 H         1 UNK         0.3000 
    150 H150        1.4055  -22.0073  -41.8821 H         1 UNK         0.0600 
    151 H151        3.9206  -23.3211  -40.7274 H         1 UNK         0.0600 
    152 H152        2.2956  -23.4901  -40.0739 H         1 UNK         0.0600 
    153 H153        3.0785  -21.9187  -40.0662 H         1 UNK         0.0600 
    154 H154        4.0663  -21.3167  -42.2551 H         1 UNK         0.3000 
    155 H155        5.0671  -20.6267  -44.3206 H         1 UNK         0.0600 
    156 H156        3.0317  -19.4829  -46.2925 H         1 UNK         0.0600 
    157 H157        4.1221  -20.8253  -46.5783 H         1 UNK         0.0600 
    158 H158        4.7689  -19.2051  -46.3564 H         1 UNK         0.0600 
    159 H159        4.9227  -18.7401  -43.1759 H         1 UNK         0.3000 
    160 H160        3.3362  -17.1292  -41.7336 H         1 UNK         0.0600 
    161 H161        4.7902  -15.7655  -44.0842 H         1 UNK         0.0600 
    162 H162        5.5427  -16.7188  -42.8146 H         1 UNK         0.0600 
    163 H163        4.8125  -15.1765  -42.4268 H         1 UNK         0.0600 
    164 H164        1.6524  -16.1070  -43.7441 H         1 UNK         0.3000 
    165 H165       -0.0966  -14.0968  -41.6361 H         1 UNK         0.0600 
    166 H166       -0.0755  -12.1695  -43.2127 H         1 UNK         0.0600 
    167 H167        1.3600  -12.1647  -42.1999 H         1 UNK         0.0600 
    168 H168        1.4699  -12.7024  -43.8701 H         1 UNK         0.0600 
    169 H169       -0.2775  -14.3605  -44.4875 H         1 UNK         0.3000 
    170 H170       -0.9893  -16.7155  -45.4126 H         1 UNK         0.0600 
    171 H171       -1.9056  -18.5727  -44.1117 H         1 UNK         0.0600 
    172 H172       -3.2347  -17.5881  -43.5149 H         1 UNK         0.0600 
    173 H173       -3.1535  -18.0156  -45.2191 H         1 UNK         0.0600 
    174 H174       -2.3368  -15.1552  -46.1676 H         1 UNK         0.3000 
    175 H175       -5.3560  -13.7133  -45.1687 H         1 UNK         0.0600 
    176 H176       -3.9116  -12.0960  -43.9264 H         1 UNK         0.0600 
    177 H177       -2.7150  -12.1465  -45.2148 H         1 UNK         0.0600 
    178 H178       -4.3173  -11.4707  -45.5166 H         1 UNK         0.0600 
    179 H179       -3.4648  -13.1803  -47.2895 H         1 UNK         0.3000 
    180 H180       -3.9628  -15.9206  -49.2584 H         1 UNK         0.0600 
    181 H181       -5.5199  -13.3538  -49.8950 H         1 UNK         0.0600 
    182 H182       -6.1804  -14.9833  -49.9195 H         1 UNK         0.0600 
    183 H183       -4.9399  -14.5252  -51.0782 H         1 UNK         0.0600 
    184 H184       -3.0565  -13.2869  -49.9134 H         1 UNK         0.3000 
    185 H185       -0.4734  -13.3590  -50.1564 H         1 UNK         0.0600 
    186 H186       -1.9454  -11.5721  -49.2868 H         1 UNK         0.0600 
    187 H187       -1.3618  -11.8271  -47.6467 H         1 UNK         0.0600 
    188 H188       -0.2874  -11.1822  -48.8821 H         1 UNK         0.0600 
    189 H189        1.4199  -13.7243  -49.1031 H         1 UNK         0.3000 
    190 H190        0.2302  -22.5284  -44.8059 H         1 UNK         0.3000 
    191 H191       -2.5671  -22.0725  -44.9667 H         1 UNK         0.0600 
    192 H192       -0.9855  -20.8694  -43.4189 H         1 UNK         0.0600 
    193 H193       -2.4002  -21.5053  -42.5911 H         1 UNK         0.0600 
    194 H194       -0.8584  -22.3315  -42.4411 H         1 UNK         0.0600 
    195 H195       -0.7242  -24.7420  -43.4142 H         1 UNK         0.3000 
    196 H196       -2.9454  -26.2265  -42.4682 H         1 UNK         0.0600 
    197 H197       -1.2670  -28.0801  -42.2963 H         1 UNK         0.0600 
    198 H198       -0.6328  -26.5711  -41.6574 H         1 UNK         0.0600 
    199 H199       -0.1232  -27.1372  -43.2466 H         1 UNK         0.0600 
    200 H200       -1.2590  -26.2939  -45.6185 H         1 UNK         0.3000 
    201 H201       -2.7727  -28.5046  -46.7059 H         1 UNK         0.0600 
    202 H202       -1.6105  -27.8437  -48.8136 H         1 UNK         0.0600 
    203 H203       -0.4771  -27.9274  -47.4752 H         1 UNK         0.0600 
    204 H204       -1.0430  -26.3618  -48.0554 H         1 UNK         0.0600 
    205 H205       -3.5780  -25.2392  -46.1736 H         1 UNK         0.3000 
    206 H206       -5.1333  -23.8077  -46.7702 H         1 UNK         0.0600 
    207 H207       -6.7730  -25.6800  -46.4312 H         1 UNK         0.0600 
    208 H208       -7.3116  -24.5225  -47.6365 H         1 UNK         0.0600 
    209 H209       -6.6665  -26.0744  -48.1469 H         1 UNK         0.0600 
    210 H210       -2.8104  -24.2320  -48.3684 H         1 UNK         0.3000 
    211 H211       -3.5485  -23.5694  -51.1640 H         1 UNK         0.0600 
    212 H212       -0.8302  -24.0564  -49.8258 H         1 UNK         0.0600 
    213 H213       -1.1056  -23.8178  -51.5463 H         1 UNK         0.0600 
    214 H214       -1.7429  -25.2485  -50.7488 H         1 UNK         0.0600 
    215 H215       -2.7213  -22.0149  -48.1709 H         1 UNK         0.3000 
    216 H216       -1.6261  -19.5733  -49.3225 H         1 UNK         0.0600 
    217 H217       -1.6744  -18.7622  -46.9971 H         1 UNK         0.0600 
    218 H218       -0.9069  -20.3315  -47.0777 H         1 UNK         0.0600 
    219 H219       -2.5598  -20.1957  -46.4803 H         1 UNK         0.0600 
    220 H220       -3.4942  -19.4885  -50.9077 H         1 UNK         0.3000 
    221 H221       -5.6213  -17.6924  -49.9395 H         1 UNK         0.0600 
    222 H222       -6.1495  -20.3822  -51.3416 H         1 UNK         0.0600 
    223 H223       -6.5700  -20.0019  -49.6742 H         1 UNK         0.0600 
    224 H224       -7.3700  -19.1618  -50.9911 H         1 UNK         0.0600 
    225 H225       -6.7290  -16.6450  -51.6719 H         1 UNK         0.3000 
    226 H226       -5.0871  -15.7778  -53.8176 H         1 UNK         0.0600 
    227 H227       -7.1366  -14.5067  -54.4801 H         1 UNK         0.0600 
    228 H228       -8.0960  -15.4322  -53.3320 H         1 UNK         0.0600 
    229 H229       -6.8236  -14.3529  -52.7602 H         1 UNK         0.0600 
    230 H230       -7.3612  -18.4295  -53.6003 H         1 UNK         0.3000 
    231 H231       -7.8738  -18.8698  -56.3682 H         1 UNK         0.0600 
    232 H232       -7.8144  -20.8250  -54.0039 H         1 UNK         0.0600 
    233 H233       -8.5293  -21.1520  -55.5782 H         1 UNK         0.0600 
    234 H234       -9.2154  -19.9031  -54.5519 H         1 UNK         0.0600 
    235 H235       -5.0648  -19.5859  -54.3580 H         1 UNK         0.3000 
    236 H236       -3.8106  -21.2869  -56.4530 H         1 UNK         0.0600 
    237 H237       -3.6930  -22.0978  -54.1076 H         1 UNK         0.0600 
    238 H238       -2.0916  -21.6814  -54.7035 H         1 UNK         0.0600 
    239 H239       -2.9322  -20.5892  -53.6123 H         1 UNK         0.0600 
    240 H240       -3.2794  -18.2519  -54.5696 H         1 UNK         0.3000 
    241 H241       -0.9094  -17.5690  -56.0738 H         1 UNK         0.0600 
    242 H242       -3.8684  -15.7261  -58.1105 H         1 UNK         0.3800 
    243 H243       -4.3189  -16.8053  -56.8213 H         1 UNK         0.3800 
    244 H244       -1.2839  -15.2900  -54.7362 H         1 UNK         0.0800 
    245 H245       -2.4622  -16.2069  -53.8459 H         1 UNK         0.0800 
    246 H246       -1.8151  -17.3773  -51.7677 H         1 UNK         0.0800 
    247 H247       -1.5479  -18.8104  -52.7347 H         1 UNK         0.0800 
@<TRIPOS>BOND
     1    1    2 1    
     2    1  127 1    
     3    1  128 1    
     4    1  129 1    
     5    2    3 2    
     6    2    4 am   BACKBONE|DICT|INTERRES
     7    4    5 1    
     8    4  130 1    
     9    5    6 1    
    10    5   65 1    
    11    5  131 1    
    12    6    7 1    
    13    6  132 1    
    14    6  133 1    
    15    7    8 1    
    16    8    9 1    
    17    8  134 1    
    18    8  135 1    
    19    9   10 ar   
    20    9   14 ar   
    21   10   11 ar   
    22   10  136 1    
    23   11   12 ar   
    24   11  126 1    
    25   12   13 ar   
    26   12  137 1    
    27   13   14 ar   
    28   13   15 1    
    29   14  138 1    
    30   15   16 1    
    31   15  139 1    
    32   15  140 1    
    33   16   17 1    
    34   17   18 1    
    35   17  141 1    
    36   17  142 1    
    37   18   19 1    
    38   18   67 1    
    39   18  143 1    
    40   19   20 am   BACKBONE|DICT|INTERRES
    41   19  144 1    
    42   20   21 2    
    43   20   22 1    
    44   22   23 1    
    45   22   24 1    
    46   22  145 1    
    47   23  146 1    
    48   23  147 1    
    49   23  148 1    
    50   24   25 am   BACKBONE|DICT|INTERRES
    51   24  149 1    
    52   25   26 2    
    53   25   27 1    
    54   27   28 1    
    55   27   29 1    
    56   27  150 1    
    57   28  151 1    
    58   28  152 1    
    59   28  153 1    
    60   29   30 am   BACKBONE|DICT|INTERRES
    61   29  154 1    
    62   30   31 2    
    63   30   32 1    
    64   32   33 1    
    65   32   34 1    
    66   32  155 1    
    67   33  156 1    
    68   33  157 1    
    69   33  158 1    
    70   34   35 am   BACKBONE|DICT|INTERRES
    71   34  159 1    
    72   35   36 2    
    73   35   37 1    
    74   37   38 1    
    75   37   39 1    
    76   37  160 1    
    77   38  161 1    
    78   38  162 1    
    79   38  163 1    
    80   39   40 am   BACKBONE|DICT|INTERRES
    81   39  164 1    
    82   40   41 2    
    83   40   42 1    
    84   42   43 1    
    85   42   44 1    
    86   42  165 1    
    87   43  166 1    
    88   43  167 1    
    89   43  168 1    
    90   44   45 am   BACKBONE|DICT|INTERRES
    91   44  169 1    
    92   45   46 2    
    93   45   47 1    
    94   47   48 1    
    95   47   49 1    
    96   47  170 1    
    97   48  171 1    
    98   48  172 1    
    99   48  173 1    
   100   49   50 am   BACKBONE|DICT|INTERRES
   101   49  174 1    
   102   50   51 2    
   103   50   52 1    
   104   52   53 1    
   105   52   54 1    
   106   52  175 1    
   107   53  176 1    
   108   53  177 1    
   109   53  178 1    
   110   54   55 am   BACKBONE|DICT|INTERRES
   111   54  179 1    
   112   55   56 2    
   113   55   57 1    
   114   57   58 1    
   115   57   59 1    
   116   57  180 1    
   117   58  181 1    
   118   58  182 1    
   119   58  183 1    
   120   59   60 am   BACKBONE|DICT|INTERRES
   121   59  184 1    
   122   60   61 2    
   123   60   62 1    
   124   62   63 1    
   125   62   64 1    
   126   62  185 1    
   127   63  186 1    
   128   63  187 1    
   129   63  188 1    
   130   64   65 am   BACKBONE|DICT|INTERRES
   131   64  189 1    
   132   65   66 2    
   133   67   68 2    
   134   67   69 am   BACKBONE|DICT|INTERRES
   135   69   70 1    
   136   69  190 1    
   137   70   71 1    
   138   70   72 1    
   139   70  191 1    
   140   71  192 1    
   141   71  193 1    
   142   71  194 1    
   143   72   73 2    
   144   72   74 am   BACKBONE|DICT|INTERRES
   145   74   75 1    
   146   74  195 1    
   147   75   76 1    
   148   75   77 1    
   149   75  196 1    
   150   76  197 1    
   151   76  198 1    
   152   76  199 1    
   153   77   78 2    
   154   77   79 am   BACKBONE|DICT|INTERRES
   155   79   80 1    
   156   79  200 1    
   157   80   81 1    
   158   80   82 1    
   159   80  201 1    
   160   81  202 1    
   161   81  203 1    
   162   81  204 1    
   163   82   83 2    
   164   82   84 am   BACKBONE|DICT|INTERRES
   165   84   85 1    
   166   84  205 1    
   167   85   86 1    
   168   85   87 1    
   169   85  206 1    
   170   86  207 1    
   171   86  208 1    
   172   86  209 1    
   173   87   88 2    
   174   87   89 am   BACKBONE|DICT|INTERRES
   175   89   90 1    
   176   89  210 1    
   177   90   91 1    
   178   90   92 1    
   179   90  211 1    
   180   91  212 1    
   181   91  213 1    
   182   91  214 1    
   183   92   93 2    
   184   92   94 am   BACKBONE|DICT|INTERRES
   185   94   95 1    
   186   94  215 1    
   187   95   96 1    
   188   95   97 1    
   189   95  216 1    
   190   96  217 1    
   191   96  218 1    
   192   96  219 1    
   193   97   98 2    
   194   97   99 am   BACKBONE|DICT|INTERRES
   195   99  100 1    
   196   99  220 1    
   197  100  101 1    
   198  100  102 1    
   199  100  221 1    
   200  101  222 1    
   201  101  223 1    
   202  101  224 1    
   203  102  103 2    
   204  102  104 am   BACKBONE|DICT|INTERRES
   205  104  105 1    
   206  104  225 1    
   207  105  106 1    
   208  105  107 1    
   209  105  226 1    
   210  106  227 1    
   211  106  228 1    
   212  106  229 1    
   213  107  108 2    
   214  107  109 am   BACKBONE|DICT|INTERRES
   215  109  110 1    
   216  109  230 1    
   217  110  111 1    
   218  110  112 1    
   219  110  231 1    
   220  111  232 1    
   221  111  233 1    
   222  111  234 1    
   223  112  113 2    
   224  112  114 am   BACKBONE|DICT|INTERRES
   225  114  115 1    
   226  114  235 1    
   227  115  116 1    
   228  115  117 1    
   229  115  236 1    
   230  116  237 1    
   231  116  238 1    
   232  116  239 1    
   233  117  118 2    
   234  117  119 am   BACKBONE|DICT|INTERRES
   235  119  120 1    
   236  119  240 1    
   237  120  121 1    
   238  120  124 1    
   239  120  241 1    
   240  121  122 am   BACKBONE|DICT|INTERRES
   241  121  123 2    
   242  122  242 1    
   243  122  243 1    
   244  124  125 1    
   245  124  244 1    
   246  124  245 1    
   247  125  126 1    
   248  126  246 1    
   249  126  247 1    
@<TRIPOS>SUBSTRUCTURE
     1 UNK         1 GROUP             0       ****    0 ROOT    
