@<TRIPOS>MOLECULE
3R540
247   249    1
SMALL
USER_CHARGES


@<TRIPOS>ATOM
      1 CA          0.6521  -12.1594  -44.2734 C.3       0 UNK        -0.1800 
      2 C           0.8373  -11.7626  -45.7305 C.2       0 UNK         0.5000 
      3 O           1.2637  -10.6427  -46.0125 O.2       0 UNK        -0.5000 
      4 N           0.5140  -12.6743  -46.6556 N.am      1 UNK        -0.5000 
      5 CA          0.6354  -12.4765  -48.1064 C.3       1 UNK         0.1400 
      6 C6         -0.2225  -13.4943  -48.8950 C.3       23 UNK        -0.0398 
      7 S7         -2.0142  -13.2579  -48.6352 S.3       23 UNK        -0.2404 
      8 C8         -2.6919  -13.8714  -50.2140 C.3       23 UNK        -0.0205 
      9 C9         -2.7263  -15.3925  -50.2581 C.ar      23 UNK        -0.0193 
     10 C10        -3.9209  -16.0799  -50.0196 C.ar      23 UNK        -0.1150 
     11 C11        -3.9584  -17.4781  -50.0357 C.ar      23 UNK        -0.0193 
     12 C12        -2.7725  -18.1848  -50.2687 C.ar      23 UNK        -0.1150 
     13 C13        -1.5703  -17.5110  -50.5018 C.ar      23 UNK        -0.0193 
     14 C14        -1.5609  -16.1158  -50.5245 C.ar      23 UNK        -0.1150 
     15 C15        -0.2810  -18.2895  -50.7213 C.3       23 UNK        -0.0205 
     16 S16         0.9823  -17.9784  -49.4423 S.3       23 UNK        -0.2404 
     17 C17         0.1154  -18.3918  -47.8911 C.3       23 UNK        -0.0398 
     18 CA          0.0565  -19.9177  -47.5982 C.3       11 UNK         0.1400 
     19 N           0.3890  -20.2257  -46.2035 N.am      11 UNK        -0.5000 
     20 C           0.5569  -21.4605  -45.7071 C.2       10 UNK         0.5000 
     21 O           0.4934  -22.4869  -46.3839 O.2       10 UNK        -0.5000 
     22 CA          0.7740  -21.5666  -44.1854 C.3       10 UNK         0.1400 
     23 CB          2.2699  -21.5256  -43.8403 C.3       10 UNK        -0.1800 
     24 N           0.0684  -20.5359  -43.4173 N.am      10 UNK        -0.5000 
     25 C          -1.2639  -20.3816  -43.3810 C.2       9 UNK         0.5000 
     26 O          -2.0374  -21.0539  -44.0642 O.2       9 UNK        -0.5000 
     27 CA         -1.8174  -19.2746  -42.4592 C.3       9 UNK         0.1400 
     28 CB         -3.2439  -19.5774  -41.9573 C.3       9 UNK        -0.1800 
     29 N          -0.9303  -18.9359  -41.3415 N.am      9 UNK        -0.5000 
     30 C          -0.5455  -19.7261  -40.3268 C.2       8 UNK         0.5000 
     31 O          -0.8735  -20.9057  -40.1991 O.2       8 UNK        -0.5000 
     32 CA          0.3585  -19.0702  -39.2698 C.3       8 UNK         0.1400 
     33 CB          1.8147  -19.0051  -39.7601 C.3       8 UNK        -0.1800 
     34 N          -0.1079  -17.7236  -38.9386 N.am      8 UNK        -0.5000 
     35 C          -1.1115  -17.4585  -38.0896 C.2       7 UNK         0.5000 
     36 O          -1.6979  -18.3197  -37.4330 O.2       7 UNK        -0.5000 
     37 CA         -1.5349  -15.9831  -37.9485 C.3       7 UNK         0.1400 
     38 CB         -0.7490  -15.3048  -36.8159 C.3       7 UNK        -0.1800 
     39 N          -1.3471  -15.2195  -39.1828 N.am      7 UNK        -0.5000 
     40 C          -2.1087  -15.3418  -40.2796 C.2       6 UNK         0.5000 
     41 O          -3.1051  -16.0612  -40.3452 O.2       6 UNK        -0.5000 
     42 CA         -1.6620  -14.5471  -41.5235 C.3       6 UNK         0.1400 
     43 CB         -2.3867  -13.1946  -41.5929 C.3       6 UNK        -0.1800 
     44 N          -0.2139  -14.3197  -41.5804 N.am      6 UNK        -0.5000 
     45 C           0.6975  -15.2899  -41.7209 C.2       5 UNK         0.5000 
     46 O           0.4128  -16.4882  -41.7882 O.2       5 UNK        -0.5000 
     47 CA          2.1719  -14.8539  -41.7066 C.3       5 UNK         0.1400 
     48 CB          2.6891  -14.8000  -40.2606 C.3       5 UNK        -0.1800 
     49 N           3.0147  -15.7700  -42.4715 N.am      5 UNK        -0.5000 
     50 C           2.9934  -15.8955  -43.8030 C.2       4 UNK         0.5000 
     51 O           2.3009  -15.2042  -44.5548 O.2       4 UNK        -0.5000 
     52 CA          3.9272  -16.9632  -44.3994 C.3       4 UNK         0.1400 
     53 CB          3.1612  -17.8982  -45.3485 C.3       4 UNK        -0.1800 
     54 N           5.0081  -16.3203  -45.1371 N.am      4 UNK        -0.5000 
     55 C           6.0217  -15.6382  -44.5856 C.2       3 UNK         0.5000 
     56 O           6.2623  -15.6255  -43.3778 O.2       3 UNK        -0.5000 
     57 CA          6.8974  -14.8093  -45.5484 C.3       3 UNK         0.1400 
     58 CB          8.1487  -15.6007  -45.9584 C.3       3 UNK        -0.1800 
     59 N           6.1756  -14.3915  -46.7554 N.am      3 UNK        -0.5000 
     60 C           5.1475  -13.5309  -46.7696 C.2       2 UNK         0.5000 
     61 O           4.7656  -12.9154  -45.7718 O.2       2 UNK        -0.5000 
     62 CA          4.4026  -13.3449  -48.1031 C.3       2 UNK         0.1400 
     63 CB          4.5957  -14.5095  -49.1007 C.3       2 UNK        -0.1800 
     64 N           2.9829  -13.1704  -47.8141 N.am      2 UNK        -0.5000 
     65 C           2.1007  -12.5352  -48.5933 C.2       1 UNK         0.5000 
     66 O           2.3973  -12.0143  -49.6698 O.2       1 UNK        -0.5000 
     67 C          -1.3201  -20.4975  -47.9811 C.2       11 UNK         0.5000 
     68 O          -1.4498  -21.1279  -49.0308 O.2       11 UNK        -0.5000 
     69 N          -2.3105  -20.2887  -47.1013 N.am      12 UNK        -0.5000 
     70 CA         -3.6864  -20.7538  -47.2610 C.3       12 UNK         0.1400 
     71 CB         -4.6004  -19.9875  -46.2933 C.3       12 UNK        -0.1800 
     72 C          -3.8220  -22.2699  -47.0548 C.2       12 UNK         0.5000 
     73 O          -4.6148  -22.8998  -47.7527 O.2       12 UNK        -0.5000 
     74 N          -3.0230  -22.8331  -46.1370 N.am      13 UNK        -0.5000 
     75 CA         -2.9234  -24.2728  -45.8881 C.3       13 UNK         0.1400 
     76 CB         -2.0720  -24.5210  -44.6344 C.3       13 UNK        -0.1800 
     77 C          -2.3557  -25.0391  -47.0981 C.2       13 UNK         0.5000 
     78 O          -2.8658  -26.1079  -47.4354 O.2       13 UNK        -0.5000 
     79 N          -1.3407  -24.4578  -47.7536 N.am      14 UNK        -0.5000 
     80 CA         -0.7909  -24.9391  -49.0233 C.3       14 UNK         0.1400 
     81 CB          0.6083  -24.3338  -49.2164 C.3       14 UNK        -0.1800 
     82 C          -1.6825  -24.5938  -50.2330 C.2       14 UNK         0.5000 
     83 O          -1.5051  -25.1785  -51.3019 O.2       14 UNK        -0.5000 
     84 N          -2.5832  -23.6164  -50.0616 N.am      15 UNK        -0.5000 
     85 CA         -3.4769  -23.0219  -51.0594 C.3       15 UNK         0.1400 
     86 CB         -4.5583  -24.0356  -51.4766 C.3       15 UNK        -0.1800 
     87 C          -2.7168  -22.4034  -52.2523 C.2       15 UNK         0.5000 
     88 O          -3.1801  -22.4829  -53.3923 O.2       15 UNK        -0.5000 
     89 N          -1.5334  -21.8396  -51.9613 N.am      16 UNK        -0.5000 
     90 CA         -0.5153  -21.3674  -52.9094 C.3       16 UNK         0.1400 
     91 CB         -1.0205  -20.1372  -53.6902 C.3       16 UNK        -0.1800 
     92 C          -0.0175  -22.4932  -53.8426 C.2       16 UNK         0.5000 
     93 O           0.0977  -22.2881  -55.0503 O.2       16 UNK        -0.5000 
     94 N           0.2178  -23.6824  -53.2672 N.am      17 UNK        -0.5000 
     95 CA          0.5065  -24.9499  -53.9529 C.3       17 UNK         0.1400 
     96 CB          1.8641  -24.8976  -54.6847 C.3       17 UNK        -0.1800 
     97 C          -0.6672  -25.3804  -54.8595 C.2       17 UNK         0.5000 
     98 O          -0.4632  -25.7725  -56.0093 O.2       17 UNK        -0.5000 
     99 N          -1.8837  -25.2484  -54.3113 N.am      18 UNK        -0.5000 
    100 CA        -3.1977  -25.4813  -54.9224 C.3       18 UNK         0.1400 
    101 CB        -3.3554  -26.9584  -55.3373 C.3       18 UNK        -0.1800 
    102 C         -3.5797  -24.5129  -56.0654 C.2       18 UNK         0.5000 
    103 O         -4.6304  -24.7069  -56.6788 O.2       18 UNK        -0.5000 
    104 N         -2.7620  -23.4853  -56.3354 N.am      19 UNK        -0.5000 
    105 CA        -2.9905  -22.5197  -57.4111 C.3       19 UNK         0.1400 
    106 CB        -1.6620  -21.8489  -57.7896 C.3       19 UNK        -0.1800 
    107 C         -4.0430  -21.4532  -57.0589 C.2       19 UNK         0.5000 
    108 O         -4.7471  -20.9911  -57.9580 O.2       19 UNK        -0.5000 
    109 N         -4.1286  -21.0687  -55.7778 N.am      20 UNK        -0.5000 
    110 CA        -5.0476  -20.0328  -55.2970 C.3       20 UNK         0.1400 
    111 CB        -4.3630  -19.2130  -54.1923 C.3       20 UNK        -0.1800 
    112 C         -6.3736  -20.6151  -54.7834 C.2       20 UNK         0.5000 
    113 O         -7.3597  -19.8802  -54.7108 O.2       20 UNK        -0.5000 
    114 N         -6.3729  -21.9060  -54.4173 N.am      21 UNK        -0.5000 
    115 CA        -7.4640  -22.7029  -53.8355 C.3       21 UNK         0.1400 
    116 CB        -8.6895  -22.7629  -54.7669 C.3       21 UNK        -0.1800 
    117 C         -7.8601  -22.2759  -52.4061 C.2       21 UNK         0.5000 
    118 O         -7.9670  -23.1357  -51.5320 O.2       21 UNK        -0.5000 
    119 N         -8.0371  -20.9669  -52.1907 N.am      22 UNK        -0.5000 
    120 CA        -8.2626  -20.2979  -50.8961 C.3       22 UNK         0.1400 
    121 C         -9.6065  -20.6553  -50.1879 C.2       22 UNK         0.5000 
    122 N        -10.5905  -21.2144  -50.8815 N.am      22 UNK        -0.7600 
    123 O         -9.7797  -20.3911  -49.0010 O.2       22 UNK        -0.5000 
    124 C124       -7.0339  -20.4035  -49.9478 C.3       23 UNK        -0.0398 
    125 S125       -5.5109  -19.7322  -50.7020 S.3       23 UNK        -0.2404 
    126 C126       -5.2736  -18.1983  -49.7421 C.3       23 UNK        -0.0205 
    127 H127       -0.0425  -11.4784  -43.7817 H         1 UNK         0.0600 
    128 H128        0.2610  -13.1727  -44.1810 H         1 UNK         0.0600 
    129 H129        1.6080  -12.1132  -43.7523 H         1 UNK         0.0600 
    130 H130        0.1624  -13.5746  -46.3621 H         1 UNK         0.3000 
    131 H131        0.2697  -11.4749  -48.3436 H         1 UNK         0.0600 
    132 H132        0.0427  -14.5167  -48.6192 H         1 UNK         0.0800 
    133 H133       -0.0219  -13.4009  -49.9639 H         1 UNK         0.0800 
    134 H134       -2.1132  -13.4827  -51.0530 H         1 UNK         0.0800 
    135 H135       -3.7000  -13.4722  -50.3355 H         1 UNK         0.0800 
    136 H136       -4.8237  -15.5227  -49.8116 H         1 UNK         0.1150 
    137 H137       -2.7837  -19.2644  -50.2639 H         1 UNK         0.1150 
    138 H138       -0.6337  -15.5973  -50.7194 H         1 UNK         0.1150 
    139 H139       -0.4800  -19.3592  -50.7579 H         1 UNK         0.0800 
    140 H140        0.1334  -18.0213  -51.6939 H         1 UNK         0.0800 
    141 H141        0.6707  -17.8805  -47.1052 H         1 UNK         0.0800 
    142 H142       -0.8679  -17.9175  -47.8765 H         1 UNK         0.0800 
    143 H143        0.8034  -20.4278  -48.2107 H         1 UNK         0.0600 
    144 H144        0.4414  -19.4486  -45.5632 H         1 UNK         0.3000 
    145 H145        0.3836  -22.5346  -43.8668 H         1 UNK         0.0600 
    146 H146        2.4332  -21.6979  -42.7763 H         1 UNK         0.0600 
    147 H147        2.8158  -22.3003  -44.3806 H         1 UNK         0.0600 
    148 H148        2.7213  -20.5679  -44.0973 H         1 UNK         0.0600 
    149 H149        0.6296  -19.9432  -42.8242 H         1 UNK         0.3000 
    150 H150       -1.8733  -18.3759  -43.0749 H         1 UNK         0.0600 
    151 H151       -3.9425  -19.6683  -42.7895 H         1 UNK         0.0600 
    152 H152       -3.6117  -18.7783  -41.3134 H         1 UNK         0.0600 
    153 H153       -3.2858  -20.5095  -41.3933 H         1 UNK         0.0600 
    154 H154       -0.5393  -17.9965  -41.3796 H         1 UNK         0.3000 
    155 H155        0.3335  -19.6894  -38.3704 H         1 UNK         0.0600 
    156 H156        2.1920  -20.0024  -39.9901 H         1 UNK         0.0600 
    157 H157        2.4670  -18.5799  -38.9972 H         1 UNK         0.0600 
    158 H158        1.9179  -18.4010  -40.6616 H         1 UNK         0.0600 
    159 H159        0.2859  -16.9641  -39.4735 H         1 UNK         0.3000 
    160 H160       -2.5953  -15.9641  -37.6877 H         1 UNK         0.0600 
    161 H161        0.3210  -15.2788  -37.0262 H         1 UNK         0.0600 
    162 H162       -1.0864  -14.2799  -36.6605 H         1 UNK         0.0600 
    163 H163       -0.8854  -15.8369  -35.8734 H         1 UNK         0.0600 
    164 H164       -0.5626  -14.5857  -39.2119 H         1 UNK         0.3000 
    165 H165       -1.9446  -15.1310  -42.4022 H         1 UNK         0.0600 
    166 H166       -3.4690  -13.3301  -41.5744 H         1 UNK         0.0600 
    167 H167       -2.1220  -12.5517  -40.7526 H         1 UNK         0.0600 
    168 H168       -2.1436  -12.6634  -42.5133 H         1 UNK         0.0600 
    169 H169        0.0928  -13.3608  -41.5028 H         1 UNK         0.3000 
    170 H170        2.2534  -13.8594  -42.1489 H         1 UNK         0.0600 
    171 H171        2.1078  -14.0998  -39.6593 H         1 UNK         0.0600 
    172 H172        3.7271  -14.4681  -40.2264 H         1 UNK         0.0600 
    173 H173        2.6339  -15.7752  -39.7745 H         1 UNK         0.0600 
    174 H174        3.6233  -16.3703  -41.9351 H         1 UNK         0.3000 
    175 H175        4.3523  -17.5658  -43.5938 H         1 UNK         0.0600 
    176 H176        2.8129  -17.3698  -46.2366 H         1 UNK         0.0600 
    177 H177        3.7878  -18.7270  -45.6780 H         1 UNK         0.0600 
    178 H178        2.2875  -18.3220  -44.8535 H         1 UNK         0.0600 
    179 H179        4.8849  -16.2518  -46.1355 H         1 UNK         0.3000 
    180 H180        7.2177  -13.9122  -45.0144 H         1 UNK         0.0600 
    181 H181        8.7223  -15.9050  -45.0819 H         1 UNK         0.0600 
    182 H182        7.8909  -16.5045  -46.5119 H         1 UNK         0.0600 
    183 H183        8.8087  -14.9994  -46.5840 H         1 UNK         0.0600 
    184 H184        6.4391  -14.8457  -47.6180 H         1 UNK         0.3000 
    185 H185        4.7900  -12.4279  -48.5514 H         1 UNK         0.0600 
    186 H186        5.6391  -14.6124  -49.4002 H         1 UNK         0.0600 
    187 H187        4.2689  -15.4606  -48.6781 H         1 UNK         0.0600 
    188 H188        4.0252  -14.3446  -50.0148 H         1 UNK         0.0600 
    189 H189        2.6827  -13.5014  -46.9056 H         1 UNK         0.3000 
    190 H190       -2.0978  -19.8239  -46.2313 H         1 UNK         0.3000 
    191 H191       -4.0010  -20.5303  -48.2811 H         1 UNK         0.0600 
    192 H192       -5.6459  -20.2521  -46.4565 H         1 UNK         0.0600 
    193 H193       -4.5111  -18.9101  -46.4313 H         1 UNK         0.0600 
    194 H194       -4.3646  -20.2111  -45.2526 H         1 UNK         0.0600 
    195 H195       -2.4630  -22.2253  -45.5460 H         1 UNK         0.3000 
    196 H196       -3.9308  -24.6477  -45.6955 H         1 UNK         0.0600 
    197 H197       -2.0556  -25.5814  -44.3798 H         1 UNK         0.0600 
    198 H198       -2.4693  -23.9841  -43.7726 H         1 UNK         0.0600 
    199 H199       -1.0397  -24.2047  -44.7808 H         1 UNK         0.0600 
    200 H200       -0.9270  -23.6135  -47.3711 H         1 UNK         0.3000 
    201 H201       -0.6941  -26.0258  -48.9801 H         1 UNK         0.0600 
    202 H202        1.2694  -24.6016  -48.3919 H         1 UNK         0.0600 
    203 H203        0.5711  -23.2448  -49.2721 H         1 UNK         0.0600 
    204 H204        1.0716  -24.6969  -50.1346 H         1 UNK         0.0600 
    205 H205       -2.6080  -23.1738  -49.1535 H         1 UNK         0.3000 
    206 H206       -3.9774  -22.1916  -50.5629 H         1 UNK         0.0600 
    207 H207       -5.1863  -24.3015  -50.6260 H         1 UNK         0.0600 
    208 H208       -5.2125  -23.6226  -52.2410 H         1 UNK         0.0600 
    209 H209       -4.1286  -24.9552  -51.8705 H         1 UNK         0.0600 
    210 H210       -1.2886  -21.7792  -50.9776 H         1 UNK         0.3000 
    211 H211        0.3430  -21.0570  -52.3126 H         1 UNK         0.0600 
    212 H212       -1.7425  -20.4175  -54.4555 H         1 UNK         0.0600 
    213 H213       -0.1960  -19.6334  -54.1952 H         1 UNK         0.0600 
    214 H214       -1.4985  -19.4104  -53.0352 H         1 UNK         0.0600 
    215 H215        0.0286  -23.7705  -52.2787 H         1 UNK         0.3000 
    216 H216        0.5844  -25.7100  -53.1741 H         1 UNK         0.0600 
    217 H217        2.6630  -24.5885  -54.0108 H         1 UNK         0.0600 
    218 H218        1.8492  -24.2061  -55.5274 H         1 UNK         0.0600 
    219 H219        2.1314  -25.8797  -55.0761 H         1 UNK         0.0600 
    220 H220       -1.9120  -24.9407  -53.3451 H         1 UNK         0.3000 
    221 H221       -3.9256  -25.2904  -54.1351 H         1 UNK         0.0600 
    222 H222       -2.7106  -27.2153  -56.1779 H         1 UNK         0.0600 
    223 H223       -3.1146  -27.6277  -54.5113 H         1 UNK         0.0600 
    224 H224       -4.3813  -27.1743  -55.6378 H         1 UNK         0.0600 
    225 H225       -1.9253  -23.3647  -55.7803 H         1 UNK         0.3000 
    226 H226       -3.3479  -23.0626  -58.2889 H         1 UNK         0.0600 
    227 H227       -0.8913  -22.5880  -58.0098 H         1 UNK         0.0600 
    228 H228       -1.7811  -21.2266  -58.6772 H         1 UNK         0.0600 
    229 H229       -1.2936  -21.2055  -56.9903 H         1 UNK         0.0600 
    230 H230       -3.5554  -21.5322  -55.0783 H         1 UNK         0.3000 
    231 H231       -5.2915  -19.3451  -56.1095 H         1 UNK         0.0600 
    232 H232       -4.0415  -19.8418  -53.3624 H         1 UNK         0.0600 
    233 H233       -3.4896  -18.6874  -54.5774 H         1 UNK         0.0600 
    234 H234       -5.0374  -18.4584  -53.7852 H         1 UNK         0.0600 
    235 H235       -5.4872  -22.3870  -54.4910 H         1 UNK         0.3000 
    236 H236       -7.0730  -23.7188  -53.7616 H         1 UNK         0.0600 
    237 H237       -8.4106  -23.1129  -55.7609 H         1 UNK         0.0600 
    238 H238       -9.4375  -23.4543  -54.3771 H         1 UNK         0.0600 
    239 H239       -9.1729  -21.7920  -54.8765 H         1 UNK         0.0600 
    240 H240       -7.9249  -20.3535  -52.9934 H         1 UNK         0.3000 
    241 H241       -8.3741  -19.2420  -51.1443 H         1 UNK         0.0600 
    242 H242      -11.4611  -21.4332  -50.4230 H         1 UNK         0.3800 
    243 H243      -10.4676  -21.4307  -51.8577 H         1 UNK         0.3800 
    244 H244       -6.8513  -21.4435  -49.6728 H         1 UNK         0.0800 
    245 H245       -7.2218  -19.8773  -49.0109 H         1 UNK         0.0800 
    246 H246       -5.3070  -18.4260  -48.6775 H         1 UNK         0.0800 
    247 H247       -6.1175  -17.5374  -49.9457 H         1 UNK         0.0800 
@<TRIPOS>BOND
     1    1    2 1    
     2    1  127 1    
     3    1  128 1    
     4    1  129 1    
     5    2    3 2    
     6    2    4 am   BACKBONE|DICT|INTERRES
     7    4    5 1    
     8    4  130 1    
     9    5    6 1    
    10    5   65 1    
    11    5  131 1    
    12    6    7 1    
    13    6  132 1    
    14    6  133 1    
    15    7    8 1    
    16    8    9 1    
    17    8  134 1    
    18    8  135 1    
    19    9   10 ar   
    20    9   14 ar   
    21   10   11 ar   
    22   10  136 1    
    23   11   12 ar   
    24   11  126 1    
    25   12   13 ar   
    26   12  137 1    
    27   13   14 ar   
    28   13   15 1    
    29   14  138 1    
    30   15   16 1    
    31   15  139 1    
    32   15  140 1    
    33   16   17 1    
    34   17   18 1    
    35   17  141 1    
    36   17  142 1    
    37   18   19 1    
    38   18   67 1    
    39   18  143 1    
    40   19   20 am   BACKBONE|DICT|INTERRES
    41   19  144 1    
    42   20   21 2    
    43   20   22 1    
    44   22   23 1    
    45   22   24 1    
    46   22  145 1    
    47   23  146 1    
    48   23  147 1    
    49   23  148 1    
    50   24   25 am   BACKBONE|DICT|INTERRES
    51   24  149 1    
    52   25   26 2    
    53   25   27 1    
    54   27   28 1    
    55   27   29 1    
    56   27  150 1    
    57   28  151 1    
    58   28  152 1    
    59   28  153 1    
    60   29   30 am   BACKBONE|DICT|INTERRES
    61   29  154 1    
    62   30   31 2    
    63   30   32 1    
    64   32   33 1    
    65   32   34 1    
    66   32  155 1    
    67   33  156 1    
    68   33  157 1    
    69   33  158 1    
    70   34   35 am   BACKBONE|DICT|INTERRES
    71   34  159 1    
    72   35   36 2    
    73   35   37 1    
    74   37   38 1    
    75   37   39 1    
    76   37  160 1    
    77   38  161 1    
    78   38  162 1    
    79   38  163 1    
    80   39   40 am   BACKBONE|DICT|INTERRES
    81   39  164 1    
    82   40   41 2    
    83   40   42 1    
    84   42   43 1    
    85   42   44 1    
    86   42  165 1    
    87   43  166 1    
    88   43  167 1    
    89   43  168 1    
    90   44   45 am   BACKBONE|DICT|INTERRES
    91   44  169 1    
    92   45   46 2    
    93   45   47 1    
    94   47   48 1    
    95   47   49 1    
    96   47  170 1    
    97   48  171 1    
    98   48  172 1    
    99   48  173 1    
   100   49   50 am   BACKBONE|DICT|INTERRES
   101   49  174 1    
   102   50   51 2    
   103   50   52 1    
   104   52   53 1    
   105   52   54 1    
   106   52  175 1    
   107   53  176 1    
   108   53  177 1    
   109   53  178 1    
   110   54   55 am   BACKBONE|DICT|INTERRES
   111   54  179 1    
   112   55   56 2    
   113   55   57 1    
   114   57   58 1    
   115   57   59 1    
   116   57  180 1    
   117   58  181 1    
   118   58  182 1    
   119   58  183 1    
   120   59   60 am   BACKBONE|DICT|INTERRES
   121   59  184 1    
   122   60   61 2    
   123   60   62 1    
   124   62   63 1    
   125   62   64 1    
   126   62  185 1    
   127   63  186 1    
   128   63  187 1    
   129   63  188 1    
   130   64   65 am   BACKBONE|DICT|INTERRES
   131   64  189 1    
   132   65   66 2    
   133   67   68 2    
   134   67   69 am   BACKBONE|DICT|INTERRES
   135   69   70 1    
   136   69  190 1    
   137   70   71 1    
   138   70   72 1    
   139   70  191 1    
   140   71  192 1    
   141   71  193 1    
   142   71  194 1    
   143   72   73 2    
   144   72   74 am   BACKBONE|DICT|INTERRES
   145   74   75 1    
   146   74  195 1    
   147   75   76 1    
   148   75   77 1    
   149   75  196 1    
   150   76  197 1    
   151   76  198 1    
   152   76  199 1    
   153   77   78 2    
   154   77   79 am   BACKBONE|DICT|INTERRES
   155   79   80 1    
   156   79  200 1    
   157   80   81 1    
   158   80   82 1    
   159   80  201 1    
   160   81  202 1    
   161   81  203 1    
   162   81  204 1    
   163   82   83 2    
   164   82   84 am   BACKBONE|DICT|INTERRES
   165   84   85 1    
   166   84  205 1    
   167   85   86 1    
   168   85   87 1    
   169   85  206 1    
   170   86  207 1    
   171   86  208 1    
   172   86  209 1    
   173   87   88 2    
   174   87   89 am   BACKBONE|DICT|INTERRES
   175   89   90 1    
   176   89  210 1    
   177   90   91 1    
   178   90   92 1    
   179   90  211 1    
   180   91  212 1    
   181   91  213 1    
   182   91  214 1    
   183   92   93 2    
   184   92   94 am   BACKBONE|DICT|INTERRES
   185   94   95 1    
   186   94  215 1    
   187   95   96 1    
   188   95   97 1    
   189   95  216 1    
   190   96  217 1    
   191   96  218 1    
   192   96  219 1    
   193   97   98 2    
   194   97   99 am   BACKBONE|DICT|INTERRES
   195   99  100 1    
   196   99  220 1    
   197  100  101 1    
   198  100  102 1    
   199  100  221 1    
   200  101  222 1    
   201  101  223 1    
   202  101  224 1    
   203  102  103 2    
   204  102  104 am   BACKBONE|DICT|INTERRES
   205  104  105 1    
   206  104  225 1    
   207  105  106 1    
   208  105  107 1    
   209  105  226 1    
   210  106  227 1    
   211  106  228 1    
   212  106  229 1    
   213  107  108 2    
   214  107  109 am   BACKBONE|DICT|INTERRES
   215  109  110 1    
   216  109  230 1    
   217  110  111 1    
   218  110  112 1    
   219  110  231 1    
   220  111  232 1    
   221  111  233 1    
   222  111  234 1    
   223  112  113 2    
   224  112  114 am   BACKBONE|DICT|INTERRES
   225  114  115 1    
   226  114  235 1    
   227  115  116 1    
   228  115  117 1    
   229  115  236 1    
   230  116  237 1    
   231  116  238 1    
   232  116  239 1    
   233  117  118 2    
   234  117  119 am   BACKBONE|DICT|INTERRES
   235  119  120 1    
   236  119  240 1    
   237  120  121 1    
   238  120  124 1    
   239  120  241 1    
   240  121  122 am   BACKBONE|DICT|INTERRES
   241  121  123 2    
   242  122  242 1    
   243  122  243 1    
   244  124  125 1    
   245  124  244 1    
   246  124  245 1    
   247  125  126 1    
   248  126  246 1    
   249  126  247 1    
@<TRIPOS>SUBSTRUCTURE
     1 UNK         1 GROUP             0       ****    0 ROOT    
