@<TRIPOS>MOLECULE
3R540
247   249    1
SMALL
USER_CHARGES


@<TRIPOS>ATOM
      1 CA          2.9466   -9.1435  -50.1545 C.3       0 UNK        -0.1800 
      2 C           2.4269  -10.0350  -49.0363 C.2       0 UNK         0.5000 
      3 O           1.5966   -9.5999  -48.2380 O.2       0 UNK        -0.5000 
      4 N           2.8948  -11.2900  -48.9818 N.am      1 UNK        -0.5000 
      5 CA          2.5211  -12.2814  -47.9623 C.3       1 UNK         0.1400 
      6 C6          3.5522  -13.4371  -47.8897 C.3       23 UNK        -0.0398 
      7 S7          3.4058  -14.6986  -49.2080 S.3       23 UNK        -0.2404 
      8 C8          2.7695  -16.0926  -48.2263 C.3       23 UNK        -0.0205 
      9 C9          1.7875  -16.9550  -48.9972 C.ar      23 UNK        -0.0193 
     10 C10         0.5101  -16.4643  -49.2745 C.ar      23 UNK        -0.1150 
     11 C11        -0.4476  -17.2714  -49.8919 C.ar      23 UNK        -0.0193 
     12 C12        -0.1098  -18.5784  -50.2498 C.ar      23 UNK        -0.1150 
     13 C13         1.1659  -19.0813  -49.9795 C.ar      23 UNK        -0.0193 
     14 C14         2.1155  -18.2628  -49.3615 C.ar      23 UNK        -0.1150 
     15 C15         1.5051  -20.5223  -50.3195 C.3       23 UNK        -0.0205 
     16 S16         1.4393  -21.5818  -48.8414 S.3       23 UNK        -0.2404 
     17 C17        -0.3249  -21.4583  -48.3886 C.3       23 UNK        -0.0398 
     18 CA         -0.7504  -22.5711  -47.4070 C.3       11 UNK         0.1400 
     19 N          -0.0066  -22.5328  -46.1416 N.am      11 UNK        -0.5000 
     20 C          -0.0528  -23.4857  -45.1983 C.2       10 UNK         0.5000 
     21 O          -0.7627  -24.4898  -45.2760 O.2       10 UNK        -0.5000 
     22 CA          0.8030  -23.2547  -43.9435 C.3       10 UNK         0.1400 
     23 CB          2.2854  -23.5457  -44.2257 C.3       10 UNK        -0.1800 
     24 N           0.6514  -21.8823  -43.4639 N.am      10 UNK        -0.5000 
     25 C          -0.3269  -21.4758  -42.6423 C.2       9 UNK         0.5000 
     26 O          -1.1459  -22.2377  -42.1278 O.2       9 UNK        -0.5000 
     27 CA         -0.4240  -19.9634  -42.3538 C.3       9 UNK         0.1400 
     28 CB          0.3581  -19.6062  -41.0813 C.3       9 UNK        -0.1800 
     29 N           0.0527  -19.1239  -43.4533 N.am      9 UNK        -0.5000 
     30 C          -0.5056  -19.0676  -44.6719 C.2       8 UNK         0.5000 
     31 O          -1.5096  -19.6994  -44.9896 O.2       8 UNK        -0.5000 
     32 CA          0.2118  -18.2052  -45.7277 C.3       8 UNK         0.1400 
     33 CB         -0.3507  -16.7809  -45.6865 C.3       8 UNK        -0.1800 
     34 N           1.6678  -18.1705  -45.5572 N.am      8 UNK        -0.5000 
     35 C           2.4570  -19.2571  -45.5238 C.2       7 UNK         0.5000 
     36 O           2.0319  -20.4035  -45.6735 O.2       7 UNK        -0.5000 
     37 CA          3.9535  -19.0618  -45.2110 C.3       7 UNK         0.1400 
     38 CB          4.8145  -19.3642  -46.4471 C.3       7 UNK        -0.1800 
     39 N           4.3083  -17.7411  -44.6847 N.am      7 UNK        -0.5000 
     40 C           3.9042  -17.2299  -43.5127 C.2       6 UNK         0.5000 
     41 O           3.1357  -17.8128  -42.7446 O.2       6 UNK        -0.5000 
     42 CA          4.4293  -15.8262  -43.1349 C.3       6 UNK         0.1400 
     43 CB          5.4546  -15.2438  -44.1361 C.3       6 UNK        -0.1800 
     44 N           3.3445  -14.8634  -42.9154 N.am      6 UNK        -0.5000 
     45 C           2.3798  -14.5357  -43.7856 C.2       5 UNK         0.5000 
     46 O           2.2570  -15.0517  -44.8982 O.2       5 UNK        -0.5000 
     47 CA          1.4209  -13.4187  -43.3450 C.3       5 UNK         0.1400 
     48 CB          2.0748  -12.0410  -43.5390 C.3       5 UNK        -0.1800 
     49 N           0.2022  -13.4665  -44.1466 N.am      5 UNK        -0.5000 
     50 C          -1.0424  -13.5496  -43.6635 C.2       4 UNK         0.5000 
     51 O          -1.3187  -13.5394  -42.4623 O.2       4 UNK        -0.5000 
     52 CA         -2.1541  -13.6539  -44.7208 C.3       4 UNK         0.1400 
     53 CB         -3.5734  -13.8184  -44.1371 C.3       4 UNK        -0.1800 
     54 N          -2.0664  -12.5578  -45.6846 N.am      4 UNK        -0.5000 
     55 C          -2.4130  -11.2698  -45.5403 C.2       3 UNK         0.5000 
     56 O          -2.9119  -10.8046  -44.5151 O.2       3 UNK        -0.5000 
     57 CA         -2.1548  -10.3268  -46.7438 C.3       3 UNK         0.1400 
     58 CB         -1.3330   -9.1000  -46.3142 C.3       3 UNK        -0.1800 
     59 N          -1.4602  -10.9732  -47.8606 N.am      3 UNK        -0.5000 
     60 C          -1.9798  -11.8926  -48.6864 C.2       2 UNK         0.5000 
     61 O          -3.1806  -12.1559  -48.7332 O.2       2 UNK        -0.5000 
     62 CA         -0.9936  -12.7021  -49.5566 C.3       2 UNK         0.1400 
     63 CB         -1.2140  -12.4151  -51.0492 C.3       2 UNK        -0.1800 
     64 N           0.4222  -12.4861  -49.2389 N.am      2 UNK        -0.5000 
     65 C           1.0503  -12.7585  -48.0827 C.2       1 UNK         0.5000 
     66 O           0.5009  -13.3032  -47.1234 O.2       1 UNK        -0.5000 
     67 C          -2.2806  -22.5778  -47.2098 C.2       11 UNK         0.5000 
     68 O          -2.9788  -23.1436  -48.0466 O.2       11 UNK        -0.5000 
     69 N          -2.7756  -22.0291  -46.0912 N.am      12 UNK        -0.5000 
     70 CA         -4.1745  -22.0786  -45.6587 C.3       12 UNK         0.1400 
     71 CB         -4.3213  -21.3254  -44.3282 C.3       12 UNK        -0.1800 
     72 C          -4.7567  -23.5008  -45.5342 C.2       12 UNK         0.5000 
     73 O          -5.9497  -23.6817  -45.7795 O.2       12 UNK        -0.5000 
     74 N          -3.9176  -24.4806  -45.1679 N.am      13 UNK        -0.5000 
     75 CA         -4.3078  -25.8868  -45.0587 C.3       13 UNK         0.1400 
     76 CB         -3.3521  -26.6018  -44.0913 C.3       13 UNK        -0.1800 
     77 C          -4.3265  -26.5987  -46.4243 C.2       13 UNK         0.5000 
     78 O          -5.1573  -27.4826  -46.6366 O.2       13 UNK        -0.5000 
     79 N          -3.4048  -26.2136  -47.3157 N.am      14 UNK        -0.5000 
     80 CA         -3.2415  -26.7925  -48.6497 C.3       14 UNK         0.1400 
     81 CB         -1.7862  -26.5886  -49.0908 C.3       14 UNK        -0.1800 
     82 C          -4.2032  -26.1835  -49.6851 C.2       14 UNK         0.5000 
     83 O          -4.6646  -26.8928  -50.5802 O.2       14 UNK        -0.5000 
     84 N          -4.4710  -24.8782  -49.5536 N.am      15 UNK        -0.5000 
     85 CA         -5.2683  -24.0372  -50.4415 C.3       15 UNK         0.1400 
     86 CB         -6.7657  -24.4014  -50.3342 C.3       15 UNK        -0.1800 
     87 C          -4.7012  -24.0450  -51.8754 C.2       15 UNK         0.5000 
     88 O          -3.5268  -23.7162  -52.0641 O.2       15 UNK        -0.5000 
     89 N          -5.5234  -24.4413  -52.8550 N.am      16 UNK        -0.5000 
     90 CA         -5.1843  -24.5252  -54.2774 C.3       16 UNK         0.1400 
     91 CB         -6.4460  -24.9091  -55.0649 C.3       16 UNK        -0.1800 
     92 C          -4.0282  -25.4914  -54.6066 C.2       16 UNK         0.5000 
     93 O          -3.3965  -25.3303  -55.6512 O.2       16 UNK        -0.5000 
     94 N          -3.7525  -26.4587  -53.7173 N.am      17 UNK        -0.5000 
     95 CA         -2.6141  -27.3729  -53.8304 C.3       17 UNK         0.1400 
     96 CB         -2.8008  -28.5540  -52.8664 C.3       17 UNK        -0.1800 
     97 C          -1.2596  -26.6776  -53.5865 C.2       17 UNK         0.5000 
     98 O          -0.2479  -27.1446  -54.1114 O.2       17 UNK        -0.5000 
     99 N          -1.2609  -25.5774  -52.8190 N.am      18 UNK        -0.5000 
    100 CA        -0.1037  -24.7034  -52.6436 C.3       18 UNK         0.1400 
    101 CB        -0.0719  -24.1395  -51.2148 C.3       18 UNK        -0.1800 
    102 C         -0.1331  -23.5806  -53.6898 C.2       18 UNK         0.5000 
    103 O          0.8014  -23.4700  -54.4839 O.2       18 UNK        -0.5000 
    104 N         -1.2163  -22.7932  -53.6861 N.am      19 UNK        -0.5000 
    105 CA        -1.4738  -21.6928  -54.6152 C.3       19 UNK         0.1400 
    106 CB        -0.4248  -20.5664  -54.4787 C.3       19 UNK        -0.1800 
    107 C         -2.8810  -21.1431  -54.3614 C.2       19 UNK         0.5000 
    108 O         -3.7156  -21.1341  -55.2662 O.2       19 UNK        -0.5000 
    109 N         -3.1141  -20.7185  -53.1174 N.am      20 UNK        -0.5000 
    110 CA        -4.3628  -20.1897  -52.5903 C.3       20 UNK         0.1400 
    111 CB        -4.5841  -18.7468  -53.0802 C.3       20 UNK        -0.1800 
    112 C         -4.2656  -20.2391  -51.0610 C.2       20 UNK         0.5000 
    113 O         -3.1559  -20.2828  -50.5238 O.2       20 UNK        -0.5000 
    114 N         -5.4202  -20.2343  -50.3855 N.am      21 UNK        -0.5000 
    115 CA        -5.4850  -20.2606  -48.9234 C.3       21 UNK         0.1400 
    116 CB        -6.8611  -20.7814  -48.4800 C.3       21 UNK        -0.1800 
    117 C         -5.1928  -18.8887  -48.2879 C.2       21 UNK         0.5000 
    118 O         -4.5940  -18.8464  -47.2148 O.2       21 UNK        -0.5000 
    119 N         -5.6497  -17.8205  -48.9603 N.am      22 UNK        -0.5000 
    120 CA        -5.5580  -16.3710  -48.6682 C.3       22 UNK         0.1400 
    121 C         -5.8705  -15.8435  -47.2309 C.2       22 UNK         0.5000 
    122 N         -5.8743  -16.6616  -46.1912 N.am      22 UNK        -0.7600 
    123 O         -6.1639  -14.6625  -47.0673 O.2       22 UNK        -0.5000 
    124 C124       -4.3006  -15.6984  -49.2831 C.3       23 UNK        -0.0398 
    125 S125       -2.7068  -16.2907  -48.6211 S.3       23 UNK        -0.2404 
    126 C126       -1.8438  -16.7332  -50.1621 C.3       23 UNK        -0.0205 
    127 H127        3.4385   -8.2658  -49.7355 H         1 UNK         0.0600 
    128 H128        3.6634   -9.6651  -50.7891 H         1 UNK         0.0600 
    129 H129        2.1200   -8.8064  -50.7799 H         1 UNK         0.0600 
    130 H130        3.5633  -11.6033  -49.6722 H         1 UNK         0.3000 
    131 H131        2.5778  -11.7632  -47.0029 H         1 UNK         0.0600 
    132 H132        4.5639  -13.0308  -47.9263 H         1 UNK         0.0800 
    133 H133        3.4884  -13.9151  -46.9125 H         1 UNK         0.0800 
    134 H134        3.6091  -16.6792  -47.8559 H         1 UNK         0.0800 
    135 H135        2.2456  -15.7213  -47.3477 H         1 UNK         0.0800 
    136 H136        0.2513  -15.4608  -48.9744 H         1 UNK         0.1150 
    137 H137       -0.8455  -19.2131  -50.7211 H         1 UNK         0.1150 
    138 H138        3.0945  -18.6593  -49.1337 H         1 UNK         0.1150 
    139 H139        0.8268  -20.9103  -51.0809 H         1 UNK         0.0800 
    140 H140        2.5073  -20.5708  -50.7476 H         1 UNK         0.0800 
    141 H141       -0.5179  -20.4746  -47.9609 H         1 UNK         0.0800 
    142 H142       -0.9151  -21.5164  -49.3056 H         1 UNK         0.0800 
    143 H143       -0.5062  -23.5255  -47.8784 H         1 UNK         0.0600 
    144 H144        0.6314  -21.7517  -46.0190 H         1 UNK         0.3000 
    145 H145        0.4679  -23.9512  -43.1719 H         1 UNK         0.0600 
    146 H146        2.8910  -23.4044  -43.3305 H         1 UNK         0.0600 
    147 H147        2.4223  -24.5775  -44.5516 H         1 UNK         0.0600 
    148 H148        2.6884  -22.9011  -45.0073 H         1 UNK         0.0600 
    149 H149        1.2437  -21.1869  -43.9011 H         1 UNK         0.3000 
    150 H150       -1.4774  -19.7283  -42.1875 H         1 UNK         0.0600 
    151 H151        0.0147  -20.1975  -40.2314 H         1 UNK         0.0600 
    152 H152        0.2282  -18.5558  -40.8200 H         1 UNK         0.0600 
    153 H153        1.4264  -19.7913  -41.2017 H         1 UNK         0.0600 
    154 H154        0.8969  -18.5919  -43.2847 H         1 UNK         0.3000 
    155 H155        0.0046  -18.6253  -46.7127 H         1 UNK         0.0600 
    156 H156       -1.4263  -16.7912  -45.8662 H         1 UNK         0.0600 
    157 H157       -0.1819  -16.3167  -44.7152 H         1 UNK         0.0600 
    158 H158        0.0976  -16.1441  -46.4474 H         1 UNK         0.0600 
    159 H159        2.0801  -17.2602  -45.3926 H         1 UNK         0.3000 
    160 H160        4.2054  -19.7960  -44.4430 H         1 UNK         0.0600 
    161 H161        4.5776  -20.3463  -46.8594 H         1 UNK         0.0600 
    162 H162        4.6606  -18.6331  -47.2391 H         1 UNK         0.0600 
    163 H163        5.8754  -19.3677  -46.1963 H         1 UNK         0.0600 
    164 H164        4.9224  -17.1817  -45.2579 H         1 UNK         0.3000 
    165 H165        4.9368  -15.9442  -42.1765 H         1 UNK         0.0600 
    166 H166        5.0244  -15.0894  -45.1264 H         1 UNK         0.0600 
    167 H167        5.8285  -14.2802  -43.7899 H         1 UNK         0.0600 
    168 H168        6.3205  -15.8984  -44.2432 H         1 UNK         0.0600 
    169 H169        3.3488  -14.4102  -42.0126 H         1 UNK         0.3000 
    170 H170        1.1957  -13.5633  -42.2865 H         1 UNK         0.0600 
    171 H171        2.9858  -11.9487  -42.9465 H         1 UNK         0.0600 
    172 H172        2.3411  -11.8664  -44.5817 H         1 UNK         0.0600 
    173 H173        1.4029  -11.2407  -43.2282 H         1 UNK         0.0600 
    174 H174        0.3510  -13.5368  -45.1504 H         1 UNK         0.3000 
    175 H175       -1.9493  -14.5552  -45.2962 H         1 UNK         0.0600 
    176 H176       -4.3200  -13.8768  -44.9293 H         1 UNK         0.0600 
    177 H177       -3.6450  -14.7380  -43.5555 H         1 UNK         0.0600 
    178 H178       -3.8465  -12.9964  -43.4756 H         1 UNK         0.0600 
    179 H179       -1.5842  -12.7988  -46.5405 H         1 UNK         0.3000 
    180 H180       -3.1280   -9.9816  -47.0978 H         1 UNK         0.0600 
    181 H181       -1.1767   -8.4171  -47.1497 H         1 UNK         0.0600 
    182 H182       -1.8408   -8.5385  -45.5292 H         1 UNK         0.0600 
    183 H183       -0.3532   -9.3894  -45.9317 H         1 UNK         0.0600 
    184 H184       -0.4653  -10.7986  -47.9169 H         1 UNK         0.3000 
    185 H185       -1.2159  -13.7539  -49.3772 H         1 UNK         0.0600 
    186 H186       -0.5853  -13.0537  -51.6702 H         1 UNK         0.0600 
    187 H187       -2.2490  -12.6051  -51.3367 H         1 UNK         0.0600 
    188 H188       -0.9890  -11.3767  -51.2957 H         1 UNK         0.0600 
    189 H189        0.9678  -12.0307  -49.9557 H         1 UNK         0.3000 
    190 H190       -2.1502  -21.4816  -45.5077 H         1 UNK         0.3000 
    191 H191       -4.7701  -21.5541  -46.4029 H         1 UNK         0.0600 
    192 H192       -5.3457  -21.3764  -43.9571 H         1 UNK         0.0600 
    193 H193       -4.0764  -20.2698  -44.4468 H         1 UNK         0.0600 
    194 H194       -3.6690  -21.7387  -43.5579 H         1 UNK         0.0600 
    195 H195       -2.9411  -24.2627  -45.0078 H         1 UNK         0.3000 
    196 H196       -5.3140  -25.9449  -44.6377 H         1 UNK         0.0600 
    197 H197       -3.6437  -27.6439  -43.9547 H         1 UNK         0.0600 
    198 H198       -3.3600  -26.1304  -43.1084 H         1 UNK         0.0600 
    199 H199       -2.3251  -26.5946  -44.4581 H         1 UNK         0.0600 
    200 H200       -2.7794  -25.4618  -47.0641 H         1 UNK         0.3000 
    201 H201       -3.4363  -27.8661  -48.6041 H         1 UNK         0.0600 
    202 H202       -1.0966  -27.1155  -48.4311 H         1 UNK         0.0600 
    203 H203       -1.5200  -25.5323  -49.0766 H         1 UNK         0.0600 
    204 H204       -1.6187  -26.9604  -50.1021 H         1 UNK         0.0600 
    205 H205       -3.9615  -24.3591  -48.8396 H         1 UNK         0.3000 
    206 H206       -5.1466  -23.0195  -50.0740 H         1 UNK         0.0600 
    207 H207       -7.1028  -24.3410  -49.2992 H         1 UNK         0.0600 
    208 H208       -7.3832  -23.7111  -50.9102 H         1 UNK         0.0600 
    209 H209       -6.9725  -25.4131  -50.6849 H         1 UNK         0.0600 
    210 H210       -6.4595  -24.7243  -52.6038 H         1 UNK         0.3000 
    211 H211       -4.8728  -23.5301  -54.5987 H         1 UNK         0.0600 
    212 H212       -6.8245  -25.8872  -54.7651 H         1 UNK         0.0600 
    213 H213       -6.2418  -24.9501  -56.1357 H         1 UNK         0.0600 
    214 H214       -7.2421  -24.1793  -54.9164 H         1 UNK         0.0600 
    215 H215       -4.3104  -26.5277  -52.8753 H         1 UNK         0.3000 
    216 H216       -2.6008  -27.7708  -54.8474 H         1 UNK         0.0600 
    217 H217       -2.0140  -29.2963  -53.0061 H         1 UNK         0.0600 
    218 H218       -3.7542  -29.0555  -53.0333 H         1 UNK         0.0600 
    219 H219       -2.7654  -28.2367  -51.8251 H         1 UNK         0.0600 
    220 H220       -2.1457  -25.2262  -52.4721 H         1 UNK         0.3000 
    221 H221        0.8203  -25.2672  -52.7891 H         1 UNK         0.0600 
    222 H222       -1.0185  -23.6825  -50.9243 H         1 UNK         0.0600 
    223 H223        0.1644  -24.9233  -50.4971 H         1 UNK         0.0600 
    224 H224        0.7058  -23.3826  -51.1184 H         1 UNK         0.0600 
    225 H225       -1.9716  -23.0028  -53.0375 H         1 UNK         0.3000 
    226 H226       -1.4443  -22.0860  -55.6334 H         1 UNK         0.0600 
    227 H227        0.5562  -20.8832  -54.8311 H         1 UNK         0.0600 
    228 H228       -0.7067  -19.6964  -55.0732 H         1 UNK         0.0600 
    229 H229       -0.3156  -20.2358  -53.4452 H         1 UNK         0.0600 
    230 H230       -2.3898  -20.7947  -52.4133 H         1 UNK         0.3000 
    231 H231       -5.1872  -20.8284  -52.9141 H         1 UNK         0.0600 
    232 H232       -5.5003  -18.3257  -52.6648 H         1 UNK         0.0600 
    233 H233       -4.6746  -18.7050  -54.1656 H         1 UNK         0.0600 
    234 H234       -3.7602  -18.0942  -52.7892 H         1 UNK         0.0600 
    235 H235       -6.2966  -20.1987  -50.8862 H         1 UNK         0.3000 
    236 H236       -4.7275  -20.9590  -48.5638 H         1 UNK         0.0600 
    237 H237       -7.6701  -20.1463  -48.8428 H         1 UNK         0.0600 
    238 H238       -7.0382  -21.7923  -48.8454 H         1 UNK         0.0600 
    239 H239       -6.9352  -20.8155  -47.3923 H         1 UNK         0.0600 
    240 H240       -6.1481  -18.0266  -49.8125 H         1 UNK         0.3000 
    241 H241       -6.3955  -15.9735  -49.2432 H         1 UNK         0.0600 
    242 H242       -6.0941  -16.3175  -45.2712 H         1 UNK         0.3800 
    243 H243       -5.5095  -17.6026  -46.3235 H         1 UNK         0.3800 
    244 H244       -4.3407  -14.6164  -49.1476 H         1 UNK         0.0800 
    245 H245       -4.3155  -15.8490  -50.3630 H         1 UNK         0.0800 
    246 H246       -2.4402  -17.4713  -50.7003 H         1 UNK         0.0800 
    247 H247       -1.7701  -15.8556  -50.8057 H         1 UNK         0.0800 
@<TRIPOS>BOND
     1    1    2 1    
     2    1  127 1    
     3    1  128 1    
     4    1  129 1    
     5    2    3 2    
     6    2    4 am   BACKBONE|DICT|INTERRES
     7    4    5 1    
     8    4  130 1    
     9    5    6 1    
    10    5   65 1    
    11    5  131 1    
    12    6    7 1    
    13    6  132 1    
    14    6  133 1    
    15    7    8 1    
    16    8    9 1    
    17    8  134 1    
    18    8  135 1    
    19    9   10 ar   
    20    9   14 ar   
    21   10   11 ar   
    22   10  136 1    
    23   11   12 ar   
    24   11  126 1    
    25   12   13 ar   
    26   12  137 1    
    27   13   14 ar   
    28   13   15 1    
    29   14  138 1    
    30   15   16 1    
    31   15  139 1    
    32   15  140 1    
    33   16   17 1    
    34   17   18 1    
    35   17  141 1    
    36   17  142 1    
    37   18   19 1    
    38   18   67 1    
    39   18  143 1    
    40   19   20 am   BACKBONE|DICT|INTERRES
    41   19  144 1    
    42   20   21 2    
    43   20   22 1    
    44   22   23 1    
    45   22   24 1    
    46   22  145 1    
    47   23  146 1    
    48   23  147 1    
    49   23  148 1    
    50   24   25 am   BACKBONE|DICT|INTERRES
    51   24  149 1    
    52   25   26 2    
    53   25   27 1    
    54   27   28 1    
    55   27   29 1    
    56   27  150 1    
    57   28  151 1    
    58   28  152 1    
    59   28  153 1    
    60   29   30 am   BACKBONE|DICT|INTERRES
    61   29  154 1    
    62   30   31 2    
    63   30   32 1    
    64   32   33 1    
    65   32   34 1    
    66   32  155 1    
    67   33  156 1    
    68   33  157 1    
    69   33  158 1    
    70   34   35 am   BACKBONE|DICT|INTERRES
    71   34  159 1    
    72   35   36 2    
    73   35   37 1    
    74   37   38 1    
    75   37   39 1    
    76   37  160 1    
    77   38  161 1    
    78   38  162 1    
    79   38  163 1    
    80   39   40 am   BACKBONE|DICT|INTERRES
    81   39  164 1    
    82   40   41 2    
    83   40   42 1    
    84   42   43 1    
    85   42   44 1    
    86   42  165 1    
    87   43  166 1    
    88   43  167 1    
    89   43  168 1    
    90   44   45 am   BACKBONE|DICT|INTERRES
    91   44  169 1    
    92   45   46 2    
    93   45   47 1    
    94   47   48 1    
    95   47   49 1    
    96   47  170 1    
    97   48  171 1    
    98   48  172 1    
    99   48  173 1    
   100   49   50 am   BACKBONE|DICT|INTERRES
   101   49  174 1    
   102   50   51 2    
   103   50   52 1    
   104   52   53 1    
   105   52   54 1    
   106   52  175 1    
   107   53  176 1    
   108   53  177 1    
   109   53  178 1    
   110   54   55 am   BACKBONE|DICT|INTERRES
   111   54  179 1    
   112   55   56 2    
   113   55   57 1    
   114   57   58 1    
   115   57   59 1    
   116   57  180 1    
   117   58  181 1    
   118   58  182 1    
   119   58  183 1    
   120   59   60 am   BACKBONE|DICT|INTERRES
   121   59  184 1    
   122   60   61 2    
   123   60   62 1    
   124   62   63 1    
   125   62   64 1    
   126   62  185 1    
   127   63  186 1    
   128   63  187 1    
   129   63  188 1    
   130   64   65 am   BACKBONE|DICT|INTERRES
   131   64  189 1    
   132   65   66 2    
   133   67   68 2    
   134   67   69 am   BACKBONE|DICT|INTERRES
   135   69   70 1    
   136   69  190 1    
   137   70   71 1    
   138   70   72 1    
   139   70  191 1    
   140   71  192 1    
   141   71  193 1    
   142   71  194 1    
   143   72   73 2    
   144   72   74 am   BACKBONE|DICT|INTERRES
   145   74   75 1    
   146   74  195 1    
   147   75   76 1    
   148   75   77 1    
   149   75  196 1    
   150   76  197 1    
   151   76  198 1    
   152   76  199 1    
   153   77   78 2    
   154   77   79 am   BACKBONE|DICT|INTERRES
   155   79   80 1    
   156   79  200 1    
   157   80   81 1    
   158   80   82 1    
   159   80  201 1    
   160   81  202 1    
   161   81  203 1    
   162   81  204 1    
   163   82   83 2    
   164   82   84 am   BACKBONE|DICT|INTERRES
   165   84   85 1    
   166   84  205 1    
   167   85   86 1    
   168   85   87 1    
   169   85  206 1    
   170   86  207 1    
   171   86  208 1    
   172   86  209 1    
   173   87   88 2    
   174   87   89 am   BACKBONE|DICT|INTERRES
   175   89   90 1    
   176   89  210 1    
   177   90   91 1    
   178   90   92 1    
   179   90  211 1    
   180   91  212 1    
   181   91  213 1    
   182   91  214 1    
   183   92   93 2    
   184   92   94 am   BACKBONE|DICT|INTERRES
   185   94   95 1    
   186   94  215 1    
   187   95   96 1    
   188   95   97 1    
   189   95  216 1    
   190   96  217 1    
   191   96  218 1    
   192   96  219 1    
   193   97   98 2    
   194   97   99 am   BACKBONE|DICT|INTERRES
   195   99  100 1    
   196   99  220 1    
   197  100  101 1    
   198  100  102 1    
   199  100  221 1    
   200  101  222 1    
   201  101  223 1    
   202  101  224 1    
   203  102  103 2    
   204  102  104 am   BACKBONE|DICT|INTERRES
   205  104  105 1    
   206  104  225 1    
   207  105  106 1    
   208  105  107 1    
   209  105  226 1    
   210  106  227 1    
   211  106  228 1    
   212  106  229 1    
   213  107  108 2    
   214  107  109 am   BACKBONE|DICT|INTERRES
   215  109  110 1    
   216  109  230 1    
   217  110  111 1    
   218  110  112 1    
   219  110  231 1    
   220  111  232 1    
   221  111  233 1    
   222  111  234 1    
   223  112  113 2    
   224  112  114 am   BACKBONE|DICT|INTERRES
   225  114  115 1    
   226  114  235 1    
   227  115  116 1    
   228  115  117 1    
   229  115  236 1    
   230  116  237 1    
   231  116  238 1    
   232  116  239 1    
   233  117  118 2    
   234  117  119 am   BACKBONE|DICT|INTERRES
   235  119  120 1    
   236  119  240 1    
   237  120  121 1    
   238  120  124 1    
   239  120  241 1    
   240  121  122 am   BACKBONE|DICT|INTERRES
   241  121  123 2    
   242  122  242 1    
   243  122  243 1    
   244  124  125 1    
   245  124  244 1    
   246  124  245 1    
   247  125  126 1    
   248  126  246 1    
   249  126  247 1    
@<TRIPOS>SUBSTRUCTURE
     1 UNK         1 GROUP             0       ****    0 ROOT    
