@<TRIPOS>MOLECULE
3R540
247   249    1
SMALL
USER_CHARGES


@<TRIPOS>ATOM
      1 CA          4.7374  -13.7327  -50.7903 C.3       0 UNK        -0.1800 
      2 C           4.4124  -13.7968  -49.3047 C.2       0 UNK         0.5000 
      3 O           5.3194  -13.7320  -48.4750 O.2       0 UNK        -0.5000 
      4 N           3.1223  -13.9199  -48.9673 N.am      1 UNK        -0.5000 
      5 CA          2.6209  -14.0323  -47.5893 C.3       1 UNK         0.1400 
      6 C6          1.2061  -14.6632  -47.5317 C.3       23 UNK        -0.0398 
      7 S7          1.1641  -16.3144  -48.3035 S.3       23 UNK        -0.2404 
      8 C8         -0.3300  -16.1888  -49.3354 C.3       23 UNK        -0.0205 
      9 C9         -0.3934  -17.3094  -50.3615 C.ar      23 UNK        -0.0193 
     10 C10        -0.3686  -17.0197  -51.7283 C.ar      23 UNK        -0.1150 
     11 C11        -0.4318  -18.0484  -52.6726 C.ar      23 UNK        -0.0193 
     12 C12        -0.4848  -19.3777  -52.2416 C.ar      23 UNK        -0.1150 
     13 C13        -0.4969  -19.6804  -50.8766 C.ar      23 UNK        -0.0193 
     14 C14        -0.4803  -18.6396  -49.9455 C.ar      23 UNK        -0.1150 
     15 C15        -0.5117  -21.1282  -50.4093 C.3       23 UNK        -0.0205 
     16 S16         1.1399  -21.6625  -49.8579 S.3       23 UNK        -0.2404 
     17 C17         1.0795  -21.2375  -48.0796 C.3       23 UNK        -0.0398 
     18 CA          1.1456  -22.4655  -47.1424 C.3       11 UNK         0.1400 
     19 N           1.2046  -22.0595  -45.7383 N.am      11 UNK        -0.5000 
     20 C           1.5250  -22.8747  -44.7246 C.2       10 UNK         0.5000 
     21 O           1.9253  -24.0291  -44.8742 O.2       10 UNK        -0.5000 
     22 CA          1.3242  -22.3205  -43.3021 C.3       10 UNK         0.1400 
     23 CB          2.5641  -21.5391  -42.8435 C.3       10 UNK        -0.1800 
     24 N           0.1311  -21.4770  -43.1829 N.am      10 UNK        -0.5000 
     25 C          -1.1240  -21.9140  -43.3638 C.2       9 UNK         0.5000 
     26 O          -1.4051  -23.0853  -43.6118 O.2       9 UNK        -0.5000 
     27 CA         -2.2541  -20.8721  -43.2944 C.3       9 UNK         0.1400 
     28 CB         -2.6409  -20.5891  -41.8357 C.3       9 UNK        -0.1800 
     29 N          -1.9183  -19.6195  -43.9705 N.am      9 UNK        -0.5000 
     30 C          -1.7034  -19.4906  -45.2875 C.2       8 UNK         0.5000 
     31 O          -1.8016  -20.4170  -46.0921 O.2       8 UNK        -0.5000 
     32 CA         -1.2398  -18.1070  -45.7807 C.3       8 UNK         0.1400 
     33 CB         -2.4190  -17.1342  -45.9219 C.3       8 UNK        -0.1800 
     34 N          -0.2143  -17.5247  -44.9160 N.am      8 UNK        -0.5000 
     35 C           1.0008  -18.0619  -44.7309 C.2       7 UNK         0.5000 
     36 O           1.3976  -19.0763  -45.3068 O.2       7 UNK        -0.5000 
     37 CA          1.8974  -17.3860  -43.6801 C.3       7 UNK         0.1400 
     38 CB          2.6312  -16.1741  -44.2716 C.3       7 UNK        -0.1800 
     39 N           1.1384  -16.9769  -42.4974 N.am      7 UNK        -0.5000 
     40 C           0.6194  -17.8345  -41.6068 C.2       6 UNK         0.5000 
     41 O           0.7543  -19.0550  -41.6764 O.2       6 UNK        -0.5000 
     42 CA         -0.2282  -17.2317  -40.4723 C.3       6 UNK         0.1400 
     43 CB          0.6705  -16.7228  -39.3355 C.3       6 UNK        -0.1800 
     44 N          -1.0949  -16.1456  -40.9300 N.am      6 UNK        -0.5000 
     45 C          -2.1032  -16.2915  -41.8017 C.2       5 UNK         0.5000 
     46 O          -2.4306  -17.3693  -42.2940 O.2       5 UNK        -0.5000 
     47 CA         -2.8397  -15.0110  -42.2322 C.3       5 UNK         0.1400 
     48 CB         -4.0229  -14.7276  -41.2953 C.3       5 UNK        -0.1800 
     49 N          -1.9660  -13.8368  -42.2816 N.am      5 UNK        -0.5000 
     50 C          -0.9265  -13.6998  -43.1142 C.2       4 UNK         0.5000 
     51 O          -0.5816  -14.5590  -43.9308 O.2       4 UNK        -0.5000 
     52 CA         -0.1229  -12.3969  -42.9885 C.3       4 UNK         0.1400 
     53 CB          1.3100  -12.6802  -42.5111 C.3       4 UNK        -0.1800 
     54 N          -0.0940  -11.7013  -44.2721 N.am      4 UNK        -0.5000 
     55 C          -1.1066  -10.9542  -44.7387 C.2       3 UNK         0.5000 
     56 O          -2.1350  -10.7466  -44.0917 O.2       3 UNK        -0.5000 
     57 CA         -0.9840  -10.3559  -46.1595 C.3       3 UNK         0.1400 
     58 CB         -1.5548   -8.9246  -46.2466 C.3       3 UNK        -0.1800 
     59 N           0.3633  -10.4212  -46.7360 N.am      3 UNK        -0.5000 
     60 C           1.4762   -9.7987  -46.3173 C.2       2 UNK         0.5000 
     61 O           1.5071   -8.9935  -45.3855 O.2       2 UNK        -0.5000 
     62 CA          2.7763  -10.1792  -47.0630 C.3       2 UNK         0.1400 
     63 CB          4.0436   -9.9121  -46.2245 C.3       2 UNK        -0.1800 
     64 N           2.7742  -11.5634  -47.5630 N.am      2 UNK        -0.5000 
     65 C           2.6281  -12.6848  -46.8364 C.2       1 UNK         0.5000 
     66 O           2.4569  -12.6837  -45.6185 O.2       1 UNK        -0.5000 
     67 C          -0.0110  -23.4628  -47.3771 C.2       11 UNK         0.5000 
     68 O           0.2146  -24.5206  -47.9640 O.2       11 UNK        -0.5000 
     69 N          -1.2154  -23.1384  -46.8817 N.am      12 UNK        -0.5000 
     70 CA         -2.4132  -23.9741  -47.0070 C.3       12 UNK         0.1400 
     71 CB         -3.6253  -23.2373  -46.4236 C.3       12 UNK        -0.1800 
     72 C          -2.2645  -25.3719  -46.3748 C.2       12 UNK         0.5000 
     73 O          -2.7477  -26.3543  -46.9403 O.2       12 UNK        -0.5000 
     74 N          -1.5406  -25.4435  -45.2492 N.am      13 UNK        -0.5000 
     75 CA         -1.1800  -26.6690  -44.5327 C.3       13 UNK         0.1400 
     76 CB         -0.4867  -26.2936  -43.2141 C.3       13 UNK        -0.1800 
     77 C          -0.3104  -27.6560  -45.3413 C.2       13 UNK         0.5000 
     78 O          -0.2592  -28.8329  -44.9834 O.2       13 UNK        -0.5000 
     79 N           0.3179  -27.1931  -46.4323 N.am      14 UNK        -0.5000 
     80 CA          1.0484  -28.0178  -47.3990 C.3       14 UNK         0.1400 
     81 CB          2.2160  -27.1995  -47.9786 C.3       14 UNK        -0.1800 
     82 C           0.1306  -28.5853  -48.5083 C.2       14 UNK         0.5000 
     83 O           0.6298  -28.9531  -49.5726 O.2       14 UNK        -0.5000 
     84 N          -1.1831  -28.6522  -48.2398 N.am      15 UNK        -0.5000 
     85 CA         -2.2694  -29.1082  -49.1111 C.3       15 UNK         0.1400 
     86 CB         -2.0771  -30.5780  -49.5430 C.3       15 UNK        -0.1800 
     87 C          -2.4929  -28.1401  -50.2868 C.2       15 UNK         0.5000 
     88 O          -2.3910  -28.5295  -51.4521 O.2       15 UNK        -0.5000 
     89 N          -2.7912  -26.8839  -49.9430 N.am      16 UNK        -0.5000 
     90 CA         -3.1041  -25.8014  -50.8713 C.3       16 UNK         0.1400 
     91 CB         -1.8394  -24.9497  -51.0906 C.3       16 UNK        -0.1800 
     92 C          -4.2606  -24.9594  -50.3081 C.2       16 UNK         0.5000 
     93 O          -4.6893  -25.1738  -49.1718 O.2       16 UNK        -0.5000 
     94 N          -4.7377  -23.9978  -51.1040 N.am      17 UNK        -0.5000 
     95 CA         -5.6417  -22.9432  -50.6476 C.3       17 UNK         0.1400 
     96 CB         -6.4189  -22.3985  -51.8549 C.3       17 UNK        -0.1800 
     97 C          -4.8318  -21.8188  -49.9782 C.2       17 UNK         0.5000 
     98 O          -3.6836  -21.5843  -50.3619 O.2       17 UNK        -0.5000 
     99 N          -5.4447  -21.1183  -49.0166 N.am      18 UNK        -0.5000 
    100 CA        -4.8767  -19.9418  -48.3543 C.3       18 UNK         0.1400 
    101 CB        -5.5888  -19.7334  -47.0051 C.3       18 UNK        -0.1800 
    102 C         -4.9769  -18.7110  -49.2778 C.2       18 UNK         0.5000 
    103 O         -5.8511  -17.8635  -49.0876 O.2       18 UNK        -0.5000 
    104 N         -4.1016  -18.6816  -50.2905 N.am      19 UNK        -0.5000 
    105 CA        -4.0863  -17.7666  -51.4341 C.3       19 UNK         0.1400 
    106 CB        -3.9228  -16.2966  -50.9866 C.3       19 UNK        -0.1800 
    107 C         -5.2903  -18.0037  -52.3719 C.2       19 UNK         0.5000 
    108 O         -5.8315  -19.1113  -52.4002 O.2       19 UNK        -0.5000 
    109 N         -5.6579  -16.9823  -53.1604 N.am      20 UNK        -0.5000 
    110 CA        -6.7639  -16.9064  -54.1307 C.3       20 UNK         0.1400 
    111 CB        -8.1251  -17.1416  -53.4486 C.3       20 UNK        -0.1800 
    112 C         -6.6086  -17.8021  -55.3784 C.2       20 UNK         0.5000 
    113 O         -6.9173  -17.3566  -56.4837 O.2       20 UNK        -0.5000 
    114 N         -6.1029  -19.0264  -55.1975 N.am      21 UNK        -0.5000 
    115 CA        -5.8313  -20.0201  -56.2408 C.3       21 UNK         0.1400 
    116 CB        -5.8527  -21.4143  -55.5916 C.3       21 UNK        -0.1800 
    117 C         -4.5016  -19.7811  -56.9924 C.2       21 UNK         0.5000 
    118 O         -4.0880  -20.6346  -57.7783 O.2       21 UNK        -0.5000 
    119 N         -3.8423  -18.6487  -56.7211 N.am      22 UNK        -0.5000 
    120 CA        -2.5108  -18.2628  -57.2176 C.3       22 UNK         0.1400 
    121 C         -2.4034  -18.0287  -58.7540 C.2       22 UNK         0.5000 
    122 N         -3.5014  -17.8764  -59.4841 N.am      22 UNK        -0.7600 
    123 O         -1.3004  -17.9832  -59.2919 O.2       22 UNK        -0.5000 
    124 C124       -1.9545  -17.0312  -56.4532 C.3       23 UNK        -0.0398 
    125 S125       -2.1251  -17.1607  -54.6402 S.3       23 UNK        -0.2404 
    126 C126       -0.4647  -17.7174  -54.1552 C.3       23 UNK        -0.0205 
    127 H127        3.8403  -13.8070  -51.4055 H         1 UNK         0.0600 
    128 H128        5.4049  -14.5499  -51.0636 H         1 UNK         0.0600 
    129 H129        5.2346  -12.7917  -51.0257 H         1 UNK         0.0600 
    130 H130        2.4258  -13.9955  -49.6947 H         1 UNK         0.3000 
    131 H131        3.2969  -14.6924  -47.0414 H         1 UNK         0.0600 
    132 H132        0.8662  -14.7738  -46.5007 H         1 UNK         0.0800 
    133 H133        0.4795  -14.0087  -48.0154 H         1 UNK         0.0800 
    134 H134       -1.2128  -16.2289  -48.6966 H         1 UNK         0.0800 
    135 H135       -0.3490  -15.2203  -49.8372 H         1 UNK         0.0800 
    136 H136       -0.3200  -15.9928  -52.0625 H         1 UNK         0.1150 
    137 H137       -0.5176  -20.1769  -52.9686 H         1 UNK         0.1150 
    138 H138       -0.5030  -18.8604  -48.8916 H         1 UNK         0.1150 
    139 H139       -1.2356  -21.2585  -49.6042 H         1 UNK         0.0800 
    140 H140       -0.8412  -21.7820  -51.2181 H         1 UNK         0.0800 
    141 H141        1.9202  -20.5735  -47.8730 H         1 UNK         0.0800 
    142 H142        0.1866  -20.6563  -47.8571 H         1 UNK         0.0800 
    143 H143        2.0752  -22.9943  -47.3648 H         1 UNK         0.0600 
    144 H144        0.9427  -21.1027  -45.5264 H         1 UNK         0.3000 
    145 H145        1.1950  -23.1734  -42.6326 H         1 UNK         0.0600 
    146 H146        2.4692  -21.2242  -41.8044 H         1 UNK         0.0600 
    147 H147        3.4622  -22.1539  -42.9152 H         1 UNK         0.0600 
    148 H148        2.7263  -20.6485  -43.4507 H         1 UNK         0.0600 
    149 H149        0.2832  -20.5101  -42.9125 H         1 UNK         0.3000 
    150 H150       -3.1264  -21.2939  -43.7968 H         1 UNK         0.0600 
    151 H151       -2.9074  -21.5101  -41.3158 H         1 UNK         0.0600 
    152 H152       -3.5022  -19.9233  -41.7792 H         1 UNK         0.0600 
    153 H153       -1.8227  -20.1247  -41.2847 H         1 UNK         0.0600 
    154 H154       -1.8731  -18.7905  -43.3832 H         1 UNK         0.3000 
    155 H155       -0.7943  -18.2391  -46.7664 H         1 UNK         0.0600 
    156 H156       -2.0826  -16.1533  -46.2585 H         1 UNK         0.0600 
    157 H157       -2.9489  -17.0000  -44.9789 H         1 UNK         0.0600 
    158 H158       -3.1376  -17.5006  -46.6554 H         1 UNK         0.0600 
    159 H159       -0.4530  -16.6726  -44.4223 H         1 UNK         0.3000 
    160 H160        2.6497  -18.1141  -43.3695 H         1 UNK         0.0600 
    161 H161        1.9400  -15.3781  -44.5440 H         1 UNK         0.0600 
    162 H162        3.1842  -16.4524  -45.1696 H         1 UNK         0.0600 
    163 H163        3.3484  -15.7625  -43.5615 H         1 UNK         0.0600 
    164 H164        0.9387  -15.9925  -42.4016 H         1 UNK         0.3000 
    165 H165       -0.8645  -18.0255  -40.0753 H         1 UNK         0.0600 
    166 H166        1.3118  -15.9034  -39.6626 H         1 UNK         0.0600 
    167 H167        0.0770  -16.3690  -38.4922 H         1 UNK         0.0600 
    168 H168        1.3178  -17.5186  -38.9645 H         1 UNK         0.0600 
    169 H169       -0.8981  -15.2222  -40.5740 H         1 UNK         0.3000 
    170 H170       -3.2322  -15.1784  -43.2373 H         1 UNK         0.0600 
    171 H171       -4.7023  -15.5803  -41.2564 H         1 UNK         0.0600 
    172 H172       -3.6915  -14.5251  -40.2760 H         1 UNK         0.0600 
    173 H173       -4.6008  -13.8691  -41.6381 H         1 UNK         0.0600 
    174 H174       -2.1928  -13.0803  -41.6520 H         1 UNK         0.3000 
    175 H175       -0.5943  -11.7487  -42.2463 H         1 UNK         0.0600 
    176 H176        1.8966  -11.7628  -42.4588 H         1 UNK         0.0600 
    177 H177        1.3074  -13.1233  -41.5147 H         1 UNK         0.0600 
    178 H178        1.8318  -13.3713  -43.1723 H         1 UNK         0.0600 
    179 H179        0.7177  -11.8736  -44.8550 H         1 UNK         0.3000 
    180 H180       -1.6048  -10.9892  -46.7948 H         1 UNK         0.0600 
    181 H181       -1.4671   -8.5252  -47.2570 H         1 UNK         0.0600 
    182 H182       -2.6134   -8.9082  -45.9851 H         1 UNK         0.0600 
    183 H183       -1.0432   -8.2408  -45.5690 H         1 UNK         0.0600 
    184 H184        0.4653  -11.0585  -47.5125 H         1 UNK         0.3000 
    185 H185        2.8200   -9.5342  -47.9417 H         1 UNK         0.0600 
    186 H186        4.9443  -10.1853  -46.7743 H         1 UNK         0.0600 
    187 H187        4.1294   -8.8554  -45.9684 H         1 UNK         0.0600 
    188 H188        4.0372  -10.4754  -45.2908 H         1 UNK         0.0600 
    189 H189        2.8999  -11.6701  -48.5599 H         1 UNK         0.3000 
    190 H190       -1.3397  -22.2353  -46.4317 H         1 UNK         0.3000 
    191 H191       -2.5825  -24.1101  -48.0737 H         1 UNK         0.0600 
    192 H192       -4.5432  -23.7997  -46.5991 H         1 UNK         0.0600 
    193 H193       -3.7485  -22.2610  -46.8884 H         1 UNK         0.0600 
    194 H194       -3.5297  -23.0896  -45.3485 H         1 UNK         0.0600 
    195 H195       -1.2437  -24.5709  -44.8202 H         1 UNK         0.3000 
    196 H196       -2.1094  -27.1880  -44.2907 H         1 UNK         0.0600 
    197 H197       -0.2333  -27.1831  -42.6359 H         1 UNK         0.0600 
    198 H198       -1.1327  -25.6759  -42.5901 H         1 UNK         0.0600 
    199 H199        0.4369  -25.7420  -43.3895 H         1 UNK         0.0600 
    200 H200        0.2062  -26.2170  -46.6850 H         1 UNK         0.3000 
    201 H201        1.4803  -28.8749  -46.8787 H         1 UNK         0.0600 
    202 H202        2.8117  -26.7420  -47.1884 H         1 UNK         0.0600 
    203 H203        1.8653  -26.4060  -48.6382 H         1 UNK         0.0600 
    204 H204        2.8845  -27.8336  -48.5620 H         1 UNK         0.0600 
    205 H205       -1.4880  -28.2526  -47.3624 H         1 UNK         0.3000 
    206 H206       -3.1767  -29.0689  -48.5061 H         1 UNK         0.0600 
    207 H207       -1.9383  -31.2275  -48.6788 H         1 UNK         0.0600 
    208 H208       -2.9530  -30.9388  -50.0831 H         1 UNK         0.0600 
    209 H209       -1.2174  -30.7062  -50.2008 H         1 UNK         0.0600 
    210 H210       -2.9125  -26.6554  -48.9596 H         1 UNK         0.3000 
    211 H211       -3.4348  -26.2104  -51.8282 H         1 UNK         0.0600 
    212 H212       -1.4979  -24.4865  -50.1648 H         1 UNK         0.0600 
    213 H213       -2.0169  -24.1494  -51.8096 H         1 UNK         0.0600 
    214 H214       -1.0202  -25.5554  -51.4783 H         1 UNK         0.0600 
    215 H215       -4.3081  -23.8508  -52.0054 H         1 UNK         0.3000 
    216 H216       -6.3547  -23.3514  -49.9279 H         1 UNK         0.0600 
    217 H217       -7.1264  -21.6266  -51.5494 H         1 UNK         0.0600 
    218 H218       -6.9879  -23.1857  -52.3497 H         1 UNK         0.0600 
    219 H219       -5.7503  -21.9519  -52.5911 H         1 UNK         0.0600 
    220 H220       -6.4007  -21.3419  -48.7815 H         1 UNK         0.3000 
    221 H221       -3.8188  -20.1192  -48.1461 H         1 UNK         0.0600 
    222 H222       -6.6620  -19.5859  -47.1315 H         1 UNK         0.0600 
    223 H223       -5.4448  -20.5889  -46.3453 H         1 UNK         0.0600 
    224 H224       -5.1958  -18.8582  -46.4870 H         1 UNK         0.0600 
    225 H225       -3.5150  -19.5023  -50.3976 H         1 UNK         0.3000 
    226 H226       -3.2015  -18.0408  -52.0059 H         1 UNK         0.0600 
    227 H227       -3.1561  -16.2022  -50.2194 H         1 UNK         0.0600 
    228 H228       -3.6170  -15.6633  -51.8198 H         1 UNK         0.0600 
    229 H229       -4.8481  -15.8876  -50.5797 H         1 UNK         0.0600 
    230 H230       -5.1140  -16.1342  -53.0849 H         1 UNK         0.3000 
    231 H231       -6.7592  -15.8769  -54.4921 H         1 UNK         0.0600 
    232 H232       -8.9445  -16.9676  -54.1472 H         1 UNK         0.0600 
    233 H233       -8.2664  -16.4640  -52.6067 H         1 UNK         0.0600 
    234 H234       -8.2267  -18.1621  -53.0785 H         1 UNK         0.0600 
    235 H235       -5.8986  -19.2998  -54.2390 H         1 UNK         0.3000 
    236 H236       -6.6326  -19.9772  -56.9811 H         1 UNK         0.0600 
    237 H237       -5.0348  -21.5345  -54.8803 H         1 UNK         0.0600 
    238 H238       -6.7889  -21.5901  -55.0613 H         1 UNK         0.0600 
    239 H239       -5.7544  -22.2006  -56.3410 H         1 UNK         0.0600 
    240 H240       -4.2562  -18.0165  -56.0531 H         1 UNK         0.3000 
    241 H241       -1.8506  -19.1043  -56.9997 H         1 UNK         0.0600 
    242 H242       -4.4114  -17.9161  -59.0529 H         1 UNK         0.3800 
    243 H243       -3.4223  -17.7285  -60.4781 H         1 UNK         0.3800 
    244 H244       -0.9056  -16.8647  -56.7048 H         1 UNK         0.0800 
    245 H245       -2.4841  -16.1284  -56.7627 H         1 UNK         0.0800 
    246 H246       -0.1841  -18.5894  -54.7481 H         1 UNK         0.0800 
    247 H247        0.2647  -16.9373  -54.3782 H         1 UNK         0.0800 
@<TRIPOS>BOND
     1    1    2 1    
     2    1  127 1    
     3    1  128 1    
     4    1  129 1    
     5    2    3 2    
     6    2    4 am   BACKBONE|DICT|INTERRES
     7    4    5 1    
     8    4  130 1    
     9    5    6 1    
    10    5   65 1    
    11    5  131 1    
    12    6    7 1    
    13    6  132 1    
    14    6  133 1    
    15    7    8 1    
    16    8    9 1    
    17    8  134 1    
    18    8  135 1    
    19    9   10 ar   
    20    9   14 ar   
    21   10   11 ar   
    22   10  136 1    
    23   11   12 ar   
    24   11  126 1    
    25   12   13 ar   
    26   12  137 1    
    27   13   14 ar   
    28   13   15 1    
    29   14  138 1    
    30   15   16 1    
    31   15  139 1    
    32   15  140 1    
    33   16   17 1    
    34   17   18 1    
    35   17  141 1    
    36   17  142 1    
    37   18   19 1    
    38   18   67 1    
    39   18  143 1    
    40   19   20 am   BACKBONE|DICT|INTERRES
    41   19  144 1    
    42   20   21 2    
    43   20   22 1    
    44   22   23 1    
    45   22   24 1    
    46   22  145 1    
    47   23  146 1    
    48   23  147 1    
    49   23  148 1    
    50   24   25 am   BACKBONE|DICT|INTERRES
    51   24  149 1    
    52   25   26 2    
    53   25   27 1    
    54   27   28 1    
    55   27   29 1    
    56   27  150 1    
    57   28  151 1    
    58   28  152 1    
    59   28  153 1    
    60   29   30 am   BACKBONE|DICT|INTERRES
    61   29  154 1    
    62   30   31 2    
    63   30   32 1    
    64   32   33 1    
    65   32   34 1    
    66   32  155 1    
    67   33  156 1    
    68   33  157 1    
    69   33  158 1    
    70   34   35 am   BACKBONE|DICT|INTERRES
    71   34  159 1    
    72   35   36 2    
    73   35   37 1    
    74   37   38 1    
    75   37   39 1    
    76   37  160 1    
    77   38  161 1    
    78   38  162 1    
    79   38  163 1    
    80   39   40 am   BACKBONE|DICT|INTERRES
    81   39  164 1    
    82   40   41 2    
    83   40   42 1    
    84   42   43 1    
    85   42   44 1    
    86   42  165 1    
    87   43  166 1    
    88   43  167 1    
    89   43  168 1    
    90   44   45 am   BACKBONE|DICT|INTERRES
    91   44  169 1    
    92   45   46 2    
    93   45   47 1    
    94   47   48 1    
    95   47   49 1    
    96   47  170 1    
    97   48  171 1    
    98   48  172 1    
    99   48  173 1    
   100   49   50 am   BACKBONE|DICT|INTERRES
   101   49  174 1    
   102   50   51 2    
   103   50   52 1    
   104   52   53 1    
   105   52   54 1    
   106   52  175 1    
   107   53  176 1    
   108   53  177 1    
   109   53  178 1    
   110   54   55 am   BACKBONE|DICT|INTERRES
   111   54  179 1    
   112   55   56 2    
   113   55   57 1    
   114   57   58 1    
   115   57   59 1    
   116   57  180 1    
   117   58  181 1    
   118   58  182 1    
   119   58  183 1    
   120   59   60 am   BACKBONE|DICT|INTERRES
   121   59  184 1    
   122   60   61 2    
   123   60   62 1    
   124   62   63 1    
   125   62   64 1    
   126   62  185 1    
   127   63  186 1    
   128   63  187 1    
   129   63  188 1    
   130   64   65 am   BACKBONE|DICT|INTERRES
   131   64  189 1    
   132   65   66 2    
   133   67   68 2    
   134   67   69 am   BACKBONE|DICT|INTERRES
   135   69   70 1    
   136   69  190 1    
   137   70   71 1    
   138   70   72 1    
   139   70  191 1    
   140   71  192 1    
   141   71  193 1    
   142   71  194 1    
   143   72   73 2    
   144   72   74 am   BACKBONE|DICT|INTERRES
   145   74   75 1    
   146   74  195 1    
   147   75   76 1    
   148   75   77 1    
   149   75  196 1    
   150   76  197 1    
   151   76  198 1    
   152   76  199 1    
   153   77   78 2    
   154   77   79 am   BACKBONE|DICT|INTERRES
   155   79   80 1    
   156   79  200 1    
   157   80   81 1    
   158   80   82 1    
   159   80  201 1    
   160   81  202 1    
   161   81  203 1    
   162   81  204 1    
   163   82   83 2    
   164   82   84 am   BACKBONE|DICT|INTERRES
   165   84   85 1    
   166   84  205 1    
   167   85   86 1    
   168   85   87 1    
   169   85  206 1    
   170   86  207 1    
   171   86  208 1    
   172   86  209 1    
   173   87   88 2    
   174   87   89 am   BACKBONE|DICT|INTERRES
   175   89   90 1    
   176   89  210 1    
   177   90   91 1    
   178   90   92 1    
   179   90  211 1    
   180   91  212 1    
   181   91  213 1    
   182   91  214 1    
   183   92   93 2    
   184   92   94 am   BACKBONE|DICT|INTERRES
   185   94   95 1    
   186   94  215 1    
   187   95   96 1    
   188   95   97 1    
   189   95  216 1    
   190   96  217 1    
   191   96  218 1    
   192   96  219 1    
   193   97   98 2    
   194   97   99 am   BACKBONE|DICT|INTERRES
   195   99  100 1    
   196   99  220 1    
   197  100  101 1    
   198  100  102 1    
   199  100  221 1    
   200  101  222 1    
   201  101  223 1    
   202  101  224 1    
   203  102  103 2    
   204  102  104 am   BACKBONE|DICT|INTERRES
   205  104  105 1    
   206  104  225 1    
   207  105  106 1    
   208  105  107 1    
   209  105  226 1    
   210  106  227 1    
   211  106  228 1    
   212  106  229 1    
   213  107  108 2    
   214  107  109 am   BACKBONE|DICT|INTERRES
   215  109  110 1    
   216  109  230 1    
   217  110  111 1    
   218  110  112 1    
   219  110  231 1    
   220  111  232 1    
   221  111  233 1    
   222  111  234 1    
   223  112  113 2    
   224  112  114 am   BACKBONE|DICT|INTERRES
   225  114  115 1    
   226  114  235 1    
   227  115  116 1    
   228  115  117 1    
   229  115  236 1    
   230  116  237 1    
   231  116  238 1    
   232  116  239 1    
   233  117  118 2    
   234  117  119 am   BACKBONE|DICT|INTERRES
   235  119  120 1    
   236  119  240 1    
   237  120  121 1    
   238  120  124 1    
   239  120  241 1    
   240  121  122 am   BACKBONE|DICT|INTERRES
   241  121  123 2    
   242  122  242 1    
   243  122  243 1    
   244  124  125 1    
   245  124  244 1    
   246  124  245 1    
   247  125  126 1    
   248  126  246 1    
   249  126  247 1    
@<TRIPOS>SUBSTRUCTURE
     1 UNK         1 GROUP             0       ****    0 ROOT    
