@<TRIPOS>MOLECULE
3R540
247   249    1
SMALL
USER_CHARGES


@<TRIPOS>ATOM
      1 CA         -1.2068   -8.0682  -48.0817 C.3       0 UNK        -0.1800 
      2 C          -1.0995   -9.5778  -48.2413 C.2       0 UNK         0.5000 
      3 O           0.0043  -10.1188  -48.2037 O.2       0 UNK        -0.5000 
      4 N          -2.2402  -10.2587  -48.4135 N.am      1 UNK        -0.5000 
      5 CA         -2.3458  -11.7160  -48.5498 C.3       1 UNK         0.1400 
      6 C6         -3.7742  -12.1209  -49.0016 C.3       23 UNK        -0.0398 
      7 S7         -3.9963  -13.9067  -49.2950 S.3       23 UNK        -0.2404 
      8 C8         -3.4819  -14.0624  -51.0301 C.3       23 UNK        -0.0205 
      9 C9         -2.5992  -15.2838  -51.2171 C.ar      23 UNK        -0.0193 
     10 C10        -3.0995  -16.4435  -51.8159 C.ar      23 UNK        -0.1150 
     11 C11        -2.2755  -17.5588  -51.9987 C.ar      23 UNK        -0.0193 
     12 C12        -0.9453  -17.5074  -51.5700 C.ar      23 UNK        -0.1150 
     13 C13        -0.4365  -16.3534  -50.9673 C.ar      23 UNK        -0.0193 
     14 C14        -1.2685  -15.2455  -50.7945 C.ar      23 UNK        -0.1150 
     15 C15         1.0149  -16.2929  -50.5157 C.3       23 UNK        -0.0205 
     16 S16         1.3346  -17.3500  -49.0706 S.3       23 UNK        -0.2404 
     17 C17         0.1998  -16.6488  -47.8214 C.3       23 UNK        -0.0398 
     18 CA         -1.0392  -17.5370  -47.5680 C.3       11 UNK         0.1400 
     19 N          -0.6466  -18.9120  -47.2592 N.am      11 UNK        -0.5000 
     20 C          -1.4559  -19.9544  -47.0526 C.2       10 UNK         0.5000 
     21 O          -2.6861  -19.8809  -47.0762 O.2       10 UNK        -0.5000 
     22 CA         -0.7696  -21.2858  -46.6835 C.3       10 UNK         0.1400 
     23 CB          0.7576  -21.2929  -46.9211 C.3       10 UNK        -0.1800 
     24 N          -1.0561  -21.6612  -45.2986 N.am      10 UNK        -0.5000 
     25 C          -0.8683  -20.9252  -44.1955 C.2       9 UNK         0.5000 
     26 O          -0.3707  -19.7976  -44.1890 O.2       9 UNK        -0.5000 
     27 CA         -1.2956  -21.5680  -42.8669 C.3       9 UNK         0.1400 
     28 CB         -2.8249  -21.7302  -42.7788 C.3       9 UNK        -0.1800 
     29 N          -0.5873  -22.8198  -42.5795 N.am      9 UNK        -0.5000 
     30 C          -0.6581  -24.0070  -43.2012 C.2       8 UNK         0.5000 
     31 O          -1.4074  -24.2325  -44.1539 O.2       8 UNK        -0.5000 
     32 CA          0.2973  -25.1118  -42.6958 C.3       8 UNK         0.1400 
     33 CB          0.7153  -26.0731  -43.8212 C.3       8 UNK        -0.1800 
     34 N           1.5095  -24.5437  -42.1024 N.am      8 UNK        -0.5000 
     35 C           1.7314  -24.3471  -40.7961 C.2       7 UNK         0.5000 
     36 O           0.9565  -24.7002  -39.9073 O.2       7 UNK        -0.5000 
     37 CA          3.0201  -23.5806  -40.4280 C.3       7 UNK         0.1400 
     38 CB          4.1578  -24.5629  -40.1107 C.3       7 UNK        -0.1800 
     39 N           3.4646  -22.6509  -41.4751 N.am      7 UNK        -0.5000 
     40 C           2.7723  -21.5793  -41.8849 C.2       6 UNK         0.5000 
     41 O           1.6946  -21.2367  -41.3905 O.2       6 UNK        -0.5000 
     42 CA          3.3520  -20.8029  -43.0774 C.3       6 UNK         0.1400 
     43 CB          3.2943  -21.6529  -44.3583 C.3       6 UNK        -0.1800 
     44 N           2.5678  -19.5881  -43.2742 N.am      6 UNK        -0.5000 
     45 C           3.0520  -18.3848  -43.5857 C.2       5 UNK         0.5000 
     46 O           4.2361  -18.1595  -43.8520 O.2       5 UNK        -0.5000 
     47 CA          2.0398  -17.2322  -43.5562 C.3       5 UNK         0.1400 
     48 CB          1.6976  -16.8481  -42.1032 C.3       5 UNK        -0.1800 
     49 N           2.5974  -16.0786  -44.2549 N.am      5 UNK        -0.5000 
     50 C           1.8784  -15.0694  -44.7524 C.2       4 UNK         0.5000 
     51 O           0.6476  -15.0201  -44.6953 O.2       4 UNK        -0.5000 
     52 CA          2.6579  -13.9484  -45.4607 C.3       4 UNK         0.1400 
     53 CB          2.8513  -14.2719  -46.9505 C.3       4 UNK        -0.1800 
     54 N           1.9075  -12.7030  -45.3476 N.am      4 UNK        -0.5000 
     55 C           2.0727  -11.7934  -44.3786 C.2       3 UNK         0.5000 
     56 O           3.0136  -11.7993  -43.5838 O.2       3 UNK        -0.5000 
     57 CA          0.9814  -10.7104  -44.2558 C.3       3 UNK         0.1400 
     58 CB          1.3784   -9.4444  -45.0294 C.3       3 UNK        -0.1800 
     59 N          -0.3206  -11.1866  -44.7299 N.am      3 UNK        -0.5000 
     60 C          -1.0689  -12.0952  -44.0854 C.2       2 UNK         0.5000 
     61 O          -0.8071  -12.4994  -42.9516 O.2       2 UNK        -0.5000 
     62 CA         -2.3121  -12.6494  -44.8120 C.3       2 UNK         0.1400 
     63 CB         -3.5834  -12.4659  -43.9670 C.3       2 UNK        -0.1800 
     64 N          -2.5414  -12.0659  -46.1354 N.am      2 UNK        -0.5000 
     65 C          -1.8959  -12.4257  -47.2533 C.2       1 UNK         0.5000 
     66 O          -0.9538  -13.2182  -47.2771 O.2       1 UNK        -0.5000 
     67 C          -1.9510  -16.9068  -46.4908 C.2       11 UNK         0.5000 
     68 O          -2.7900  -16.0771  -46.8340 O.2       11 UNK        -0.5000 
     69 N          -1.8399  -17.3534  -45.2283 N.am      12 UNK        -0.5000 
     70 CA         -2.7116  -16.9226  -44.1305 C.3       12 UNK         0.1400 
     71 CB         -2.1209  -17.3786  -42.7893 C.3       12 UNK        -0.1800 
     72 C          -4.1627  -17.4220  -44.2776 C.2       12 UNK         0.5000 
     73 O          -5.0793  -16.7636  -43.7858 O.2       12 UNK        -0.5000 
     74 N          -4.3468  -18.5578  -44.9647 N.am      13 UNK        -0.5000 
     75 CA         -5.6515  -19.1090  -45.3350 C.3       13 UNK         0.1400 
     76 CB         -5.5777  -20.6426  -45.2430 C.3       13 UNK        -0.1800 
     77 C          -6.0788  -18.6794  -46.7530 C.2       13 UNK         0.5000 
     78 O          -7.2079  -18.9687  -47.1500 O.2       13 UNK        -0.5000 
     79 N          -5.1646  -18.0357  -47.4974 N.am      14 UNK        -0.5000 
     80 CA         -5.2508  -17.6608  -48.9137 C.3       14 UNK         0.1400 
     81 CB         -6.3546  -16.6056  -49.1317 C.3       14 UNK        -0.1800 
     82 C          -5.4049  -18.8777  -49.8538 C.2       14 UNK         0.5000 
     83 O          -5.9485  -18.7379  -50.9504 O.2       14 UNK        -0.5000 
     84 N          -4.9387  -20.0496  -49.4043 N.am      15 UNK        -0.5000 
     85 CA         -5.1097  -21.3545  -50.0332 C.3       15 UNK         0.1400 
     86 CB         -6.6069  -21.7389  -50.1269 C.3       15 UNK        -0.1800 
     87 C          -4.2650  -22.3531  -49.2270 C.2       15 UNK         0.5000 
     88 O          -3.0569  -22.1483  -49.1160 O.2       15 UNK        -0.5000 
     89 N          -4.8911  -23.4052  -48.6772 N.am      16 UNK        -0.5000 
     90 CA         -4.2843  -24.4680  -47.8675 C.3       16 UNK         0.1400 
     91 CB         -3.9619  -23.9361  -46.4539 C.3       16 UNK        -0.1800 
     92 C          -3.0876  -25.1189  -48.5937 C.2       16 UNK         0.5000 
     93 O          -3.2664  -25.6260  -49.7010 O.2       16 UNK        -0.5000 
     94 N          -1.8861  -25.0522  -48.0066 N.am      17 UNK        -0.5000 
     95 CA         -0.6420  -25.5387  -48.6078 C.3       17 UNK         0.1400 
     96 CB          0.4693  -25.4997  -47.5501 C.3       17 UNK        -0.1800 
     97 C          -0.2107  -24.7868  -49.8864 C.2       17 UNK         0.5000 
     98 O           0.5289  -25.3562  -50.6895 O.2       17 UNK        -0.5000 
     99 N          -0.6850  -23.5460  -50.0745 N.am      18 UNK        -0.5000 
    100 CA        -0.4262  -22.7373  -51.2673 C.3       18 UNK         0.1400 
    101 CB        -0.3112  -21.2557  -50.8762 C.3       18 UNK        -0.1800 
    102 C         -1.4849  -22.9366  -52.3683 C.2       18 UNK         0.5000 
    103 O         -1.3117  -22.3950  -53.4607 O.2       18 UNK        -0.5000 
    104 N         -2.5431  -23.7240  -52.1111 N.am      19 UNK        -0.5000 
    105 CA        -3.5997  -24.0265  -53.0859 C.3       19 UNK         0.1400 
    106 CB        -4.7325  -24.8091  -52.4085 C.3       19 UNK        -0.1800 
    107 C         -3.0901  -24.7891  -54.3243 C.2       19 UNK         0.5000 
    108 O         -3.6708  -24.6523  -55.4000 O.2       19 UNK        -0.5000 
    109 N         -1.9861  -25.5329  -54.1679 N.am      20 UNK        -0.5000 
    110 CA        -1.2672  -26.2020  -55.2530 C.3       20 UNK         0.1400 
    111 CB        -0.1901  -27.1138  -54.6459 C.3       20 UNK        -0.1800 
    112 C         -0.6379  -25.2232  -56.2670 C.2       20 UNK         0.5000 
    113 O         -0.4697  -25.5914  -57.4302 O.2       20 UNK        -0.5000 
    114 N         -0.3114  -24.0035  -55.8168 N.am      21 UNK        -0.5000 
    115 CA         0.1950  -22.9187  -56.6538 C.3       21 UNK         0.1400 
    116 CB         1.2485  -22.1185  -55.8698 C.3       21 UNK        -0.1800 
    117 C         -0.9505  -22.0045  -57.1182 C.2       21 UNK         0.5000 
    118 O         -1.0085  -21.6601  -58.2995 O.2       21 UNK        -0.5000 
    119 N         -1.8317  -21.6232  -56.1841 N.am      22 UNK        -0.5000 
    120 CA        -2.9529  -20.7007  -56.4250 C.3       22 UNK         0.1400 
    121 C         -4.1396  -21.2987  -57.2338 C.2       22 UNK         0.5000 
    122 N         -4.3372  -22.6094  -57.2753 N.am      22 UNK        -0.7600 
    123 O         -4.8951  -20.5520  -57.8498 O.2       22 UNK        -0.5000 
    124 C124       -3.4515  -20.0525  -55.1100 C.3       23 UNK        -0.0398 
    125 S125       -2.1997  -18.9482  -54.3775 S.3       23 UNK        -0.2404 
    126 C126       -2.8188  -18.8085  -52.6746 C.3       23 UNK        -0.0205 
    127 H127       -2.2413   -7.7272  -48.1276 H         1 UNK         0.0600 
    128 H128       -0.6478   -7.5672  -48.8720 H         1 UNK         0.0600 
    129 H129       -0.7900   -7.7627  -47.1220 H         1 UNK         0.0600 
    130 H130       -3.1119   -9.7487  -48.4407 H         1 UNK         0.3000 
    131 H131       -1.6527  -12.0174  -49.3383 H         1 UNK         0.0600 
    132 H132       -4.0438  -11.5840  -49.9123 H         1 UNK         0.0800 
    133 H133       -4.5094  -11.8167  -48.2549 H         1 UNK         0.0800 
    134 H134       -2.9318  -13.1762  -51.3495 H         1 UNK         0.0800 
    135 H135       -4.3686  -14.1201  -51.6632 H         1 UNK         0.0800 
    136 H136       -4.1286  -16.4760  -52.1459 H         1 UNK         0.1150 
    137 H137       -0.2995  -18.3605  -51.7151 H         1 UNK         0.1150 
    138 H138       -0.8835  -14.3500  -50.3267 H         1 UNK         0.1150 
    139 H139        1.6585  -16.6128  -51.3362 H         1 UNK         0.0800 
    140 H140        1.3076  -15.2685  -50.2793 H         1 UNK         0.0800 
    141 H141       -0.1007  -15.6426  -48.1175 H         1 UNK         0.0800 
    142 H142        0.7688  -16.5393  -46.9001 H         1 UNK         0.0800 
    143 H143       -1.6220  -17.5755  -48.4909 H         1 UNK         0.0600 
    144 H144        0.3484  -19.0721  -47.2056 H         1 UNK         0.3000 
    145 H145       -1.2068  -22.0542  -47.3190 H         1 UNK         0.0600 
    146 H146        1.1798  -22.2740  -46.7096 H         1 UNK         0.0600 
    147 H147        1.0010  -21.0606  -47.9570 H         1 UNK         0.0600 
    148 H148        1.2774  -20.5721  -46.2892 H         1 UNK         0.0600 
    149 H149       -1.4318  -22.5933  -45.1518 H         1 UNK         0.3000 
    150 H150       -1.0003  -20.8760  -42.0766 H         1 UNK         0.0600 
    151 H151       -3.3204  -20.7649  -42.8869 H         1 UNK         0.0600 
    152 H152       -3.1211  -22.1397  -41.8132 H         1 UNK         0.0600 
    153 H153       -3.2195  -22.3866  -43.5549 H         1 UNK         0.0600 
    154 H154        0.1097  -22.7295  -41.8509 H         1 UNK         0.3000 
    155 H155       -0.2514  -25.6881  -41.9484 H         1 UNK         0.0600 
    156 H156        1.2508  -25.5498  -44.6137 H         1 UNK         0.0600 
    157 H157       -0.1520  -26.5604  -44.2685 H         1 UNK         0.0600 
    158 H158        1.3661  -26.8614  -43.4426 H         1 UNK         0.0600 
    159 H159        2.2053  -24.2085  -42.7522 H         1 UNK         0.3000 
    160 H160        2.8097  -22.9981  -39.5285 H         1 UNK         0.0600 
    161 H161        4.4290  -25.1605  -40.9820 H         1 UNK         0.0600 
    162 H162        3.8683  -25.2527  -39.3168 H         1 UNK         0.0600 
    163 H163        5.0506  -24.0369  -39.7720 H         1 UNK         0.0600 
    164 H164        4.3432  -22.8689  -41.9236 H         1 UNK         0.3000 
    165 H165        4.3890  -20.5500  -42.8468 H         1 UNK         0.0600 
    166 H166        3.6067  -21.0774  -45.2300 H         1 UNK         0.0600 
    167 H167        3.9553  -22.5174  -44.2904 H         1 UNK         0.0600 
    168 H168        2.2861  -22.0245  -44.5432 H         1 UNK         0.0600 
    169 H169        1.5852  -19.6811  -43.0423 H         1 UNK         0.3000 
    170 H170        1.1355  -17.5589  -44.0737 H         1 UNK         0.0600 
    171 H171        2.5892  -16.5566  -41.5467 H         1 UNK         0.0600 
    172 H172        0.9962  -16.0148  -42.0629 H         1 UNK         0.0600 
    173 H173        1.2371  -17.6832  -41.5739 H         1 UNK         0.0600 
    174 H174        3.6024  -16.1114  -44.3754 H         1 UNK         0.3000 
    175 H175        3.6395  -13.8475  -44.9928 H         1 UNK         0.0600 
    176 H176        1.8997  -14.3069  -47.4816 H         1 UNK         0.0600 
    177 H177        3.4722  -13.5190  -47.4361 H         1 UNK         0.0600 
    178 H178        3.3422  -15.2364  -47.0866 H         1 UNK         0.0600 
    179 H179        1.0615  -12.6587  -45.9007 H         1 UNK         0.3000 
    180 H180        0.8882  -10.4472  -43.2000 H         1 UNK         0.0600 
    181 H181        0.6108   -8.6743  -44.9521 H         1 UNK         0.0600 
    182 H182        1.5434   -9.6528  -46.0865 H         1 UNK         0.0600 
    183 H183        2.3031   -9.0229  -44.6333 H         1 UNK         0.0600 
    184 H184       -0.5976  -10.9096  -45.6603 H         1 UNK         0.3000 
    185 H185       -2.1434  -13.7205  -44.9388 H         1 UNK         0.0600 
    186 H186       -4.4478  -12.9183  -44.4537 H         1 UNK         0.0600 
    187 H187       -3.4800  -12.9427  -42.9913 H         1 UNK         0.0600 
    188 H188       -3.8042  -11.4116  -43.7967 H         1 UNK         0.0600 
    189 H189       -3.2661  -11.3658  -46.1951 H         1 UNK         0.3000 
    190 H190       -1.1606  -18.0755  -45.0129 H         1 UNK         0.3000 
    191 H191       -2.7372  -15.8318  -44.1303 H         1 UNK         0.0600 
    192 H192       -2.6964  -16.9759  -41.9550 H         1 UNK         0.0600 
    193 H193       -1.0963  -17.0300  -42.6744 H         1 UNK         0.0600 
    194 H194       -2.1230  -18.4636  -42.6918 H         1 UNK         0.0600 
    195 H195       -3.5434  -19.0183  -45.3772 H         1 UNK         0.3000 
    196 H196       -6.4199  -18.7626  -44.6409 H         1 UNK         0.0600 
    197 H197       -4.8072  -21.0493  -45.8984 H         1 UNK         0.0600 
    198 H198       -5.3603  -20.9660  -44.2258 H         1 UNK         0.0600 
    199 H199       -6.5251  -21.1013  -45.5291 H         1 UNK         0.0600 
    200 H200       -4.2795  -17.8247  -47.0575 H         1 UNK         0.3000 
    201 H201       -4.2944  -17.1984  -49.1618 H         1 UNK         0.0600 
    202 H202       -7.3520  -17.0316  -49.0211 H         1 UNK         0.0600 
    203 H203       -6.2903  -16.1774  -50.1327 H         1 UNK         0.0600 
    204 H204       -6.2607  -15.7840  -48.4219 H         1 UNK         0.0600 
    205 H205       -4.4156  -20.0624  -48.5345 H         1 UNK         0.3000 
    206 H206       -4.6881  -21.3144  -51.0395 H         1 UNK         0.0600 
    207 H207       -6.7402  -22.7361  -50.5474 H         1 UNK         0.0600 
    208 H208       -7.0922  -21.7139  -49.1500 H         1 UNK         0.0600 
    209 H209       -7.1542  -21.0590  -50.7791 H         1 UNK         0.0600 
    210 H210       -5.8824  -23.5019  -48.8434 H         1 UNK         0.3000 
    211 H211       -5.0356  -25.2519  -47.7628 H         1 UNK         0.0600 
    212 H212       -3.5429  -24.7183  -45.8199 H         1 UNK         0.0600 
    213 H213       -4.8669  -23.5831  -45.9598 H         1 UNK         0.0600 
    214 H214       -3.2590  -23.1043  -46.4767 H         1 UNK         0.0600 
    215 H215       -1.8155  -24.6312  -47.0919 H         1 UNK         0.3000 
    216 H216       -0.7969  -26.5815  -48.8925 H         1 UNK         0.0600 
    217 H217        0.6028  -24.4991  -47.1404 H         1 UNK         0.0600 
    218 H218        1.4257  -25.8170  -47.9681 H         1 UNK         0.0600 
    219 H219        0.2389  -26.1740  -46.7263 H         1 UNK         0.0600 
    220 H220       -1.3576  -23.1607  -49.4191 H         1 UNK         0.3000 
    221 H221        0.5315  -23.0280  -51.7039 H         1 UNK         0.0600 
    222 H222        0.5221  -21.0930  -50.1952 H         1 UNK         0.0600 
    223 H223       -1.2159  -20.8797  -50.3998 H         1 UNK         0.0600 
    224 H224       -0.1233  -20.6413  -51.7569 H         1 UNK         0.0600 
    225 H225       -2.6157  -24.1765  -51.2077 H         1 UNK         0.3000 
    226 H226       -4.0086  -23.0757  -53.4327 H         1 UNK         0.0600 
    227 H227       -4.4040  -25.8005  -52.0950 H         1 UNK         0.0600 
    228 H228       -5.1094  -24.2870  -51.5306 H         1 UNK         0.0600 
    229 H229       -5.5725  -24.9456  -53.0907 H         1 UNK         0.0600 
    230 H230       -1.5773  -25.5938  -53.2468 H         1 UNK         0.3000 
    231 H231       -1.9803  -26.8259  -55.7960 H         1 UNK         0.0600 
    232 H232        0.5375  -26.5452  -54.0650 H         1 UNK         0.0600 
    233 H233        0.3557  -27.6471  -55.4254 H         1 UNK         0.0600 
    234 H234       -0.6318  -27.8636  -53.9892 H         1 UNK         0.0600 
    235 H235       -0.5298  -23.7615  -54.8587 H         1 UNK         0.3000 
    236 H236        0.6823  -23.3273  -57.5416 H         1 UNK         0.0600 
    237 H237        2.0830  -22.7537  -55.5729 H         1 UNK         0.0600 
    238 H238        1.6552  -21.3105  -56.4791 H         1 UNK         0.0600 
    239 H239        0.8327  -21.6695  -54.9671 H         1 UNK         0.0600 
    240 H240       -1.6864  -21.9118  -55.2205 H         1 UNK         0.3000 
    241 H241       -2.5667  -19.8920  -57.0493 H         1 UNK         0.0600 
    242 H242       -5.1076  -22.9689  -57.8155 H         1 UNK         0.3800 
    243 H243       -3.7959  -23.2514  -56.7050 H         1 UNK         0.3800 
    244 H244       -3.7275  -20.8216  -54.3872 H         1 UNK         0.0800 
    245 H245       -4.3478  -19.4540  -55.2839 H         1 UNK         0.0800 
    246 H246       -3.9090  -18.7825  -52.6908 H         1 UNK         0.0800 
    247 H247       -2.5393  -19.6968  -52.1078 H         1 UNK         0.0800 
@<TRIPOS>BOND
     1    1    2 1    
     2    1  127 1    
     3    1  128 1    
     4    1  129 1    
     5    2    3 2    
     6    2    4 am   BACKBONE|DICT|INTERRES
     7    4    5 1    
     8    4  130 1    
     9    5    6 1    
    10    5   65 1    
    11    5  131 1    
    12    6    7 1    
    13    6  132 1    
    14    6  133 1    
    15    7    8 1    
    16    8    9 1    
    17    8  134 1    
    18    8  135 1    
    19    9   10 ar   
    20    9   14 ar   
    21   10   11 ar   
    22   10  136 1    
    23   11   12 ar   
    24   11  126 1    
    25   12   13 ar   
    26   12  137 1    
    27   13   14 ar   
    28   13   15 1    
    29   14  138 1    
    30   15   16 1    
    31   15  139 1    
    32   15  140 1    
    33   16   17 1    
    34   17   18 1    
    35   17  141 1    
    36   17  142 1    
    37   18   19 1    
    38   18   67 1    
    39   18  143 1    
    40   19   20 am   BACKBONE|DICT|INTERRES
    41   19  144 1    
    42   20   21 2    
    43   20   22 1    
    44   22   23 1    
    45   22   24 1    
    46   22  145 1    
    47   23  146 1    
    48   23  147 1    
    49   23  148 1    
    50   24   25 am   BACKBONE|DICT|INTERRES
    51   24  149 1    
    52   25   26 2    
    53   25   27 1    
    54   27   28 1    
    55   27   29 1    
    56   27  150 1    
    57   28  151 1    
    58   28  152 1    
    59   28  153 1    
    60   29   30 am   BACKBONE|DICT|INTERRES
    61   29  154 1    
    62   30   31 2    
    63   30   32 1    
    64   32   33 1    
    65   32   34 1    
    66   32  155 1    
    67   33  156 1    
    68   33  157 1    
    69   33  158 1    
    70   34   35 am   BACKBONE|DICT|INTERRES
    71   34  159 1    
    72   35   36 2    
    73   35   37 1    
    74   37   38 1    
    75   37   39 1    
    76   37  160 1    
    77   38  161 1    
    78   38  162 1    
    79   38  163 1    
    80   39   40 am   BACKBONE|DICT|INTERRES
    81   39  164 1    
    82   40   41 2    
    83   40   42 1    
    84   42   43 1    
    85   42   44 1    
    86   42  165 1    
    87   43  166 1    
    88   43  167 1    
    89   43  168 1    
    90   44   45 am   BACKBONE|DICT|INTERRES
    91   44  169 1    
    92   45   46 2    
    93   45   47 1    
    94   47   48 1    
    95   47   49 1    
    96   47  170 1    
    97   48  171 1    
    98   48  172 1    
    99   48  173 1    
   100   49   50 am   BACKBONE|DICT|INTERRES
   101   49  174 1    
   102   50   51 2    
   103   50   52 1    
   104   52   53 1    
   105   52   54 1    
   106   52  175 1    
   107   53  176 1    
   108   53  177 1    
   109   53  178 1    
   110   54   55 am   BACKBONE|DICT|INTERRES
   111   54  179 1    
   112   55   56 2    
   113   55   57 1    
   114   57   58 1    
   115   57   59 1    
   116   57  180 1    
   117   58  181 1    
   118   58  182 1    
   119   58  183 1    
   120   59   60 am   BACKBONE|DICT|INTERRES
   121   59  184 1    
   122   60   61 2    
   123   60   62 1    
   124   62   63 1    
   125   62   64 1    
   126   62  185 1    
   127   63  186 1    
   128   63  187 1    
   129   63  188 1    
   130   64   65 am   BACKBONE|DICT|INTERRES
   131   64  189 1    
   132   65   66 2    
   133   67   68 2    
   134   67   69 am   BACKBONE|DICT|INTERRES
   135   69   70 1    
   136   69  190 1    
   137   70   71 1    
   138   70   72 1    
   139   70  191 1    
   140   71  192 1    
   141   71  193 1    
   142   71  194 1    
   143   72   73 2    
   144   72   74 am   BACKBONE|DICT|INTERRES
   145   74   75 1    
   146   74  195 1    
   147   75   76 1    
   148   75   77 1    
   149   75  196 1    
   150   76  197 1    
   151   76  198 1    
   152   76  199 1    
   153   77   78 2    
   154   77   79 am   BACKBONE|DICT|INTERRES
   155   79   80 1    
   156   79  200 1    
   157   80   81 1    
   158   80   82 1    
   159   80  201 1    
   160   81  202 1    
   161   81  203 1    
   162   81  204 1    
   163   82   83 2    
   164   82   84 am   BACKBONE|DICT|INTERRES
   165   84   85 1    
   166   84  205 1    
   167   85   86 1    
   168   85   87 1    
   169   85  206 1    
   170   86  207 1    
   171   86  208 1    
   172   86  209 1    
   173   87   88 2    
   174   87   89 am   BACKBONE|DICT|INTERRES
   175   89   90 1    
   176   89  210 1    
   177   90   91 1    
   178   90   92 1    
   179   90  211 1    
   180   91  212 1    
   181   91  213 1    
   182   91  214 1    
   183   92   93 2    
   184   92   94 am   BACKBONE|DICT|INTERRES
   185   94   95 1    
   186   94  215 1    
   187   95   96 1    
   188   95   97 1    
   189   95  216 1    
   190   96  217 1    
   191   96  218 1    
   192   96  219 1    
   193   97   98 2    
   194   97   99 am   BACKBONE|DICT|INTERRES
   195   99  100 1    
   196   99  220 1    
   197  100  101 1    
   198  100  102 1    
   199  100  221 1    
   200  101  222 1    
   201  101  223 1    
   202  101  224 1    
   203  102  103 2    
   204  102  104 am   BACKBONE|DICT|INTERRES
   205  104  105 1    
   206  104  225 1    
   207  105  106 1    
   208  105  107 1    
   209  105  226 1    
   210  106  227 1    
   211  106  228 1    
   212  106  229 1    
   213  107  108 2    
   214  107  109 am   BACKBONE|DICT|INTERRES
   215  109  110 1    
   216  109  230 1    
   217  110  111 1    
   218  110  112 1    
   219  110  231 1    
   220  111  232 1    
   221  111  233 1    
   222  111  234 1    
   223  112  113 2    
   224  112  114 am   BACKBONE|DICT|INTERRES
   225  114  115 1    
   226  114  235 1    
   227  115  116 1    
   228  115  117 1    
   229  115  236 1    
   230  116  237 1    
   231  116  238 1    
   232  116  239 1    
   233  117  118 2    
   234  117  119 am   BACKBONE|DICT|INTERRES
   235  119  120 1    
   236  119  240 1    
   237  120  121 1    
   238  120  124 1    
   239  120  241 1    
   240  121  122 am   BACKBONE|DICT|INTERRES
   241  121  123 2    
   242  122  242 1    
   243  122  243 1    
   244  124  125 1    
   245  124  244 1    
   246  124  245 1    
   247  125  126 1    
   248  126  246 1    
   249  126  247 1    
@<TRIPOS>SUBSTRUCTURE
     1 UNK         1 GROUP             0       ****    0 ROOT    
