@<TRIPOS>MOLECULE
3R540
247   249    1
SMALL
USER_CHARGES


@<TRIPOS>ATOM
      1 CA         -2.6305   -8.0253  -51.4062 C.3       0 UNK        -0.1800 
      2 C          -1.4385   -8.8670  -50.9724 C.2       0 UNK         0.5000 
      3 O          -0.3028   -8.3929  -51.0209 O.2       0 UNK        -0.5000 
      4 N          -1.6909  -10.1140  -50.5587 N.am      1 UNK        -0.5000 
      5 CA         -0.6916  -11.0464  -50.0292 C.3       1 UNK         0.1400 
      6 C6         -1.2034  -12.5099  -50.0321 C.3       23 UNK        -0.0398 
      7 S7         -2.8272  -12.7539  -49.2238 S.3       23 UNK        -0.2404 
      8 C8         -3.4758  -14.1851  -50.1449 C.3       23 UNK        -0.0205 
      9 C9         -2.6383  -15.4302  -49.9004 C.ar      23 UNK        -0.0193 
     10 C10        -1.7260  -15.8718  -50.8629 C.ar      23 UNK        -0.1150 
     11 C11        -0.9277  -16.9937  -50.6219 C.ar      23 UNK        -0.0193 
     12 C12        -1.0624  -17.6880  -49.4159 C.ar      23 UNK        -0.1150 
     13 C13        -1.9745  -17.2564  -48.4482 C.ar      23 UNK        -0.0193 
     14 C14        -2.7594  -16.1279  -48.6965 C.ar      23 UNK        -0.1150 
     15 C15        -2.0684  -17.9675  -47.1102 C.3       23 UNK        -0.0205 
     16 S16        -3.6761  -18.7777  -46.8574 S.3       23 UNK        -0.2404 
     17 C17        -3.3251  -19.6579  -45.2985 C.3       23 UNK        -0.0398 
     18 CA         -2.6046  -21.0051  -45.5688 C.3       11 UNK         0.1400 
     19 N          -1.4006  -21.1900  -44.7541 N.am      11 UNK        -0.5000 
     20 C          -0.4420  -22.0837  -45.0420 C.2       10 UNK         0.5000 
     21 O          -0.4823  -22.8222  -46.0267 O.2       10 UNK        -0.5000 
     22 CA          0.7199  -22.2268  -44.0412 C.3       10 UNK         0.1400 
     23 CB          1.9363  -21.4152  -44.5047 C.3       10 UNK        -0.1800 
     24 N           0.3792  -21.8489  -42.6667 N.am      10 UNK        -0.5000 
     25 C          -0.5674  -22.4357  -41.9190 C.2       9 UNK         0.5000 
     26 O          -1.2971  -23.3322  -42.3456 O.2       9 UNK        -0.5000 
     27 CA         -0.7584  -21.9107  -40.4800 C.3       9 UNK         0.1400 
     28 CB         -1.3505  -22.9737  -39.5312 C.3       9 UNK        -0.1800 
     29 N           0.4492  -21.3047  -39.9084 N.am      9 UNK        -0.5000 
     30 C           1.6266  -21.8973  -39.6507 C.2       8 UNK         0.5000 
     31 O           1.8429  -23.0981  -39.8213 O.2       8 UNK        -0.5000 
     32 CA          2.7485  -20.9774  -39.1142 C.3       8 UNK         0.1400 
     33 CB          4.1628  -21.5158  -39.4181 C.3       8 UNK        -0.1800 
     34 N           2.6119  -19.5797  -39.5518 N.am      8 UNK        -0.5000 
     35 C           2.6379  -19.1272  -40.8141 C.2       7 UNK         0.5000 
     36 O           2.8589  -19.8358  -41.7976 O.2       7 UNK        -0.5000 
     37 CA          2.3442  -17.6255  -40.9948 C.3       7 UNK         0.1400 
     38 CB          3.6519  -16.8197  -41.0002 C.3       7 UNK        -0.1800 
     39 N           1.5926  -17.3083  -42.2108 N.am      7 UNK        -0.5000 
     40 C           0.4409  -17.8628  -42.6165 C.2       6 UNK         0.5000 
     41 O          -0.1458  -18.7653  -42.0161 O.2       6 UNK        -0.5000 
     42 CA         -0.1844  -17.3010  -43.9038 C.3       6 UNK         0.1400 
     43 CB         -1.2901  -16.2923  -43.5520 C.3       6 UNK        -0.1800 
     44 N           0.7941  -16.6454  -44.7718 N.am      6 UNK        -0.5000 
     45 C           1.4111  -17.2314  -45.8083 C.2       5 UNK         0.5000 
     46 O           1.2137  -18.3966  -46.1497 O.2       5 UNK        -0.5000 
     47 CA          2.4109  -16.3763  -46.6115 C.3       5 UNK         0.1400 
     48 CB          1.7399  -15.8089  -47.8723 C.3       5 UNK        -0.1800 
     49 N           2.9705  -15.2756  -45.8257 N.am      5 UNK        -0.5000 
     50 C           3.9231  -15.4300  -44.8930 C.2       4 UNK         0.5000 
     51 O           4.4737  -16.5052  -44.6575 O.2       4 UNK        -0.5000 
     52 CA          4.3158  -14.1911  -44.0606 C.3       4 UNK         0.1400 
     53 CB          5.5853  -13.5427  -44.6329 C.3       4 UNK        -0.1800 
     54 N           3.2667  -13.1739  -43.9718 N.am      4 UNK        -0.5000 
     55 C           2.0424  -13.3549  -43.4568 C.2       3 UNK         0.5000 
     56 O           1.6707  -14.4096  -42.9435 O.2       3 UNK        -0.5000 
     57 CA          1.0467  -12.1869  -43.6030 C.3       3 UNK         0.1400 
     58 CB          1.0109  -11.3493  -42.3166 C.3       3 UNK        -0.1800 
     59 N           1.3294  -11.3083  -44.7453 N.am      3 UNK        -0.5000 
     60 C           1.3317  -11.6958  -46.0283 C.2       2 UNK         0.5000 
     61 O           1.1144  -12.8538  -46.3930 O.2       2 UNK        -0.5000 
     62 CA          1.7251  -10.6288  -47.0636 C.3       2 UNK         0.1400 
     63 CB          3.2501  -10.6205  -47.2565 C.3       2 UNK        -0.1800 
     64 N           1.0893  -10.8838  -48.3548 N.am      2 UNK        -0.5000 
     65 C          -0.1913  -10.6119  -48.6334 C.2       1 UNK         0.5000 
     66 O          -0.9576  -10.0502  -47.8449 O.2       1 UNK        -0.5000 
     67 C          -3.5738  -22.2050  -45.5070 C.2       11 UNK         0.5000 
     68 O          -4.3491  -22.3884  -46.4449 O.2       11 UNK        -0.5000 
     69 N          -3.5013  -23.0234  -44.4449 N.am      12 UNK        -0.5000 
     70 CA         -4.2609  -24.2706  -44.3371 C.3       12 UNK         0.1400 
     71 CB         -4.2677  -24.7592  -42.8808 C.3       12 UNK        -0.1800 
     72 C          -3.7025  -25.3529  -45.2783 C.2       12 UNK         0.5000 
     73 O          -4.4808  -26.0748  -45.9007 O.2       12 UNK        -0.5000 
     74 N          -2.3682  -25.4100  -45.4048 N.am      13 UNK        -0.5000 
     75 CA         -1.6593  -26.2914  -46.3354 C.3       13 UNK         0.1400 
     76 CB         -0.1722  -26.3522  -45.9539 C.3       13 UNK        -0.1800 
     77 C          -1.8365  -25.8503  -47.8005 C.2       13 UNK         0.5000 
     78 O          -1.9865  -26.6996  -48.6788 O.2       13 UNK        -0.5000 
     79 N          -1.8585  -24.5293  -48.0291 N.am      14 UNK        -0.5000 
     80 CA         -2.1331  -23.9057  -49.3267 C.3       14 UNK         0.1400 
     81 CB         -1.6626  -22.4438  -49.2801 C.3       14 UNK        -0.1800 
     82 C          -3.6179  -23.9676  -49.7428 C.2       14 UNK         0.5000 
     83 O          -3.9257  -23.6546  -50.8945 O.2       14 UNK        -0.5000 
     84 N          -4.4993  -24.3359  -48.8003 N.am      15 UNK        -0.5000 
     85 CA         -5.9590  -24.4208  -48.8996 C.3       15 UNK         0.1400 
     86 CB         -6.3767  -25.5488  -49.8624 C.3       15 UNK        -0.1800 
     87 C          -6.5901  -23.0628  -49.2583 C.2       15 UNK         0.5000 
     88 O          -7.3276  -22.9595  -50.2383 O.2       15 UNK        -0.5000 
     89 N          -6.2353  -22.0280  -48.4831 N.am      16 UNK        -0.5000 
     90 CA         -6.5974  -20.6191  -48.6853 C.3       16 UNK         0.1400 
     91 CB         -8.1100  -20.4011  -48.4727 C.3       16 UNK        -0.1800 
     92 C          -6.0875  -20.0801  -50.0400 C.2       16 UNK         0.5000 
     93 O          -6.7948  -19.3374  -50.7217 O.2       16 UNK        -0.5000 
     94 N          -4.8758  -20.5227  -50.4083 N.am      17 UNK        -0.5000 
     95 CA         -4.1484  -20.2952  -51.6619 C.3       17 UNK         0.1400 
     96 CB         -4.0041  -18.7908  -51.9694 C.3       17 UNK        -0.1800 
     97 C          -4.6947  -21.0725  -52.8781 C.2       17 UNK         0.5000 
     98 O          -4.0545  -21.0391  -53.9294 O.2       17 UNK        -0.5000 
     99 N          -5.8322  -21.7706  -52.7443 N.am      18 UNK        -0.5000 
    100 CA        -6.5168  -22.4396  -53.8522 C.3       18 UNK         0.1400 
    101 CB        -7.9586  -22.7763  -53.4444 C.3       18 UNK        -0.1800 
    102 C         -5.7959  -23.6993  -54.3630 C.2       18 UNK         0.5000 
    103 O         -5.8506  -23.9690  -55.5636 O.2       18 UNK        -0.5000 
    104 N         -5.1366  -24.4454  -53.4653 N.am      19 UNK        -0.5000 
    105 CA        -4.3631  -25.6372  -53.8245 C.3       19 UNK         0.1400 
    106 CB        -4.3346  -26.6300  -52.6523 C.3       19 UNK        -0.1800 
    107 C         -2.9363  -25.2719  -54.2604 C.2       19 UNK         0.5000 
    108 O         -2.3819  -25.9370  -55.1362 O.2       19 UNK        -0.5000 
    109 N         -2.3713  -24.2207  -53.6507 N.am      20 UNK        -0.5000 
    110 CA        -1.0468  -23.6975  -53.9839 C.3       20 UNK         0.1400 
    111 CB        -0.5714  -22.7643  -52.8616 C.3       20 UNK        -0.1800 
    112 C         -1.0143  -22.9642  -55.3365 C.2       20 UNK         0.5000 
    113 O         -0.0097  -23.0522  -56.0432 O.2       20 UNK        -0.5000 
    114 N         -2.0991  -22.2370  -55.6503 N.am      21 UNK        -0.5000 
    115 CA        -2.2626  -21.3317  -56.7956 C.3       21 UNK         0.1400 
    116 CB        -2.2616  -22.1142  -58.1253 C.3       21 UNK        -0.1800 
    117 C         -1.2532  -20.1608  -56.7754 C.2       21 UNK         0.5000 
    118 O         -0.8479  -19.6671  -57.8297 O.2       21 UNK        -0.5000 
    119 N         -0.8482  -19.7614  -55.5648 N.am      22 UNK        -0.5000 
    120 CA         0.1296  -18.7054  -55.2862 C.3       22 UNK         0.1400 
    121 C         -0.4396  -17.2667  -55.4565 C.2       22 UNK         0.5000 
    122 N          0.4243  -16.2630  -55.5370 N.am      22 UNK        -0.7600 
    123 O         -1.6474  -17.0419  -55.5029 O.2       22 UNK        -0.5000 
    124 C124        0.7993  -18.9332  -53.9045 C.3       23 UNK        -0.0398 
    125 S125       -0.3717  -18.9557  -52.5001 S.3       23 UNK        -0.2404 
    126 C126        0.1093  -17.4248  -51.6463 C.3       23 UNK        -0.0205 
    127 H127       -2.5136   -7.7156  -52.4448 H         1 UNK         0.0600 
    128 H128       -3.5681   -8.5750  -51.3188 H         1 UNK         0.0600 
    129 H129       -2.7025   -7.1304  -50.7881 H         1 UNK         0.0600 
    130 H130       -2.6463  -10.4374  -50.5023 H         1 UNK         0.3000 
    131 H131        0.1672  -11.0084  -50.7034 H         1 UNK         0.0600 
    132 H132       -1.2830  -12.8439  -51.0672 H         1 UNK         0.0800 
    133 H133       -0.4777  -13.1789  -49.5648 H         1 UNK         0.0800 
    134 H134       -3.5211  -13.9484  -51.2091 H         1 UNK         0.0800 
    135 H135       -4.5034  -14.3731  -49.8303 H         1 UNK         0.0800 
    136 H136       -1.6237  -15.3304  -51.7928 H         1 UNK         0.1150 
    137 H137       -0.4387  -18.5501  -49.2246 H         1 UNK         0.1150 
    138 H138       -3.4535  -15.7819  -47.9434 H         1 UNK         0.1150 
    139 H139       -1.2760  -18.7115  -47.0207 H         1 UNK         0.0800 
    140 H140       -1.9041  -17.2383  -46.3191 H         1 UNK         0.0800 
    141 H141       -2.7296  -19.0056  -44.6613 H         1 UNK         0.0800 
    142 H142       -4.2645  -19.7940  -44.7588 H         1 UNK         0.0800 
    143 H143       -2.2391  -20.9878  -46.5955 H         1 UNK         0.0600 
    144 H144       -1.3112  -20.6395  -43.9125 H         1 UNK         0.3000 
    145 H145        1.0012  -23.2817  -44.0312 H         1 UNK         0.0600 
    146 H146        2.8172  -21.6543  -43.9090 H         1 UNK         0.0600 
    147 H147        2.1815  -21.6263  -45.5465 H         1 UNK         0.0600 
    148 H148        1.7574  -20.3434  -44.4178 H         1 UNK         0.0600 
    149 H149        0.9267  -21.1023  -42.2555 H         1 UNK         0.3000 
    150 H150       -1.4870  -21.1026  -40.5580 H         1 UNK         0.0600 
    151 H151       -2.3290  -23.3073  -39.8791 H         1 UNK         0.0600 
    152 H152       -1.4848  -22.5748  -38.5258 H         1 UNK         0.0600 
    153 H153       -0.7132  -23.8555  -39.4611 H         1 UNK         0.0600 
    154 H154        0.3942  -20.3062  -39.7627 H         1 UNK         0.3000 
    155 H155        2.6305  -20.9676  -38.0298 H         1 UNK         0.0600 
    156 H156        4.9312  -20.8460  -39.0323 H         1 UNK         0.0600 
    157 H157        4.3304  -21.6380  -40.4885 H         1 UNK         0.0600 
    158 H158        4.3193  -22.4891  -38.9516 H         1 UNK         0.0600 
    159 H159        2.4309  -18.9161  -38.8108 H         1 UNK         0.3000 
    160 H160        1.7357  -17.2906  -40.1527 H         1 UNK         0.0600 
    161 H161        4.2790  -17.0824  -41.8533 H         1 UNK         0.0600 
    162 H162        4.2328  -17.0055  -40.0959 H         1 UNK         0.0600 
    163 H163        3.4551  -15.7483  -41.0444 H         1 UNK         0.0600 
    164 H164        1.9458  -16.5310  -42.7525 H         1 UNK         0.3000 
    165 H165       -0.6361  -18.1399  -44.4331 H         1 UNK         0.0600 
    166 H166       -0.9035  -15.4629  -42.9586 H         1 UNK         0.0600 
    167 H167       -1.7504  -15.8712  -44.4453 H         1 UNK         0.0600 
    168 H168       -2.0816  -16.7684  -42.9718 H         1 UNK         0.0600 
    169 H169        1.0399  -15.6936  -44.5307 H         1 UNK         0.3000 
    170 H170        3.2278  -17.0279  -46.9291 H         1 UNK         0.0600 
    171 H171        1.4400  -16.6138  -48.5432 H         1 UNK         0.0600 
    172 H172        0.8445  -15.2339  -47.6326 H         1 UNK         0.0600 
    173 H173        2.4178  -15.1607  -48.4277 H         1 UNK         0.0600 
    174 H174        2.5429  -14.3658  -45.9586 H         1 UNK         0.3000 
    175 H175        4.5317  -14.5338  -43.0468 H         1 UNK         0.0600 
    176 H176        5.4193  -13.1530  -45.6381 H         1 UNK         0.0600 
    177 H177        5.9264  -12.7196  -44.0047 H         1 UNK         0.0600 
    178 H178        6.4013  -14.2644  -44.6909 H         1 UNK         0.0600 
    179 H179        3.4793  -12.2739  -44.3750 H         1 UNK         0.3000 
    180 H180        0.0573  -12.6230  -43.7561 H         1 UNK         0.0600 
    181 H181        0.7786  -11.9721  -41.4515 H         1 UNK         0.0600 
    182 H182        1.9690  -10.8648  -42.1245 H         1 UNK         0.0600 
    183 H183        0.2462  -10.5742  -42.3710 H         1 UNK         0.0600 
    184 H184        1.5347  -10.3440  -44.5259 H         1 UNK         0.3000 
    185 H185        1.4122   -9.6472  -46.7009 H         1 UNK         0.0600 
    186 H186        3.7634  -10.3948  -46.3209 H         1 UNK         0.0600 
    187 H187        3.6182  -11.5856  -47.6078 H         1 UNK         0.0600 
    188 H188        3.5517   -9.8630  -47.9802 H         1 UNK         0.0600 
    189 H189        1.6491  -11.3766  -49.0350 H         1 UNK         0.3000 
    190 H190       -2.8126  -22.8500  -43.7214 H         1 UNK         0.3000 
    191 H191       -5.2946  -24.0711  -44.6282 H         1 UNK         0.0600 
    192 H192       -4.9149  -25.6299  -42.7686 H         1 UNK         0.0600 
    193 H193       -4.6393  -23.9881  -42.2058 H         1 UNK         0.0600 
    194 H194       -3.2726  -25.0499  -42.5438 H         1 UNK         0.0600 
    195 H195       -1.8040  -24.7639  -44.8716 H         1 UNK         0.3000 
    196 H196       -2.0749  -27.2966  -46.2373 H         1 UNK         0.0600 
    197 H197        0.3687  -27.0373  -46.6080 H         1 UNK         0.0600 
    198 H198       -0.0416  -26.7083  -44.9319 H         1 UNK         0.0600 
    199 H199        0.3089  -25.3772  -46.0332 H         1 UNK         0.0600 
    200 H200       -1.6329  -23.9044  -47.2615 H         1 UNK         0.3000 
    201 H201       -1.5550  -24.4329  -50.0878 H         1 UNK         0.0600 
    202 H202       -0.6417  -22.3624  -48.9062 H         1 UNK         0.0600 
    203 H203       -2.3059  -21.8366  -48.6455 H         1 UNK         0.0600 
    204 H204       -1.6773  -21.9955  -50.2717 H         1 UNK         0.0600 
    205 H205       -4.1259  -24.5358  -47.8831 H         1 UNK         0.3000 
    206 H206       -6.3204  -24.6823  -47.9040 H         1 UNK         0.0600 
    207 H207       -5.8730  -26.4848  -49.6211 H         1 UNK         0.0600 
    208 H208       -7.4504  -25.7297  -49.8044 H         1 UNK         0.0600 
    209 H209       -6.1481  -25.2973  -50.8967 H         1 UNK         0.0600 
    210 H210       -5.5890  -22.2070  -47.7142 H         1 UNK         0.3000 
    211 H211       -6.0765  -20.0551  -47.9123 H         1 UNK         0.0600 
    212 H212       -8.7048  -20.8846  -49.2481 H         1 UNK         0.0600 
    213 H213       -8.3559  -19.3387  -48.4885 H         1 UNK         0.0600 
    214 H214       -8.4323  -20.7936  -47.5084 H         1 UNK         0.0600 
    215 H215       -4.4265  -21.1676  -49.7753 H         1 UNK         0.3000 
    216 H216       -3.1444  -20.6822  -51.4923 H         1 UNK         0.0600 
    217 H217       -4.9553  -18.3318  -52.2371 H         1 UNK         0.0600 
    218 H218       -3.3265  -18.6261  -52.8076 H         1 UNK         0.0600 
    219 H219       -3.5988  -18.2518  -51.1135 H         1 UNK         0.0600 
    220 H220       -6.2838  -21.8144  -51.8391 H         1 UNK         0.3000 
    221 H221       -6.5660  -21.7317  -54.6826 H         1 UNK         0.0600 
    222 H222       -7.9906  -23.5549  -52.6820 H         1 UNK         0.0600 
    223 H223       -8.4774  -21.9003  -53.0546 H         1 UNK         0.0600 
    224 H224       -8.5283  -23.1392  -54.3007 H         1 UNK         0.0600 
    225 H225       -5.0774  -24.1294  -52.5025 H         1 UNK         0.3000 
    226 H226       -4.8452  -26.1417  -54.6648 H         1 UNK         0.0600 
    227 H227       -5.3398  -26.9622  -52.3943 H         1 UNK         0.0600 
    228 H228       -3.7607  -27.5204  -52.9122 H         1 UNK         0.0600 
    229 H229       -3.8784  -26.2002  -51.7611 H         1 UNK         0.0600 
    230 H230       -2.8918  -23.7490  -52.9228 H         1 UNK         0.3000 
    231 H231       -0.3489  -24.5354  -54.0448 H         1 UNK         0.0600 
    232 H232       -1.2766  -21.9509  -52.6897 H         1 UNK         0.0600 
    233 H233       -0.4442  -23.3098  -51.9277 H         1 UNK         0.0600 
    234 H234        0.3930  -22.3160  -53.1044 H         1 UNK         0.0600 
    235 H235       -2.8510  -22.1823  -54.9697 H         1 UNK         0.3000 
    236 H236       -3.2488  -20.8793  -56.6827 H         1 UNK         0.0600 
    237 H237       -2.9820  -22.9319  -58.1004 H         1 UNK         0.0600 
    238 H238       -2.5352  -21.4669  -58.9591 H         1 UNK         0.0600 
    239 H239       -1.2815  -22.5362  -58.3483 H         1 UNK         0.0600 
    240 H240       -1.2768  -20.1828  -54.7541 H         1 UNK         0.3000 
    241 H241        0.9158  -18.8039  -56.0374 H         1 UNK         0.0600 
    242 H242        1.4208  -16.4136  -55.5168 H         1 UNK         0.3800 
    243 H243        0.0706  -15.3253  -55.6458 H         1 UNK         0.3800 
    244 H244        1.5818  -18.1934  -53.7297 H         1 UNK         0.0800 
    245 H245        1.3152  -19.8943  -53.9126 H         1 UNK         0.0800 
    246 H246        0.2591  -16.6325  -52.3815 H         1 UNK         0.0800 
    247 H247        1.0705  -17.5738  -51.1524 H         1 UNK         0.0800 
@<TRIPOS>BOND
     1    1    2 1    
     2    1  127 1    
     3    1  128 1    
     4    1  129 1    
     5    2    3 2    
     6    2    4 am   BACKBONE|DICT|INTERRES
     7    4    5 1    
     8    4  130 1    
     9    5    6 1    
    10    5   65 1    
    11    5  131 1    
    12    6    7 1    
    13    6  132 1    
    14    6  133 1    
    15    7    8 1    
    16    8    9 1    
    17    8  134 1    
    18    8  135 1    
    19    9   10 ar   
    20    9   14 ar   
    21   10   11 ar   
    22   10  136 1    
    23   11   12 ar   
    24   11  126 1    
    25   12   13 ar   
    26   12  137 1    
    27   13   14 ar   
    28   13   15 1    
    29   14  138 1    
    30   15   16 1    
    31   15  139 1    
    32   15  140 1    
    33   16   17 1    
    34   17   18 1    
    35   17  141 1    
    36   17  142 1    
    37   18   19 1    
    38   18   67 1    
    39   18  143 1    
    40   19   20 am   BACKBONE|DICT|INTERRES
    41   19  144 1    
    42   20   21 2    
    43   20   22 1    
    44   22   23 1    
    45   22   24 1    
    46   22  145 1    
    47   23  146 1    
    48   23  147 1    
    49   23  148 1    
    50   24   25 am   BACKBONE|DICT|INTERRES
    51   24  149 1    
    52   25   26 2    
    53   25   27 1    
    54   27   28 1    
    55   27   29 1    
    56   27  150 1    
    57   28  151 1    
    58   28  152 1    
    59   28  153 1    
    60   29   30 am   BACKBONE|DICT|INTERRES
    61   29  154 1    
    62   30   31 2    
    63   30   32 1    
    64   32   33 1    
    65   32   34 1    
    66   32  155 1    
    67   33  156 1    
    68   33  157 1    
    69   33  158 1    
    70   34   35 am   BACKBONE|DICT|INTERRES
    71   34  159 1    
    72   35   36 2    
    73   35   37 1    
    74   37   38 1    
    75   37   39 1    
    76   37  160 1    
    77   38  161 1    
    78   38  162 1    
    79   38  163 1    
    80   39   40 am   BACKBONE|DICT|INTERRES
    81   39  164 1    
    82   40   41 2    
    83   40   42 1    
    84   42   43 1    
    85   42   44 1    
    86   42  165 1    
    87   43  166 1    
    88   43  167 1    
    89   43  168 1    
    90   44   45 am   BACKBONE|DICT|INTERRES
    91   44  169 1    
    92   45   46 2    
    93   45   47 1    
    94   47   48 1    
    95   47   49 1    
    96   47  170 1    
    97   48  171 1    
    98   48  172 1    
    99   48  173 1    
   100   49   50 am   BACKBONE|DICT|INTERRES
   101   49  174 1    
   102   50   51 2    
   103   50   52 1    
   104   52   53 1    
   105   52   54 1    
   106   52  175 1    
   107   53  176 1    
   108   53  177 1    
   109   53  178 1    
   110   54   55 am   BACKBONE|DICT|INTERRES
   111   54  179 1    
   112   55   56 2    
   113   55   57 1    
   114   57   58 1    
   115   57   59 1    
   116   57  180 1    
   117   58  181 1    
   118   58  182 1    
   119   58  183 1    
   120   59   60 am   BACKBONE|DICT|INTERRES
   121   59  184 1    
   122   60   61 2    
   123   60   62 1    
   124   62   63 1    
   125   62   64 1    
   126   62  185 1    
   127   63  186 1    
   128   63  187 1    
   129   63  188 1    
   130   64   65 am   BACKBONE|DICT|INTERRES
   131   64  189 1    
   132   65   66 2    
   133   67   68 2    
   134   67   69 am   BACKBONE|DICT|INTERRES
   135   69   70 1    
   136   69  190 1    
   137   70   71 1    
   138   70   72 1    
   139   70  191 1    
   140   71  192 1    
   141   71  193 1    
   142   71  194 1    
   143   72   73 2    
   144   72   74 am   BACKBONE|DICT|INTERRES
   145   74   75 1    
   146   74  195 1    
   147   75   76 1    
   148   75   77 1    
   149   75  196 1    
   150   76  197 1    
   151   76  198 1    
   152   76  199 1    
   153   77   78 2    
   154   77   79 am   BACKBONE|DICT|INTERRES
   155   79   80 1    
   156   79  200 1    
   157   80   81 1    
   158   80   82 1    
   159   80  201 1    
   160   81  202 1    
   161   81  203 1    
   162   81  204 1    
   163   82   83 2    
   164   82   84 am   BACKBONE|DICT|INTERRES
   165   84   85 1    
   166   84  205 1    
   167   85   86 1    
   168   85   87 1    
   169   85  206 1    
   170   86  207 1    
   171   86  208 1    
   172   86  209 1    
   173   87   88 2    
   174   87   89 am   BACKBONE|DICT|INTERRES
   175   89   90 1    
   176   89  210 1    
   177   90   91 1    
   178   90   92 1    
   179   90  211 1    
   180   91  212 1    
   181   91  213 1    
   182   91  214 1    
   183   92   93 2    
   184   92   94 am   BACKBONE|DICT|INTERRES
   185   94   95 1    
   186   94  215 1    
   187   95   96 1    
   188   95   97 1    
   189   95  216 1    
   190   96  217 1    
   191   96  218 1    
   192   96  219 1    
   193   97   98 2    
   194   97   99 am   BACKBONE|DICT|INTERRES
   195   99  100 1    
   196   99  220 1    
   197  100  101 1    
   198  100  102 1    
   199  100  221 1    
   200  101  222 1    
   201  101  223 1    
   202  101  224 1    
   203  102  103 2    
   204  102  104 am   BACKBONE|DICT|INTERRES
   205  104  105 1    
   206  104  225 1    
   207  105  106 1    
   208  105  107 1    
   209  105  226 1    
   210  106  227 1    
   211  106  228 1    
   212  106  229 1    
   213  107  108 2    
   214  107  109 am   BACKBONE|DICT|INTERRES
   215  109  110 1    
   216  109  230 1    
   217  110  111 1    
   218  110  112 1    
   219  110  231 1    
   220  111  232 1    
   221  111  233 1    
   222  111  234 1    
   223  112  113 2    
   224  112  114 am   BACKBONE|DICT|INTERRES
   225  114  115 1    
   226  114  235 1    
   227  115  116 1    
   228  115  117 1    
   229  115  236 1    
   230  116  237 1    
   231  116  238 1    
   232  116  239 1    
   233  117  118 2    
   234  117  119 am   BACKBONE|DICT|INTERRES
   235  119  120 1    
   236  119  240 1    
   237  120  121 1    
   238  120  124 1    
   239  120  241 1    
   240  121  122 am   BACKBONE|DICT|INTERRES
   241  121  123 2    
   242  122  242 1    
   243  122  243 1    
   244  124  125 1    
   245  124  244 1    
   246  124  245 1    
   247  125  126 1    
   248  126  246 1    
   249  126  247 1    
@<TRIPOS>SUBSTRUCTURE
     1 UNK         1 GROUP             0       ****    0 ROOT    
