@<TRIPOS>MOLECULE
3R540
247   249    1
SMALL
USER_CHARGES


@<TRIPOS>ATOM
      1 CA         -3.1798  -10.8392  -49.6446 C.3       0 UNK        -0.1800 
      2 C          -1.6949  -11.1581  -49.7439 C.2       0 UNK         0.5000 
      3 O          -0.9213  -10.3357  -50.2335 O.2       0 UNK        -0.5000 
      4 N          -1.2938  -12.3439  -49.2696 N.am      1 UNK        -0.5000 
      5 CA          0.0835  -12.8585  -49.3208 C.3       1 UNK         0.1400 
      6 C6          0.1264  -14.4069  -49.3970 C.3       23 UNK        -0.0398 
      7 S7         -0.8720  -15.0949  -50.7629 S.3       23 UNK        -0.2404 
      8 C8          0.4029  -15.9119  -51.7848 C.3       23 UNK        -0.0205 
      9 C9          0.6754  -17.3681  -51.4067 C.ar      23 UNK        -0.0193 
     10 C10         0.9033  -18.3035  -52.4223 C.ar      23 UNK        -0.1150 
     11 C11         1.1550  -19.6467  -52.1216 C.ar      23 UNK        -0.0193 
     12 C12         1.1944  -20.0491  -50.7833 C.ar      23 UNK        -0.1150 
     13 C13         0.9809  -19.1277  -49.7559 C.ar      23 UNK        -0.0193 
     14 C14         0.7279  -17.7909  -50.0722 C.ar      23 UNK        -0.1150 
     15 C15         1.0153  -19.5766  -48.3046 C.3       23 UNK        -0.0205 
     16 S16        -0.6643  -19.8749  -47.6889 S.3       23 UNK        -0.2404 
     17 C17        -0.3369  -20.4110  -45.9744 C.3       23 UNK        -0.0398 
     18 CA         -0.1254  -21.9360  -45.8455 C.3       11 UNK         0.1400 
     19 N           0.4723  -22.2967  -44.5593 N.am      11 UNK        -0.5000 
     20 C           0.9845  -23.5000  -44.2620 C.2       10 UNK         0.5000 
     21 O           0.9235  -24.4748  -45.0125 O.2       10 UNK        -0.5000 
     22 CA          1.6605  -23.6342  -42.8891 C.3       10 UNK         0.1400 
     23 CB          3.0363  -22.9490  -42.8876 C.3       10 UNK        -0.1800 
     24 N           0.8240  -23.0473  -41.8459 N.am      10 UNK        -0.5000 
     25 C          -0.1374  -23.7106  -41.1897 C.2       9 UNK         0.5000 
     26 O          -0.3555  -24.9149  -41.3252 O.2       9 UNK        -0.5000 
     27 CA         -1.0206  -22.8862  -40.2324 C.3       9 UNK         0.1400 
     28 CB         -0.4297  -22.8917  -38.8145 C.3       9 UNK        -0.1800 
     29 N          -1.2160  -21.5004  -40.6647 N.am      9 UNK        -0.5000 
     30 C          -1.8378  -21.1336  -41.7939 C.2       8 UNK         0.5000 
     31 O          -2.3138  -21.9277  -42.6026 O.2       8 UNK        -0.5000 
     32 CA         -1.8992  -19.6279  -42.0954 C.3       8 UNK         0.1400 
     33 CB         -3.1370  -19.0016  -41.4369 C.3       8 UNK        -0.1800 
     34 N          -0.7073  -18.8864  -41.6817 N.am      8 UNK        -0.5000 
     35 C           0.5501  -19.1076  -42.0873 C.2       7 UNK         0.5000 
     36 O           0.8730  -20.0735  -42.7834 O.2       7 UNK        -0.5000 
     37 CA          1.6111  -18.0740  -41.6392 C.3       7 UNK         0.1400 
     38 CB          2.9594  -18.2764  -42.3530 C.3       7 UNK        -0.1800 
     39 N           1.1690  -16.6928  -41.8558 N.am      7 UNK        -0.5000 
     40 C           0.2792  -16.0198  -41.1123 C.2       6 UNK         0.5000 
     41 O          -0.2147  -16.4672  -40.0767 O.2       6 UNK        -0.5000 
     42 CA         -0.2024  -14.6614  -41.6576 C.3       6 UNK         0.1400 
     43 CB          0.7042  -13.5212  -41.1720 C.3       6 UNK        -0.1800 
     44 N          -0.2830  -14.6376  -43.1199 N.am      6 UNK        -0.5000 
     45 C          -1.1102  -15.3956  -43.8565 C.2       5 UNK         0.5000 
     46 O          -1.9574  -16.1502  -43.3802 O.2       5 UNK        -0.5000 
     47 CA         -0.9441  -15.3147  -45.3834 C.3       5 UNK         0.1400 
     48 CB         -1.7840  -14.1610  -45.9568 C.3       5 UNK        -0.1800 
     49 N           0.4646  -15.1701  -45.7649 N.am      5 UNK        -0.5000 
     50 C           1.3437  -16.1849  -45.7433 C.2       4 UNK         0.5000 
     51 O           1.0263  -17.3466  -45.5026 O.2       4 UNK        -0.5000 
     52 CA          2.8307  -15.8561  -45.9774 C.3       4 UNK         0.1400 
     53 CB          3.2389  -16.0658  -47.4419 C.3       4 UNK        -0.1800 
     54 N           3.1751  -14.4970  -45.5645 N.am      4 UNK        -0.5000 
     55 C           3.3293  -14.1302  -44.2847 C.2       3 UNK         0.5000 
     56 O           3.2274  -14.9111  -43.3387 O.2       3 UNK        -0.5000 
     57 CA          3.5949  -12.6371  -44.0093 C.3       3 UNK         0.1400 
     58 CB          5.1042  -12.3545  -43.9895 C.3       3 UNK        -0.1800 
     59 N           2.9485  -11.7365  -44.9676 N.am      3 UNK        -0.5000 
     60 C           1.6284  -11.6636  -45.1842 C.2       2 UNK         0.5000 
     61 O           0.8086  -12.3637  -44.5890 O.2       2 UNK        -0.5000 
     62 CA          1.1285  -10.6817  -46.2631 C.3       2 UNK         0.1400 
     63 CB          2.2193   -9.7338  -46.8107 C.3       2 UNK        -0.1800 
     64 N           0.4593  -11.3781  -47.3677 N.am      2 UNK        -0.5000 
     65 C           0.9727  -12.3270  -48.1673 C.2       1 UNK         0.5000 
     66 O           2.1037  -12.7920  -48.0170 O.2       1 UNK        -0.5000 
     67 C          -1.3986  -22.7380  -46.1848 C.2       11 UNK         0.5000 
     68 O          -1.6549  -22.9596  -47.3682 O.2       11 UNK        -0.5000 
     69 N          -2.1497  -23.2114  -45.1806 N.am      12 UNK        -0.5000 
     70 CA         -3.3281  -24.0721  -45.3468 C.3       12 UNK         0.1400 
     71 CB         -3.9294  -24.3850  -43.9685 C.3       12 UNK        -0.1800 
     72 C          -3.0630  -25.3798  -46.1229 C.2       12 UNK         0.5000 
     73 O          -3.9764  -25.8894  -46.7722 O.2       12 UNK        -0.5000 
     74 N          -1.8222  -25.8822  -46.0661 N.am      13 UNK        -0.5000 
     75 CA         -1.3676  -27.0496  -46.8210 C.3       13 UNK         0.1400 
     76 CB         -0.2662  -27.7524  -46.0112 C.3       13 UNK        -0.1800 
     77 C          -0.8515  -26.6935  -48.2311 C.2       13 UNK         0.5000 
     78 O          -0.6659  -27.6028  -49.0412 O.2       13 UNK        -0.5000 
     79 N          -0.5998  -25.4043  -48.4971 N.am      14 UNK        -0.5000 
     80 CA          0.0184  -24.9097  -49.7259 C.3       14 UNK         0.1400 
     81 CB          1.1286  -23.9080  -49.3654 C.3       14 UNK        -0.1800 
     82 C          -1.0026  -24.2537  -50.6669 C.2       14 UNK         0.5000 
     83 O          -1.0111  -24.5742  -51.8569 O.2       14 UNK        -0.5000 
     84 N          -1.8197  -23.3311  -50.1402 N.am      15 UNK        -0.5000 
     85 CA         -2.7287  -22.5008  -50.9371 C.3       15 UNK         0.1400 
     86 CB         -1.9236  -21.4263  -51.6872 C.3       15 UNK        -0.1800 
     87 C          -3.8409  -21.8139  -50.1280 C.2       15 UNK         0.5000 
     88 O          -4.7516  -21.2680  -50.7487 O.2       15 UNK        -0.5000 
     89 N          -3.7461  -21.7969  -48.7892 N.am      16 UNK        -0.5000 
     90 CA         -4.6708  -21.1443  -47.8520 C.3       16 UNK         0.1400 
     91 CB         -6.0134  -21.9022  -47.8040 C.3       16 UNK        -0.1800 
     92 C          -4.8323  -19.6319  -48.1250 C.2       16 UNK         0.5000 
     93 O          -5.9537  -19.1337  -48.2330 O.2       16 UNK        -0.5000 
     94 N          -3.6867  -18.9452  -48.2516 N.am      17 UNK        -0.5000 
     95 CA         -3.5251  -17.5280  -48.5967 C.3       17 UNK         0.1400 
     96 CB         -4.1079  -16.6148  -47.4979 C.3       17 UNK        -0.1800 
     97 C          -4.0545  -17.2097  -50.0102 C.2       17 UNK         0.5000 
     98 O          -4.7682  -16.2233  -50.2005 O.2       17 UNK        -0.5000 
     99 N          -3.6812  -18.0714  -50.9683 N.am      18 UNK        -0.5000 
    100 CA        -4.0358  -18.0289  -52.3895 C.3       18 UNK         0.1400 
    101 CB        -3.3884  -16.8137  -53.0846 C.3       18 UNK        -0.1800 
    102 C         -5.5548  -18.1383  -52.6301 C.2       18 UNK         0.5000 
    103 O         -6.1369  -17.3284  -53.3564 O.2       18 UNK        -0.5000 
    104 N         -6.1733  -19.1624  -52.0277 N.am      19 UNK        -0.5000 
    105 CA        -7.5423  -19.5895  -52.3038 C.3       19 UNK         0.1400 
    106 CB        -8.0665  -20.4050  -51.1091 C.3       19 UNK        -0.1800 
    107 C         -7.5486  -20.3901  -53.6200 C.2       19 UNK         0.5000 
    108 O         -7.4974  -21.6211  -53.5979 O.2       19 UNK        -0.5000 
    109 N         -7.5394  -19.6516  -54.7376 N.am      20 UNK        -0.5000 
    110 CA        -7.2469  -20.1037  -56.1002 C.3       20 UNK         0.1400 
    111 CB        -8.2272  -21.2013  -56.5751 C.3       20 UNK        -0.1800 
    112 C         -5.7516  -20.4628  -56.2537 C.2       20 UNK         0.5000 
    113 O         -4.9080  -19.8304  -55.6126 O.2       20 UNK        -0.5000 
    114 N         -5.4368  -21.4191  -57.1358 N.am      21 UNK        -0.5000 
    115 CA        -4.0733  -21.8453  -57.4515 C.3       21 UNK         0.1400 
    116 CB        -4.1133  -22.7567  -58.6883 C.3       21 UNK        -0.1800 
    117 C         -3.3810  -22.5638  -56.2771 C.2       21 UNK         0.5000 
    118 O         -4.0301  -23.3088  -55.5389 O.2       21 UNK        -0.5000 
    119 N         -2.0662  -22.3501  -56.1618 N.am      22 UNK        -0.5000 
    120 CA        -1.1714  -23.0386  -55.2199 C.3       22 UNK         0.1400 
    121 C         -1.0163  -24.5495  -55.5514 C.2       22 UNK         0.5000 
    122 N         -0.9096  -25.4041  -54.5445 N.am      22 UNK        -0.7600 
    123 O         -0.9467  -24.9474  -56.7127 O.2       22 UNK        -0.5000 
    124 C124        0.2189  -22.3529  -55.1751 C.3       23 UNK        -0.0398 
    125 S125        0.1286  -20.6450  -54.5294 S.3       23 UNK        -0.2404 
    126 C126        1.4080  -20.6682  -53.2261 C.3       23 UNK        -0.0205 
    127 H127       -3.3321   -9.9413  -49.0457 H         1 UNK         0.0600 
    128 H128       -3.7399  -11.6540  -49.1850 H         1 UNK         0.0600 
    129 H129       -3.5920  -10.6620  -50.6379 H         1 UNK         0.0600 
    130 H130       -1.9835  -12.9817  -48.8999 H         1 UNK         0.3000 
    131 H131        0.5443  -12.4883  -50.2392 H         1 UNK         0.0600 
    132 H132        1.1556  -14.7377  -49.5279 H         1 UNK         0.0800 
    133 H133       -0.2169  -14.8594  -48.4686 H         1 UNK         0.0800 
    134 H134        1.3359  -15.3483  -51.7519 H         1 UNK         0.0800 
    135 H135        0.0618  -15.8628  -52.8199 H         1 UNK         0.0800 
    136 H136        0.8801  -17.9885  -53.4561 H         1 UNK         0.1150 
    137 H137        1.3864  -21.0835  -50.5377 H         1 UNK         0.1150 
    138 H138        0.5626  -17.0902  -49.2686 H         1 UNK         0.1150 
    139 H139        1.6100  -20.4851  -48.2007 H         1 UNK         0.0800 
    140 H140        1.4971  -18.8182  -47.6895 H         1 UNK         0.0800 
    141 H141       -1.1598  -20.0787  -45.3408 H         1 UNK         0.0800 
    142 H142        0.5471  -19.8851  -45.6129 H         1 UNK         0.0800 
    143 H143        0.6153  -22.2185  -46.5960 H         1 UNK         0.0600 
    144 H144        0.5781  -21.5412  -43.8859 H         1 UNK         0.3000 
    145 H145        1.8143  -24.6967  -42.6881 H         1 UNK         0.0600 
    146 H146        3.5393  -23.0815  -41.9297 H         1 UNK         0.0600 
    147 H147        3.6834  -23.3737  -43.6561 H         1 UNK         0.0600 
    148 H148        2.9596  -21.8779  -43.0786 H         1 UNK         0.0600 
    149 H149        0.9001  -22.0472  -41.7143 H         1 UNK         0.3000 
    150 H150       -2.0013  -23.3653  -40.1970 H         1 UNK         0.0600 
    151 H151       -0.2935  -23.9116  -38.4521 H         1 UNK         0.0600 
    152 H152       -1.0887  -22.3837  -38.1101 H         1 UNK         0.0600 
    153 H153        0.5428  -22.3989  -38.7816 H         1 UNK         0.0600 
    154 H154       -0.8457  -20.7775  -40.0653 H         1 UNK         0.3000 
    155 H155       -1.9950  -19.5112  -43.1759 H         1 UNK         0.0600 
    156 H156       -3.0820  -19.0492  -40.3487 H         1 UNK         0.0600 
    157 H157       -4.0474  -19.5181  -41.7442 H         1 UNK         0.0600 
    158 H158       -3.2479  -17.9550  -41.7208 H         1 UNK         0.0600 
    159 H159       -0.8641  -18.0741  -41.0952 H         1 UNK         0.3000 
    160 H160        1.7733  -18.2237  -40.5702 H         1 UNK         0.0600 
    161 H161        2.8589  -18.1723  -43.4339 H         1 UNK         0.0600 
    162 H162        3.3651  -19.2691  -42.1539 H         1 UNK         0.0600 
    163 H163        3.6986  -17.5501  -42.0146 H         1 UNK         0.0600 
    164 H164        1.5420  -16.2316  -42.6760 H         1 UNK         0.3000 
    165 H165       -1.2074  -14.4852  -41.2689 H         1 UNK         0.0600 
    166 H166        0.3656  -12.5567  -41.5510 H         1 UNK         0.0600 
    167 H167        0.7036  -13.4625  -40.0829 H         1 UNK         0.0600 
    168 H168        1.7366  -13.6631  -41.4894 H         1 UNK         0.0600 
    169 H169        0.3193  -13.9767  -43.6004 H         1 UNK         0.3000 
    170 H170       -1.3269  -16.2466  -45.8056 H         1 UNK         0.0600 
    171 H171       -2.8171  -14.2273  -45.6129 H         1 UNK         0.0600 
    172 H172       -1.4061  -13.1853  -45.6543 H         1 UNK         0.0600 
    173 H173       -1.8140  -14.1900  -47.0431 H         1 UNK         0.0600 
    174 H174        0.8118  -14.2281  -45.8813 H         1 UNK         0.3000 
    175 H175        3.4126  -16.5576  -45.3754 H         1 UNK         0.0600 
    176 H176        2.7379  -15.3659  -48.1053 H         1 UNK         0.0600 
    177 H177        4.3128  -15.9307  -47.5705 H         1 UNK         0.0600 
    178 H178        2.9994  -17.0729  -47.7810 H         1 UNK         0.0600 
    179 H179        3.2260  -13.7942  -46.2923 H         1 UNK         0.3000 
    180 H180        3.1928  -12.4091  -43.0205 H         1 UNK         0.0600 
    181 H181        5.6118  -12.9949  -43.2667 H         1 UNK         0.0600 
    182 H182        5.3090  -11.3219  -43.7064 H         1 UNK         0.0600 
    183 H183        5.5600  -12.5334  -44.9641 H         1 UNK         0.0600 
    184 H184        3.5576  -11.1469  -45.5160 H         1 UNK         0.3000 
    185 H185        0.3692  -10.0655  -45.7797 H         1 UNK         0.0600 
    186 H186        2.6783   -9.1540  -46.0088 H         1 UNK         0.0600 
    187 H187        3.0117  -10.2707  -47.3333 H         1 UNK         0.0600 
    188 H188        1.7915   -9.0192  -47.5140 H         1 UNK         0.0600 
    189 H189       -0.4890  -11.0862  -47.5545 H         1 UNK         0.3000 
    190 H190       -1.9295  -22.9338  -44.2281 H         1 UNK         0.3000 
    191 H191       -4.0676  -23.5089  -45.9173 H         1 UNK         0.0600 
    192 H192       -3.1959  -24.8472  -43.3064 H         1 UNK         0.0600 
    193 H193       -4.7760  -25.0677  -44.0522 H         1 UNK         0.0600 
    194 H194       -4.2959  -23.4798  -43.4849 H         1 UNK         0.0600 
    195 H195       -1.1191  -25.3952  -45.5235 H         1 UNK         0.3000 
    196 H196       -2.1957  -27.7513  -46.9416 H         1 UNK         0.0600 
    197 H197        0.0728  -28.6588  -46.5144 H         1 UNK         0.0600 
    198 H198       -0.6271  -28.0451  -45.0251 H         1 UNK         0.0600 
    199 H199        0.6038  -27.1092  -45.8728 H         1 UNK         0.0600 
    200 H200       -0.8553  -24.7059  -47.8097 H         1 UNK         0.3000 
    201 H201        0.4865  -25.7337  -50.2686 H         1 UNK         0.0600 
    202 H202        1.8685  -24.3605  -48.7050 H         1 UNK         0.0600 
    203 H203        0.7337  -23.0221  -48.8678 H         1 UNK         0.0600 
    204 H204        1.6535  -23.5731  -50.2608 H         1 UNK         0.0600 
    205 H205       -1.7567  -23.1386  -49.1447 H         1 UNK         0.3000 
    206 H206       -3.2241  -23.1427  -51.6687 H         1 UNK         0.0600 
    207 H207       -1.0581  -21.8525  -52.1887 H         1 UNK         0.0600 
    208 H208       -2.5318  -20.9466  -52.4535 H         1 UNK         0.0600 
    209 H209       -1.5630  -20.6504  -51.0115 H         1 UNK         0.0600 
    210 H210       -2.9484  -22.2458  -48.3486 H         1 UNK         0.3000 
    211 H211       -4.2149  -21.2236  -46.8642 H         1 UNK         0.0600 
    212 H212       -6.5498  -21.8356  -48.7504 H         1 UNK         0.0600 
    213 H213       -6.6645  -21.4949  -47.0298 H         1 UNK         0.0600 
    214 H214       -5.8632  -22.9582  -47.5804 H         1 UNK         0.0600 
    215 H215       -2.8190  -19.4566  -48.1437 H         1 UNK         0.3000 
    216 H216       -2.4499  -17.3432  -48.6314 H         1 UNK         0.0600 
    217 H217       -3.8799  -15.5684  -47.7024 H         1 UNK         0.0600 
    218 H218       -3.6886  -16.8553  -46.5211 H         1 UNK         0.0600 
    219 H219       -5.1922  -16.7020  -47.4283 H         1 UNK         0.0600 
    220 H220       -3.1221  -18.8623  -50.6867 H         1 UNK         0.3000 
    221 H221       -3.6018  -18.9200  -52.8430 H         1 UNK         0.0600 
    222 H222       -3.7665  -15.8688  -52.6939 H         1 UNK         0.0600 
    223 H223       -2.3065  -16.8226  -52.9561 H         1 UNK         0.0600 
    224 H224       -3.5854  -16.8283  -54.1572 H         1 UNK         0.0600 
    225 H225       -5.6182  -19.8156  -51.4776 H         1 UNK         0.3000 
    226 H226       -8.1838  -18.7135  -52.4201 H         1 UNK         0.0600 
    227 H227       -8.0419  -19.8180  -50.1907 H         1 UNK         0.0600 
    228 H228       -9.0990  -20.7148  -51.2732 H         1 UNK         0.0600 
    229 H229       -7.4759  -21.3062  -50.9428 H         1 UNK         0.0600 
    230 H230       -7.4844  -18.6483  -54.6086 H         1 UNK         0.3000 
    231 H231       -7.4077  -19.2324  -56.7364 H         1 UNK         0.0600 
    232 H232       -9.2591  -20.9254  -56.3577 H         1 UNK         0.0600 
    233 H233       -8.0326  -22.1625  -56.0984 H         1 UNK         0.0600 
    234 H234       -8.1595  -21.3494  -57.6533 H         1 UNK         0.0600 
    235 H235       -6.1827  -21.9147  -57.6008 H         1 UNK         0.3000 
    236 H236       -3.4960  -20.9526  -57.7025 H         1 UNK         0.0600 
    237 H237       -3.1093  -23.0771  -58.9704 H         1 UNK         0.0600 
    238 H238       -4.7038  -23.6555  -58.5057 H         1 UNK         0.0600 
    239 H239       -4.5419  -22.2404  -59.5474 H         1 UNK         0.0600 
    240 H240       -1.6128  -21.7318  -56.8177 H         1 UNK         0.3000 
    241 H241       -1.6245  -22.9655  -54.2296 H         1 UNK         0.0600 
    242 H242       -0.7935  -26.3853  -54.7413 H         1 UNK         0.3800 
    243 H243       -0.9573  -25.0925  -53.5738 H         1 UNK         0.3800 
    244 H244        0.6651  -22.3236  -56.1706 H         1 UNK         0.0800 
    245 H245        0.9049  -22.9364  -54.5592 H         1 UNK         0.0800 
    246 H246        2.3815  -20.4738  -53.6777 H         1 UNK         0.0800 
    247 H247        1.4625  -21.6667  -52.7903 H         1 UNK         0.0800 
@<TRIPOS>BOND
     1    1    2 1    
     2    1  127 1    
     3    1  128 1    
     4    1  129 1    
     5    2    3 2    
     6    2    4 am   BACKBONE|DICT|INTERRES
     7    4    5 1    
     8    4  130 1    
     9    5    6 1    
    10    5   65 1    
    11    5  131 1    
    12    6    7 1    
    13    6  132 1    
    14    6  133 1    
    15    7    8 1    
    16    8    9 1    
    17    8  134 1    
    18    8  135 1    
    19    9   10 ar   
    20    9   14 ar   
    21   10   11 ar   
    22   10  136 1    
    23   11   12 ar   
    24   11  126 1    
    25   12   13 ar   
    26   12  137 1    
    27   13   14 ar   
    28   13   15 1    
    29   14  138 1    
    30   15   16 1    
    31   15  139 1    
    32   15  140 1    
    33   16   17 1    
    34   17   18 1    
    35   17  141 1    
    36   17  142 1    
    37   18   19 1    
    38   18   67 1    
    39   18  143 1    
    40   19   20 am   BACKBONE|DICT|INTERRES
    41   19  144 1    
    42   20   21 2    
    43   20   22 1    
    44   22   23 1    
    45   22   24 1    
    46   22  145 1    
    47   23  146 1    
    48   23  147 1    
    49   23  148 1    
    50   24   25 am   BACKBONE|DICT|INTERRES
    51   24  149 1    
    52   25   26 2    
    53   25   27 1    
    54   27   28 1    
    55   27   29 1    
    56   27  150 1    
    57   28  151 1    
    58   28  152 1    
    59   28  153 1    
    60   29   30 am   BACKBONE|DICT|INTERRES
    61   29  154 1    
    62   30   31 2    
    63   30   32 1    
    64   32   33 1    
    65   32   34 1    
    66   32  155 1    
    67   33  156 1    
    68   33  157 1    
    69   33  158 1    
    70   34   35 am   BACKBONE|DICT|INTERRES
    71   34  159 1    
    72   35   36 2    
    73   35   37 1    
    74   37   38 1    
    75   37   39 1    
    76   37  160 1    
    77   38  161 1    
    78   38  162 1    
    79   38  163 1    
    80   39   40 am   BACKBONE|DICT|INTERRES
    81   39  164 1    
    82   40   41 2    
    83   40   42 1    
    84   42   43 1    
    85   42   44 1    
    86   42  165 1    
    87   43  166 1    
    88   43  167 1    
    89   43  168 1    
    90   44   45 am   BACKBONE|DICT|INTERRES
    91   44  169 1    
    92   45   46 2    
    93   45   47 1    
    94   47   48 1    
    95   47   49 1    
    96   47  170 1    
    97   48  171 1    
    98   48  172 1    
    99   48  173 1    
   100   49   50 am   BACKBONE|DICT|INTERRES
   101   49  174 1    
   102   50   51 2    
   103   50   52 1    
   104   52   53 1    
   105   52   54 1    
   106   52  175 1    
   107   53  176 1    
   108   53  177 1    
   109   53  178 1    
   110   54   55 am   BACKBONE|DICT|INTERRES
   111   54  179 1    
   112   55   56 2    
   113   55   57 1    
   114   57   58 1    
   115   57   59 1    
   116   57  180 1    
   117   58  181 1    
   118   58  182 1    
   119   58  183 1    
   120   59   60 am   BACKBONE|DICT|INTERRES
   121   59  184 1    
   122   60   61 2    
   123   60   62 1    
   124   62   63 1    
   125   62   64 1    
   126   62  185 1    
   127   63  186 1    
   128   63  187 1    
   129   63  188 1    
   130   64   65 am   BACKBONE|DICT|INTERRES
   131   64  189 1    
   132   65   66 2    
   133   67   68 2    
   134   67   69 am   BACKBONE|DICT|INTERRES
   135   69   70 1    
   136   69  190 1    
   137   70   71 1    
   138   70   72 1    
   139   70  191 1    
   140   71  192 1    
   141   71  193 1    
   142   71  194 1    
   143   72   73 2    
   144   72   74 am   BACKBONE|DICT|INTERRES
   145   74   75 1    
   146   74  195 1    
   147   75   76 1    
   148   75   77 1    
   149   75  196 1    
   150   76  197 1    
   151   76  198 1    
   152   76  199 1    
   153   77   78 2    
   154   77   79 am   BACKBONE|DICT|INTERRES
   155   79   80 1    
   156   79  200 1    
   157   80   81 1    
   158   80   82 1    
   159   80  201 1    
   160   81  202 1    
   161   81  203 1    
   162   81  204 1    
   163   82   83 2    
   164   82   84 am   BACKBONE|DICT|INTERRES
   165   84   85 1    
   166   84  205 1    
   167   85   86 1    
   168   85   87 1    
   169   85  206 1    
   170   86  207 1    
   171   86  208 1    
   172   86  209 1    
   173   87   88 2    
   174   87   89 am   BACKBONE|DICT|INTERRES
   175   89   90 1    
   176   89  210 1    
   177   90   91 1    
   178   90   92 1    
   179   90  211 1    
   180   91  212 1    
   181   91  213 1    
   182   91  214 1    
   183   92   93 2    
   184   92   94 am   BACKBONE|DICT|INTERRES
   185   94   95 1    
   186   94  215 1    
   187   95   96 1    
   188   95   97 1    
   189   95  216 1    
   190   96  217 1    
   191   96  218 1    
   192   96  219 1    
   193   97   98 2    
   194   97   99 am   BACKBONE|DICT|INTERRES
   195   99  100 1    
   196   99  220 1    
   197  100  101 1    
   198  100  102 1    
   199  100  221 1    
   200  101  222 1    
   201  101  223 1    
   202  101  224 1    
   203  102  103 2    
   204  102  104 am   BACKBONE|DICT|INTERRES
   205  104  105 1    
   206  104  225 1    
   207  105  106 1    
   208  105  107 1    
   209  105  226 1    
   210  106  227 1    
   211  106  228 1    
   212  106  229 1    
   213  107  108 2    
   214  107  109 am   BACKBONE|DICT|INTERRES
   215  109  110 1    
   216  109  230 1    
   217  110  111 1    
   218  110  112 1    
   219  110  231 1    
   220  111  232 1    
   221  111  233 1    
   222  111  234 1    
   223  112  113 2    
   224  112  114 am   BACKBONE|DICT|INTERRES
   225  114  115 1    
   226  114  235 1    
   227  115  116 1    
   228  115  117 1    
   229  115  236 1    
   230  116  237 1    
   231  116  238 1    
   232  116  239 1    
   233  117  118 2    
   234  117  119 am   BACKBONE|DICT|INTERRES
   235  119  120 1    
   236  119  240 1    
   237  120  121 1    
   238  120  124 1    
   239  120  241 1    
   240  121  122 am   BACKBONE|DICT|INTERRES
   241  121  123 2    
   242  122  242 1    
   243  122  243 1    
   244  124  125 1    
   245  124  244 1    
   246  124  245 1    
   247  125  126 1    
   248  126  246 1    
   249  126  247 1    
@<TRIPOS>SUBSTRUCTURE
     1 UNK         1 GROUP             0       ****    0 ROOT    
