@<TRIPOS>MOLECULE
3R540
247   249    1
SMALL
USER_CHARGES


@<TRIPOS>ATOM
      1 CA         -1.6028  -12.8196  -45.9911 C.3       0 UNK        -0.1800 
      2 C          -0.4399  -12.5123  -46.9201 C.2       0 UNK         0.5000 
      3 O          -0.6007  -11.7351  -47.8623 O.2       0 UNK        -0.5000 
      4 N           0.7337  -13.1045  -46.6636 N.am      1 UNK        -0.5000 
      5 CA          1.9654  -12.8841  -47.4281 C.3       1 UNK         0.1400 
      6 C6          2.9239  -14.1055  -47.3930 C.3       23 UNK        -0.0398 
      7 S7          2.1228  -15.7133  -47.7060 S.3       23 UNK        -0.2404 
      8 C8          1.5714  -15.5656  -49.4284 C.3       23 UNK        -0.0205 
      9 C9          0.7108  -16.7596  -49.8061 C.ar      23 UNK        -0.0193 
     10 C10        -0.6831  -16.6643  -49.7761 C.ar      23 UNK        -0.1150 
     11 C11        -1.4771  -17.7642  -50.1133 C.ar      23 UNK        -0.0193 
     12 C12        -0.8651  -18.9622  -50.4926 C.ar      23 UNK        -0.1150 
     13 C13         0.5302  -19.0781  -50.5071 C.ar      23 UNK        -0.0193 
     14 C14         1.3096  -17.9683  -50.1685 C.ar      23 UNK        -0.1150 
     15 C15         1.2187  -20.3829  -50.8990 C.3       23 UNK        -0.0205 
     16 S16         0.5127  -21.8761  -50.1252 S.3       23 UNK        -0.2404 
     17 C17         0.4331  -21.4193  -48.3591 C.3       23 UNK        -0.0398 
     18 CA         -0.0177  -22.5905  -47.4540 C.3       11 UNK         0.1400 
     19 N           0.1601  -22.2724  -46.0349 N.am      11 UNK        -0.5000 
     20 C           0.0177  -23.1518  -45.0331 C.2       10 UNK         0.5000 
     21 O          -0.2386  -24.3428  -45.2002 O.2       10 UNK        -0.5000 
     22 CA          0.1243  -22.6027  -43.6010 C.3       10 UNK         0.1400 
     23 CB          1.5924  -22.3913  -43.2030 C.3       10 UNK        -0.1800 
     24 N          -0.6271  -21.3603  -43.4246 N.am      10 UNK        -0.5000 
     25 C          -1.9576  -21.2539  -43.5538 C.2       9 UNK         0.5000 
     26 O          -2.6995  -22.2096  -43.7815 O.2       9 UNK        -0.5000 
     27 CA         -2.5553  -19.8375  -43.4624 C.3       9 UNK         0.1400 
     28 CB         -2.6991  -19.3951  -41.9990 C.3       9 UNK        -0.1800 
     29 N          -1.7741  -18.8454  -44.2021 N.am      9 UNK        -0.5000 
     30 C          -1.5715  -18.8708  -45.5281 C.2       8 UNK         0.5000 
     31 O          -2.0518  -19.7155  -46.2810 O.2       8 UNK        -0.5000 
     32 CA         -0.6292  -17.8032  -46.1022 C.3       8 UNK         0.1400 
     33 CB         -1.3641  -16.4676  -46.2707 C.3       8 UNK        -0.1800 
     34 N           0.5549  -17.6235  -45.2638 N.am      8 UNK        -0.5000 
     35 C           1.5062  -18.5544  -45.1047 C.2       7 UNK         0.5000 
     36 O           1.4989  -19.6479  -45.6721 O.2       7 UNK        -0.5000 
     37 CA          2.6187  -18.2315  -44.0924 C.3       7 UNK         0.1400 
     38 CB          3.7041  -17.3469  -44.7224 C.3       7 UNK        -0.1800 
     39 N           2.0969  -17.5867  -42.8864 N.am      7 UNK        -0.5000 
     40 C           1.3150  -18.1996  -41.9858 C.2       6 UNK         0.5000 
     41 O           0.9748  -19.3783  -42.0695 O.2       6 UNK        -0.5000 
     42 CA          0.7974  -17.3506  -40.8110 C.3       6 UNK         0.1400 
     43 CB          1.7922  -17.3886  -39.6418 C.3       6 UNK        -0.1800 
     44 N           0.5340  -15.9583  -41.1739 N.am      6 UNK        -0.5000 
     45 C          -0.3910  -15.5535  -42.0562 C.2       5 UNK         0.5000 
     46 O          -1.1317  -16.3202  -42.6730 O.2       5 UNK        -0.5000 
     47 CA         -0.4614  -14.0371  -42.3208 C.3       5 UNK         0.1400 
     48 CB         -1.4106  -13.3541  -41.3264 C.3       5 UNK        -0.1800 
     49 N           0.8528  -13.3912  -42.2617 N.am      5 UNK        -0.5000 
     50 C           1.8565  -13.6352  -43.1129 C.2       4 UNK         0.5000 
     51 O           1.7408  -14.3517  -44.1100 O.2       4 UNK        -0.5000 
     52 CA          3.2021  -12.9719  -42.7705 C.3       4 UNK         0.1400 
     53 CB          4.4013  -13.6647  -43.4383 C.3       4 UNK        -0.1800 
     54 N           3.1960  -11.5548  -43.1263 N.am      4 UNK        -0.5000 
     55 C           2.7245  -10.5783  -42.3372 C.2       3 UNK         0.5000 
     56 O           2.2080  -10.7902  -41.2386 O.2       3 UNK        -0.5000 
     57 CA          2.8596   -9.1245  -42.8346 C.3       3 UNK         0.1400 
     58 CB          4.0896   -8.4561  -42.2015 C.3       3 UNK        -0.1800 
     59 N           2.9597   -9.0142  -44.2902 N.am      3 UNK        -0.5000 
     60 C           1.9310   -9.1735  -45.1310 C.2       2 UNK         0.5000 
     61 O           0.7751   -9.3843  -44.7597 O.2       2 UNK        -0.5000 
     62 CA          2.2317   -9.1284  -46.6433 C.3       2 UNK         0.1400 
     63 CB          3.6309   -8.5824  -47.0106 C.3       2 UNK        -0.1800 
     64 N           2.0010  -10.4500  -47.2291 N.am      2 UNK        -0.5000 
     65 C           2.6301  -11.5911  -46.9129 C.2       1 UNK         0.5000 
     66 O           3.6229  -11.6454  -46.1842 O.2       1 UNK        -0.5000 
     67 C          -1.4610  -23.0520  -47.7608 C.2       11 UNK         0.5000 
     68 O          -1.6429  -24.0658  -48.4379 O.2       11 UNK        -0.5000 
     69 N          -2.4617  -22.3351  -47.2300 N.am      12 UNK        -0.5000 
     70 CA         -3.8826  -22.6700  -47.3461 C.3       12 UNK         0.1400 
     71 CB         -4.7347  -21.5605  -46.7137 C.3       12 UNK        -0.1800 
     72 C          -4.2329  -24.0452  -46.7493 C.2       12 UNK         0.5000 
     73 O          -5.0375  -24.7696  -47.3345 O.2       12 UNK        -0.5000 
     74 N          -3.6067  -24.3878  -45.6172 N.am      13 UNK        -0.5000 
     75 CA         -3.7639  -25.6739  -44.9469 C.3       13 UNK         0.1400 
     76 CB         -3.2954  -25.5475  -43.4880 C.3       13 UNK        -0.1800 
     77 C          -3.0230  -26.8163  -45.6664 C.2       13 UNK         0.5000 
     78 O          -3.6393  -27.8361  -45.9779 O.2       13 UNK        -0.5000 
     79 N          -1.7114  -26.6484  -45.8802 N.am      14 UNK        -0.5000 
     80 CA         -0.8116  -27.7271  -46.2921 C.3       14 UNK         0.1400 
     81 CB          0.6030  -27.4295  -45.7705 C.3       14 UNK        -0.1800 
     82 C          -0.7713  -27.9653  -47.8094 C.2       14 UNK         0.5000 
     83 O          -0.6338  -29.1155  -48.2285 O.2       14 UNK        -0.5000 
     84 N          -0.8600  -26.8907  -48.6023 N.am      15 UNK        -0.5000 
     85 CA         -0.6792  -26.9176  -50.0572 C.3       15 UNK         0.1400 
     86 CB          0.4557  -25.9456  -50.4265 C.3       15 UNK        -0.1800 
     87 C          -1.9695  -26.5644  -50.8161 C.2       15 UNK         0.5000 
     88 O          -1.9232  -26.4147  -52.0381 O.2       15 UNK        -0.5000 
     89 N          -3.0872  -26.3939  -50.0921 N.am      16 UNK        -0.5000 
     90 CA         -4.3947  -25.9442  -50.5894 C.3       16 UNK         0.1400 
     91 CB         -5.0365  -27.0229  -51.4870 C.3       16 UNK        -0.1800 
     92 C          -4.3240  -24.5573  -51.2683 C.2       16 UNK         0.5000 
     93 O          -5.0259  -24.3118  -52.2488 O.2       16 UNK        -0.5000 
     94 N          -3.4323  -23.7004  -50.7476 N.am      17 UNK        -0.5000 
     95 CA         -3.0568  -22.3640  -51.2227 C.3       17 UNK         0.1400 
     96 CB         -4.2722  -21.4220  -51.3037 C.3       17 UNK        -0.1800 
     97 C          -2.2177  -22.3598  -52.5188 C.2       17 UNK         0.5000 
     98 O          -1.8738  -21.2821  -53.0031 O.2       17 UNK        -0.5000 
     99 N          -1.8722  -23.5485  -53.0410 N.am      18 UNK        -0.5000 
    100 CA        -1.0073  -23.8119  -54.1987 C.3       18 UNK         0.1400 
    101 CB         0.4417  -23.3857  -53.8838 C.3       18 UNK        -0.1800 
    102 C         -1.5049  -23.2304  -55.5433 C.2       18 UNK         0.5000 
    103 O         -0.7472  -23.2198  -56.5153 O.2       18 UNK        -0.5000 
    104 N         -2.7604  -22.7742  -55.5934 N.am      19 UNK        -0.5000 
    105 CA        -3.4058  -22.1117  -56.7205 C.3       19 UNK         0.1400 
    106 CB        -2.8183  -20.6982  -56.9120 C.3       19 UNK        -0.1800 
    107 C         -4.9122  -22.0306  -56.4378 C.2       19 UNK         0.5000 
    108 O         -5.3405  -22.2489  -55.3019 O.2       19 UNK        -0.5000 
    109 N         -5.6927  -21.6724  -57.4633 N.am      20 UNK        -0.5000 
    110 CA        -7.1398  -21.4497  -57.3871 C.3       20 UNK         0.1400 
    111 CB        -7.7569  -21.7531  -58.7650 C.3       20 UNK        -0.1800 
    112 C         -7.4846  -20.0299  -56.8794 C.2       20 UNK         0.5000 
    113 O         -8.3419  -19.3567  -57.4549 O.2       20 UNK        -0.5000 
    114 N         -6.8016  -19.5894  -55.8186 N.am      21 UNK        -0.5000 
    115 CA        -6.9504  -18.2926  -55.1686 C.3       21 UNK         0.1400 
    116 CB        -6.1946  -17.2135  -55.9652 C.3       21 UNK        -0.1800 
    117 C         -6.4048  -18.4012  -53.7381 C.2       21 UNK         0.5000 
    118 O         -5.5447  -19.2453  -53.4869 O.2       21 UNK        -0.5000 
    119 N         -6.9233  -17.5475  -52.8460 N.am      22 UNK        -0.5000 
    120 CA        -6.5777  -17.3939  -51.4171 C.3       22 UNK         0.1400 
    121 C         -6.6714  -18.6586  -50.5065 C.2       22 UNK         0.5000 
    122 N         -7.3227  -19.7332  -50.9320 N.am      22 UNK        -0.7600 
    123 O         -6.2023  -18.6480  -49.3720 O.2       22 UNK        -0.5000 
    124 C124       -5.3231  -16.5061  -51.1653 C.3       23 UNK        -0.0398 
    125 S125       -3.7005  -17.1919  -51.6568 S.3       23 UNK        -0.2404 
    126 C126       -2.9926  -17.6583  -50.0455 C.3       23 UNK        -0.0205 
    127 H127       -1.4412  -13.7480  -45.4503 H         1 UNK         0.0600 
    128 H128       -2.5266  -12.9213  -46.5608 H         1 UNK         0.0600 
    129 H129       -1.7298  -12.0137  -45.2681 H         1 UNK         0.0600 
    130 H130        0.8436  -13.7005  -45.8497 H         1 UNK         0.3000 
    131 H131        1.7072  -12.7121  -48.4746 H         1 UNK         0.0600 
    132 H132        3.7374  -13.9713  -48.1073 H         1 UNK         0.0800 
    133 H133        3.3925  -14.1975  -46.4145 H         1 UNK         0.0800 
    134 H134        1.0036  -14.6444  -49.5610 H         1 UNK         0.0800 
    135 H135        2.4379  -15.5005  -50.0880 H         1 UNK         0.0800 
    136 H136       -1.1508  -15.7351  -49.4821 H         1 UNK         0.1150 
    137 H137       -1.4773  -19.8080  -50.7658 H         1 UNK         0.1150 
    138 H138        2.3880  -18.0424  -50.1790 H         1 UNK         0.1150 
    139 H139        1.1594  -20.4937  -51.9824 H         1 UNK         0.0800 
    140 H140        2.2803  -20.3442  -50.6504 H         1 UNK         0.0800 
    141 H141       -0.2307  -20.5632  -48.2311 H         1 UNK         0.0800 
    142 H142        1.4259  -21.0806  -48.0598 H         1 UNK         0.0800 
    143 H143        0.6373  -23.4388  -47.6650 H         1 UNK         0.0600 
    144 H144        0.4057  -21.3123  -45.8126 H         1 UNK         0.3000 
    145 H145       -0.3040  -23.3485  -42.9282 H         1 UNK         0.0600 
    146 H146        1.6772  -22.0948  -42.1575 H         1 UNK         0.0600 
    147 H147        2.1673  -23.3097  -43.3279 H         1 UNK         0.0600 
    148 H148        2.0684  -21.6198  -43.8085 H         1 UNK         0.0600 
    149 H149       -0.0879  -20.5362  -43.1739 H         1 UNK         0.3000 
    150 H150       -3.5523  -19.8683  -43.9060 H         1 UNK         0.0600 
    151 H151       -3.3273  -20.0913  -41.4420 H         1 UNK         0.0600 
    152 H152       -3.1606  -18.4100  -41.9276 H         1 UNK         0.0600 
    153 H153       -1.7341  -19.3497  -41.4948 H         1 UNK         0.0600 
    154 H154       -1.3693  -18.0868  -43.6630 H         1 UNK         0.3000 
    155 H155       -0.2994  -18.1371  -47.0887 H         1 UNK         0.0600 
    156 H156       -1.7120  -16.0768  -45.3148 H         1 UNK         0.0600 
    157 H157       -0.7192  -15.7210  -46.7318 H         1 UNK         0.0600 
    158 H158       -2.2363  -16.5830  -46.9149 H         1 UNK         0.0600 
    159 H159        0.6331  -16.7546  -44.7548 H         1 UNK         0.3000 
    160 H160        3.0823  -19.1760  -43.7998 H         1 UNK         0.0600 
    161 H161        3.3205  -16.3602  -44.9808 H         1 UNK         0.0600 
    162 H162        4.0923  -17.7963  -45.6373 H         1 UNK         0.0600 
    163 H163        4.5458  -17.2119  -44.0433 H         1 UNK         0.0600 
    164 H164        2.2989  -16.6052  -42.7693 H         1 UNK         0.3000 
    165 H165       -0.1428  -17.7907  -40.4732 H         1 UNK         0.0600 
    166 H166        1.3999  -16.8609  -38.7722 H         1 UNK         0.0600 
    167 H167        1.9925  -18.4157  -39.3334 H         1 UNK         0.0600 
    168 H168        2.7470  -16.9340  -39.9091 H         1 UNK         0.0600 
    169 H169        1.0951  -15.2566  -40.7145 H         1 UNK         0.3000 
    170 H170       -0.8633  -13.8969  -43.3225 H         1 UNK         0.0600 
    171 H171       -2.4041  -13.8031  -41.3642 H         1 UNK         0.0600 
    172 H172       -1.0500  -13.4385  -40.3005 H         1 UNK         0.0600 
    173 H173       -1.5249  -12.2945  -41.5562 H         1 UNK         0.0600 
    174 H174        1.0124  -12.7367  -41.5059 H         1 UNK         0.3000 
    175 H175        3.3469  -13.0724  -41.6925 H         1 UNK         0.0600 
    176 H176        5.3420  -13.2489  -43.0775 H         1 UNK         0.0600 
    177 H177        4.3879  -13.5548  -44.5201 H         1 UNK         0.0600 
    178 H178        4.4125  -14.7317  -43.2140 H         1 UNK         0.0600 
    179 H179        3.5383  -11.3237  -44.0521 H         1 UNK         0.3000 
    180 H180        1.9716   -8.5810  -42.5048 H         1 UNK         0.0600 
    181 H181        5.0151   -8.9491  -42.5018 H         1 UNK         0.0600 
    182 H182        4.0370   -8.4922  -41.1124 H         1 UNK         0.0600 
    183 H183        4.1593   -7.4063  -42.4871 H         1 UNK         0.0600 
    184 H184        3.8818   -8.8686  -44.6751 H         1 UNK         0.3000 
    185 H185        1.4915   -8.4589  -47.0837 H         1 UNK         0.0600 
    186 H186        3.7688   -7.5720  -46.6236 H         1 UNK         0.0600 
    187 H187        4.4415   -9.1989  -46.6222 H         1 UNK         0.0600 
    188 H188        3.7518   -8.5285  -48.0926 H         1 UNK         0.0600 
    189 H189        1.1352  -10.5443  -47.7496 H         1 UNK         0.3000 
    190 H190       -2.2425  -21.4789  -46.7240 H         1 UNK         0.3000 
    191 H191       -4.1307  -22.7024  -48.4053 H         1 UNK         0.0600 
    192 H192       -4.5623  -20.6033  -47.2067 H         1 UNK         0.0600 
    193 H193       -5.7981  -21.7842  -46.8052 H         1 UNK         0.0600 
    194 H194       -4.5144  -21.4368  -45.6537 H         1 UNK         0.0600 
    195 H195       -2.9990  -23.7090  -45.1710 H         1 UNK         0.3000 
    196 H196       -4.8266  -25.9256  -44.9314 H         1 UNK         0.0600 
    197 H197       -3.3989  -26.4959  -42.9595 H         1 UNK         0.0600 
    198 H198       -3.8880  -24.8079  -42.9491 H         1 UNK         0.0600 
    199 H199       -2.2497  -25.2453  -43.4218 H         1 UNK         0.0600 
    200 H200       -1.2691  -25.7697  -45.6140 H         1 UNK         0.3000 
    201 H201       -1.1438  -28.6559  -45.8226 H         1 UNK         0.0600 
    202 H202        0.6051  -27.2945  -44.6887 H         1 UNK         0.0600 
    203 H203        1.0171  -26.5269  -46.2215 H         1 UNK         0.0600 
    204 H204        1.2840  -28.2507  -45.9976 H         1 UNK         0.0600 
    205 H205       -1.0151  -25.9743  -48.1941 H         1 UNK         0.3000 
    206 H206       -0.3857  -27.9138  -50.3934 H         1 UNK         0.0600 
    207 H207        1.3730  -26.1874  -49.8897 H         1 UNK         0.0600 
    208 H208        0.6834  -25.9924  -51.4920 H         1 UNK         0.0600 
    209 H209        0.1944  -24.9134  -50.1945 H         1 UNK         0.0600 
    210 H210       -3.0158  -26.5205  -49.0922 H         1 UNK         0.3000 
    211 H211       -5.0363  -25.8251  -49.7168 H         1 UNK         0.0600 
    212 H212       -4.4885  -27.1544  -52.4204 H         1 UNK         0.0600 
    213 H213       -6.0617  -26.7559  -51.7457 H         1 UNK         0.0600 
    214 H214       -5.0720  -27.9871  -50.9799 H         1 UNK         0.0600 
    215 H215       -2.8770  -24.0322  -49.9632 H         1 UNK         0.3000 
    216 H216       -2.4044  -21.9636  -50.4481 H         1 UNK         0.0600 
    217 H217       -3.9557  -20.3959  -51.4928 H         1 UNK         0.0600 
    218 H218       -4.8373  -21.4161  -50.3724 H         1 UNK         0.0600 
    219 H219       -4.9510  -21.6974  -52.1111 H         1 UNK         0.0600 
    220 H220       -2.2038  -24.3833  -52.5712 H         1 UNK         0.3000 
    221 H221       -1.0092  -24.8952  -54.3258 H         1 UNK         0.0600 
    222 H222        0.5353  -22.3021  -53.8066 H         1 UNK         0.0600 
    223 H223        0.7847  -23.8178  -52.9436 H         1 UNK         0.0600 
    224 H224        1.1289  -23.7187  -54.6622 H         1 UNK         0.0600 
    225 H225       -3.3448  -22.8390  -54.7680 H         1 UNK         0.3000 
    226 H226       -3.2517  -22.7076  -57.6221 H         1 UNK         0.0600 
    227 H227       -1.7541  -20.7335  -57.1441 H         1 UNK         0.0600 
    228 H228       -3.3056  -20.1723  -57.7337 H         1 UNK         0.0600 
    229 H229       -2.9431  -20.0912  -56.0138 H         1 UNK         0.0600 
    230 H230       -5.2626  -21.4731  -58.3552 H         1 UNK         0.3000 
    231 H231       -7.5718  -22.1540  -56.6729 H         1 UNK         0.0600 
    232 H232       -7.3900  -21.0678  -59.5300 H         1 UNK         0.0600 
    233 H233       -8.8437  -21.6654  -58.7370 H         1 UNK         0.0600 
    234 H234       -7.5252  -22.7691  -59.0853 H         1 UNK         0.0600 
    235 H235       -6.1476  -20.2138  -55.3553 H         1 UNK         0.3000 
    236 H236       -8.0112  -18.0378  -55.1190 H         1 UNK         0.0600 
    237 H237       -6.5961  -17.1082  -56.9731 H         1 UNK         0.0600 
    238 H238       -6.2760  -16.2396  -55.4810 H         1 UNK         0.0600 
    239 H239       -5.1333  -17.4508  -56.0503 H         1 UNK         0.0600 
    240 H240       -7.6406  -16.9145  -53.1699 H         1 UNK         0.3000 
    241 H241       -7.4094  -16.7965  -51.0419 H         1 UNK         0.0600 
    242 H242       -7.6993  -19.7671  -51.8648 H         1 UNK         0.3800 
    243 H243       -7.3990  -20.5353  -50.3285 H         1 UNK         0.3800 
    244 H244       -5.4448  -15.5697  -51.7109 H         1 UNK         0.0800 
    245 H245       -5.2874  -16.2096  -50.1163 H         1 UNK         0.0800 
    246 H246       -3.4218  -18.6078  -49.7217 H         1 UNK         0.0800 
    247 H247       -3.2694  -16.9243  -49.2879 H         1 UNK         0.0800 
@<TRIPOS>BOND
     1    1    2 1    
     2    1  127 1    
     3    1  128 1    
     4    1  129 1    
     5    2    3 2    
     6    2    4 am   BACKBONE|DICT|INTERRES
     7    4    5 1    
     8    4  130 1    
     9    5    6 1    
    10    5   65 1    
    11    5  131 1    
    12    6    7 1    
    13    6  132 1    
    14    6  133 1    
    15    7    8 1    
    16    8    9 1    
    17    8  134 1    
    18    8  135 1    
    19    9   10 ar   
    20    9   14 ar   
    21   10   11 ar   
    22   10  136 1    
    23   11   12 ar   
    24   11  126 1    
    25   12   13 ar   
    26   12  137 1    
    27   13   14 ar   
    28   13   15 1    
    29   14  138 1    
    30   15   16 1    
    31   15  139 1    
    32   15  140 1    
    33   16   17 1    
    34   17   18 1    
    35   17  141 1    
    36   17  142 1    
    37   18   19 1    
    38   18   67 1    
    39   18  143 1    
    40   19   20 am   BACKBONE|DICT|INTERRES
    41   19  144 1    
    42   20   21 2    
    43   20   22 1    
    44   22   23 1    
    45   22   24 1    
    46   22  145 1    
    47   23  146 1    
    48   23  147 1    
    49   23  148 1    
    50   24   25 am   BACKBONE|DICT|INTERRES
    51   24  149 1    
    52   25   26 2    
    53   25   27 1    
    54   27   28 1    
    55   27   29 1    
    56   27  150 1    
    57   28  151 1    
    58   28  152 1    
    59   28  153 1    
    60   29   30 am   BACKBONE|DICT|INTERRES
    61   29  154 1    
    62   30   31 2    
    63   30   32 1    
    64   32   33 1    
    65   32   34 1    
    66   32  155 1    
    67   33  156 1    
    68   33  157 1    
    69   33  158 1    
    70   34   35 am   BACKBONE|DICT|INTERRES
    71   34  159 1    
    72   35   36 2    
    73   35   37 1    
    74   37   38 1    
    75   37   39 1    
    76   37  160 1    
    77   38  161 1    
    78   38  162 1    
    79   38  163 1    
    80   39   40 am   BACKBONE|DICT|INTERRES
    81   39  164 1    
    82   40   41 2    
    83   40   42 1    
    84   42   43 1    
    85   42   44 1    
    86   42  165 1    
    87   43  166 1    
    88   43  167 1    
    89   43  168 1    
    90   44   45 am   BACKBONE|DICT|INTERRES
    91   44  169 1    
    92   45   46 2    
    93   45   47 1    
    94   47   48 1    
    95   47   49 1    
    96   47  170 1    
    97   48  171 1    
    98   48  172 1    
    99   48  173 1    
   100   49   50 am   BACKBONE|DICT|INTERRES
   101   49  174 1    
   102   50   51 2    
   103   50   52 1    
   104   52   53 1    
   105   52   54 1    
   106   52  175 1    
   107   53  176 1    
   108   53  177 1    
   109   53  178 1    
   110   54   55 am   BACKBONE|DICT|INTERRES
   111   54  179 1    
   112   55   56 2    
   113   55   57 1    
   114   57   58 1    
   115   57   59 1    
   116   57  180 1    
   117   58  181 1    
   118   58  182 1    
   119   58  183 1    
   120   59   60 am   BACKBONE|DICT|INTERRES
   121   59  184 1    
   122   60   61 2    
   123   60   62 1    
   124   62   63 1    
   125   62   64 1    
   126   62  185 1    
   127   63  186 1    
   128   63  187 1    
   129   63  188 1    
   130   64   65 am   BACKBONE|DICT|INTERRES
   131   64  189 1    
   132   65   66 2    
   133   67   68 2    
   134   67   69 am   BACKBONE|DICT|INTERRES
   135   69   70 1    
   136   69  190 1    
   137   70   71 1    
   138   70   72 1    
   139   70  191 1    
   140   71  192 1    
   141   71  193 1    
   142   71  194 1    
   143   72   73 2    
   144   72   74 am   BACKBONE|DICT|INTERRES
   145   74   75 1    
   146   74  195 1    
   147   75   76 1    
   148   75   77 1    
   149   75  196 1    
   150   76  197 1    
   151   76  198 1    
   152   76  199 1    
   153   77   78 2    
   154   77   79 am   BACKBONE|DICT|INTERRES
   155   79   80 1    
   156   79  200 1    
   157   80   81 1    
   158   80   82 1    
   159   80  201 1    
   160   81  202 1    
   161   81  203 1    
   162   81  204 1    
   163   82   83 2    
   164   82   84 am   BACKBONE|DICT|INTERRES
   165   84   85 1    
   166   84  205 1    
   167   85   86 1    
   168   85   87 1    
   169   85  206 1    
   170   86  207 1    
   171   86  208 1    
   172   86  209 1    
   173   87   88 2    
   174   87   89 am   BACKBONE|DICT|INTERRES
   175   89   90 1    
   176   89  210 1    
   177   90   91 1    
   178   90   92 1    
   179   90  211 1    
   180   91  212 1    
   181   91  213 1    
   182   91  214 1    
   183   92   93 2    
   184   92   94 am   BACKBONE|DICT|INTERRES
   185   94   95 1    
   186   94  215 1    
   187   95   96 1    
   188   95   97 1    
   189   95  216 1    
   190   96  217 1    
   191   96  218 1    
   192   96  219 1    
   193   97   98 2    
   194   97   99 am   BACKBONE|DICT|INTERRES
   195   99  100 1    
   196   99  220 1    
   197  100  101 1    
   198  100  102 1    
   199  100  221 1    
   200  101  222 1    
   201  101  223 1    
   202  101  224 1    
   203  102  103 2    
   204  102  104 am   BACKBONE|DICT|INTERRES
   205  104  105 1    
   206  104  225 1    
   207  105  106 1    
   208  105  107 1    
   209  105  226 1    
   210  106  227 1    
   211  106  228 1    
   212  106  229 1    
   213  107  108 2    
   214  107  109 am   BACKBONE|DICT|INTERRES
   215  109  110 1    
   216  109  230 1    
   217  110  111 1    
   218  110  112 1    
   219  110  231 1    
   220  111  232 1    
   221  111  233 1    
   222  111  234 1    
   223  112  113 2    
   224  112  114 am   BACKBONE|DICT|INTERRES
   225  114  115 1    
   226  114  235 1    
   227  115  116 1    
   228  115  117 1    
   229  115  236 1    
   230  116  237 1    
   231  116  238 1    
   232  116  239 1    
   233  117  118 2    
   234  117  119 am   BACKBONE|DICT|INTERRES
   235  119  120 1    
   236  119  240 1    
   237  120  121 1    
   238  120  124 1    
   239  120  241 1    
   240  121  122 am   BACKBONE|DICT|INTERRES
   241  121  123 2    
   242  122  242 1    
   243  122  243 1    
   244  124  125 1    
   245  124  244 1    
   246  124  245 1    
   247  125  126 1    
   248  126  246 1    
   249  126  247 1    
@<TRIPOS>SUBSTRUCTURE
     1 UNK         1 GROUP             0       ****    0 ROOT    
