@<TRIPOS>MOLECULE
3R540
247   249    1
SMALL
USER_CHARGES


@<TRIPOS>ATOM
      1 CA         -0.8554  -12.1527  -49.1817 C.3       0 UNK        -0.1800 
      2 C          -0.4827  -13.3917  -48.3820 C.2       0 UNK         0.5000 
      3 O          -0.8276  -13.4854  -47.2051 O.2       0 UNK        -0.5000 
      4 N           0.1978  -14.3526  -49.0193 N.am      1 UNK        -0.5000 
      5 CA          0.6597  -15.6183  -48.4292 C.3       1 UNK         0.1400 
      6 C6          1.5624  -16.4184  -49.4028 C.3       23 UNK        -0.0398 
      7 S7          0.8097  -16.6825  -51.0494 S.3       23 UNK        -0.2404 
      8 C8          2.2709  -17.1041  -52.0452 C.3       23 UNK        -0.0205 
      9 C9          2.7140  -18.5378  -51.8049 C.ar      23 UNK        -0.0193 
     10 C10         2.0848  -19.5824  -52.4860 C.ar      23 UNK        -0.1150 
     11 C11         2.4905  -20.9055  -52.2934 C.ar      23 UNK        -0.0193 
     12 C12         3.5286  -21.1794  -51.3996 C.ar      23 UNK        -0.1150 
     13 C13         4.1510  -20.1453  -50.6928 C.ar      23 UNK        -0.0193 
     14 C14         3.7475  -18.8242  -50.9089 C.ar      23 UNK        -0.1150 
     15 C15         5.2512  -20.4554  -49.6875 C.3       23 UNK        -0.0205 
     16 S16         4.6744  -20.2745  -47.9678 S.3       23 UNK        -0.2404 
     17 C17         3.4233  -21.5994  -47.8460 C.3       23 UNK        -0.0398 
     18 CA          3.8573  -22.7513  -46.9096 C.3       11 UNK         0.1400 
     19 N           3.9522  -22.3088  -45.5169 N.am      11 UNK        -0.5000 
     20 C           4.6649  -22.9296  -44.5701 C.2       10 UNK         0.5000 
     21 O           5.3387  -23.9408  -44.7710 O.2       10 UNK        -0.5000 
     22 CA          4.6015  -22.3253  -43.1567 C.3       10 UNK         0.1400 
     23 CB          5.5141  -21.0937  -43.0553 C.3       10 UNK        -0.1800 
     24 N           3.2412  -21.9704  -42.7431 N.am      10 UNK        -0.5000 
     25 C           2.2594  -22.8591  -42.5276 C.2       9 UNK         0.5000 
     26 O           2.3909  -24.0738  -42.6786 O.2       9 UNK        -0.5000 
     27 CA          0.8979  -22.3054  -42.0717 C.3       9 UNK         0.1400 
     28 CB          0.9251  -21.9666  -40.5737 C.3       9 UNK        -0.1800 
     29 N           0.4822  -21.1279  -42.8285 N.am      9 UNK        -0.5000 
     30 C           0.1280  -21.1365  -44.1212 C.2       8 UNK         0.5000 
     31 O           0.0755  -22.1478  -44.8219 O.2       8 UNK        -0.5000 
     32 CA         -0.1795  -19.7704  -44.7519 C.3       8 UNK         0.1400 
     33 CB         -1.5698  -19.2800  -44.3250 C.3       8 UNK        -0.1800 
     34 N           0.8144  -18.7559  -44.4119 N.am      8 UNK        -0.5000 
     35 C           2.1296  -18.8418  -44.6498 C.2       7 UNK         0.5000 
     36 O           2.6742  -19.8081  -45.1803 O.2       7 UNK        -0.5000 
     37 CA          2.9896  -17.6725  -44.1481 C.3       7 UNK         0.1400 
     38 CB          2.8930  -16.4735  -45.1032 C.3       7 UNK        -0.1800 
     39 N           2.6091  -17.2657  -42.7950 N.am      7 UNK        -0.5000 
     40 C           2.7885  -18.0204  -41.7011 C.2       6 UNK         0.5000 
     41 O           3.3196  -19.1308  -41.7115 O.2       6 UNK        -0.5000 
     42 CA          2.2419  -17.4542  -40.3790 C.3       6 UNK         0.1400 
     43 CB          3.1776  -16.3731  -39.8171 C.3       6 UNK        -0.1800 
     44 N           0.8925  -16.9073  -40.5218 N.am      6 UNK        -0.5000 
     45 C          -0.1918  -17.6417  -40.8067 C.2       5 UNK         0.5000 
     46 O          -0.1717  -18.8631  -40.9607 O.2       5 UNK        -0.5000 
     47 CA         -1.5178  -16.8777  -40.9795 C.3       5 UNK         0.1400 
     48 CB         -2.1930  -16.6602  -39.6171 C.3       5 UNK        -0.1800 
     49 N          -1.3941  -15.5890  -41.6690 N.am      5 UNK        -0.5000 
     50 C          -0.8785  -15.4102  -42.8927 C.2       4 UNK         0.5000 
     51 O          -0.3342  -16.2997  -43.5464 O.2       4 UNK        -0.5000 
     52 CA         -1.0031  -14.0025  -43.4965 C.3       4 UNK         0.1400 
     53 CB          0.3579  -13.4795  -43.9831 C.3       4 UNK        -0.1800 
     54 N          -1.9389  -14.0160  -44.6172 N.am      4 UNK        -0.5000 
     55 C          -3.2671  -14.1503  -44.5049 C.2       3 UNK         0.5000 
     56 O          -3.8597  -14.2122  -43.4269 O.2       3 UNK        -0.5000 
     57 CA         -4.0691  -14.2239  -45.8140 C.3       3 UNK         0.1400 
     58 CB         -4.2733  -12.8219  -46.4094 C.3       3 UNK        -0.1800 
     59 N          -3.4180  -15.0785  -46.8053 N.am      3 UNK        -0.5000 
     60 C          -3.5872  -16.4052  -46.8909 C.2       2 UNK         0.5000 
     61 O          -4.2956  -17.0506  -46.1189 O.2       2 UNK        -0.5000 
     62 CA         -2.8659  -17.1313  -48.0434 C.3       2 UNK         0.1400 
     63 CB         -3.8028  -17.2909  -49.2485 C.3       2 UNK        -0.1800 
     64 N          -1.6636  -16.4288  -48.4879 N.am      2 UNK        -0.5000 
     65 C          -0.4780  -16.5009  -47.8712 C.2       1 UNK         0.5000 
     66 O          -0.2627  -17.2085  -46.8914 O.2       1 UNK        -0.5000 
     67 C           2.8954  -23.9452  -47.0791 C.2       11 UNK         0.5000 
     68 O           3.0110  -24.6596  -48.0755 O.2       11 UNK        -0.5000 
     69 N           1.9496  -24.1125  -46.1396 N.am      12 UNK        -0.5000 
     70 CA          0.7845  -25.0037  -46.2069 C.3       12 UNK         0.1400 
     71 CB          1.2103  -26.4864  -46.1858 C.3       12 UNK        -0.1800 
     72 C          -0.1172  -24.6339  -47.4050 C.2       12 UNK         0.5000 
     73 O          -0.4951  -25.4974  -48.1990 O.2       12 UNK        -0.5000 
     74 N          -0.3959  -23.3303  -47.5297 N.am      13 UNK        -0.5000 
     75 CA         -1.0328  -22.7041  -48.6878 C.3       13 UNK         0.1400 
     76 CB          0.0532  -22.1135  -49.6094 C.3       13 UNK        -0.1800 
     77 C          -2.0686  -21.6613  -48.2370 C.2       13 UNK         0.5000 
     78 O          -2.1362  -20.5719  -48.8055 O.2       13 UNK        -0.5000 
     79 N          -2.8565  -22.0129  -47.2104 N.am      14 UNK        -0.5000 
     80 CA         -3.9111  -21.1693  -46.6413 C.3       14 UNK         0.1400 
     81 CB         -4.4498  -21.8259  -45.3608 C.3       14 UNK        -0.1800 
     82 C          -5.0613  -20.8765  -47.6198 C.2       14 UNK         0.5000 
     83 O          -5.6069  -19.7753  -47.5899 O.2       14 UNK        -0.5000 
     84 N          -5.4065  -21.8657  -48.4603 N.am      15 UNK        -0.5000 
     85 CA         -6.3276  -21.7839  -49.6048 C.3       15 UNK         0.1400 
     86 CB         -5.6314  -21.0352  -50.7595 C.3       15 UNK        -0.1800 
     87 C          -7.7205  -21.1915  -49.2872 C.2       15 UNK         0.5000 
     88 O          -8.3226  -20.5508  -50.1486 O.2       15 UNK        -0.5000 
     89 N          -8.1878  -21.3674  -48.0409 N.am      16 UNK        -0.5000 
     90 CA         -9.4004  -20.7693  -47.4617 C.3       16 UNK         0.1400 
     91 CB        -10.6624  -21.4030  -48.0835 C.3       16 UNK        -0.1800 
     92 C          -9.4185  -19.2211  -47.5221 C.2       16 UNK         0.5000 
     93 O         -10.4924  -18.6226  -47.6019 O.2       16 UNK        -0.5000 
     94 N          -8.2241  -18.6083  -47.5046 N.am      17 UNK        -0.5000 
     95 CA         -7.9351  -17.1797  -47.6678 C.3       17 UNK         0.1400 
     96 CB         -8.5617  -16.3447  -46.5318 C.3       17 UNK        -0.1800 
     97 C          -8.2588  -16.6224  -49.0734 C.2       17 UNK         0.5000 
     98 O          -8.3167  -15.4023  -49.2389 O.2       17 UNK        -0.5000 
     99 N          -8.4339  -17.5056  -50.0671 N.am      18 UNK        -0.5000 
    100 CA        -8.5356  -17.1623  -51.4859 C.3       18 UNK         0.1400 
    101 CB        -9.4646  -18.1771  -52.1787 C.3       18 UNK        -0.1800 
    102 C         -7.1312  -17.1191  -52.1261 C.2       18 UNK         0.5000 
    103 O         -6.1272  -17.0547  -51.4142 O.2       18 UNK        -0.5000 
    104 N         -7.0694  -17.1459  -53.4640 N.am      19 UNK        -0.5000 
    105 CA        -5.8209  -17.2310  -54.2244 C.3       19 UNK         0.1400 
    106 CB        -6.1226  -17.0368  -55.7183 C.3       19 UNK        -0.1800 
    107 C         -5.1078  -18.5756  -53.9803 C.2       19 UNK         0.5000 
    108 O         -5.7489  -19.6262  -54.0649 O.2       19 UNK        -0.5000 
    109 N         -3.8048  -18.5154  -53.6799 N.am      20 UNK        -0.5000 
    110 CA        -2.9627  -19.6810  -53.4151 C.3       20 UNK         0.1400 
    111 CB        -1.6320  -19.2120  -52.8075 C.3       20 UNK        -0.1800 
    112 C         -2.7181  -20.5205  -54.6828 C.2       20 UNK         0.5000 
    113 O         -2.6409  -19.9694  -55.7845 O.2       20 UNK        -0.5000 
    114 N         -2.5553  -21.8372  -54.4931 N.am      21 UNK        -0.5000 
    115 CA        -2.3872  -22.8419  -55.5516 C.3       21 UNK         0.1400 
    116 CB        -2.3595  -24.2360  -54.9058 C.3       21 UNK        -0.1800 
    117 C         -1.1468  -22.6433  -56.4470 C.2       21 UNK         0.5000 
    118 O         -1.1325  -23.1291  -57.5787 O.2       21 UNK        -0.5000 
    119 N         -0.1422  -21.9267  -55.9311 N.am      22 UNK        -0.5000 
    120 CA         1.0662  -21.5149  -56.6606 C.3       22 UNK         0.1400 
    121 C          0.8299  -20.3525  -57.6722 C.2       22 UNK         0.5000 
    122 N         -0.3151  -19.6774  -57.6698 N.am      22 UNK        -0.7600 
    123 O          1.7050  -20.0604  -58.4825 O.2       22 UNK        -0.5000 
    124 C124        2.2307  -21.1682  -55.6967 C.3       23 UNK        -0.0398 
    125 S125        2.6569  -22.5280  -54.5514 S.3       23 UNK        -0.2404 
    126 C126        1.7910  -22.0433  -53.0225 C.3       23 UNK        -0.0205 
    127 H127       -0.4166  -11.2665  -48.7234 H         1 UNK         0.0600 
    128 H128       -1.9382  -12.0289  -49.1970 H         1 UNK         0.0600 
    129 H129       -0.5041  -12.2136  -50.2119 H         1 UNK         0.0600 
    130 H130        0.4304  -14.2285  -49.9947 H         1 UNK         0.3000 
    131 H131        1.2753  -15.3471  -47.5690 H         1 UNK         0.0600 
    132 H132        2.5001  -15.8778  -49.5369 H         1 UNK         0.0800 
    133 H133        1.8388  -17.3856  -48.9774 H         1 UNK         0.0800 
    134 H134        2.0244  -16.9733  -53.0999 H         1 UNK         0.0800 
    135 H135        3.0829  -16.4060  -51.8364 H         1 UNK         0.0800 
    136 H136        1.2762  -19.3581  -53.1654 H         1 UNK         0.1150 
    137 H137        3.8394  -22.2029  -51.2425 H         1 UNK         0.1150 
    138 H138        4.2297  -18.0224  -50.3675 H         1 UNK         0.1150 
    139 H139        5.6399  -21.4644  -49.8340 H         1 UNK         0.0800 
    140 H140        6.0901  -19.7778  -49.8520 H         1 UNK         0.0800 
    141 H141        2.4891  -21.1551  -47.4988 H         1 UNK         0.0800 
    142 H142        3.2119  -21.9837  -48.8430 H         1 UNK         0.0800 
    143 H143        4.8436  -23.0929  -47.2315 H         1 UNK         0.0600 
    144 H144        3.4615  -21.4453  -45.2870 H         1 UNK         0.3000 
    145 H145        4.9755  -23.0779  -42.4595 H         1 UNK         0.0600 
    146 H146        5.5638  -20.7241  -42.0311 H         1 UNK         0.0600 
    147 H147        5.1621  -20.2790  -43.6892 H         1 UNK         0.0600 
    148 H148        6.5325  -21.3339  -43.3632 H         1 UNK         0.0600 
    149 H149        3.0644  -20.9859  -42.5714 H         1 UNK         0.3000 
    150 H150        0.1513  -23.0868  -42.2287 H         1 UNK         0.0600 
    151 H151        1.2279  -22.8309  -39.9813 H         1 UNK         0.0600 
    152 H152       -0.0603  -21.6601  -40.2223 H         1 UNK         0.0600 
    153 H153        1.6228  -21.1565  -40.3569 H         1 UNK         0.0600 
    154 H154        0.4624  -20.2481  -42.3225 H         1 UNK         0.3000 
    155 H155       -0.1744  -19.8940  -45.8368 H         1 UNK         0.0600 
    156 H156       -1.8839  -18.4191  -44.9157 H         1 UNK         0.0600 
    157 H157       -1.5859  -18.9890  -43.2767 H         1 UNK         0.0600 
    158 H158       -2.3187  -20.0589  -44.4470 H         1 UNK         0.0600 
    159 H159        0.4506  -17.8887  -44.0219 H         1 UNK         0.3000 
    160 H160        4.0296  -18.0047  -44.1235 H         1 UNK         0.0600 
    161 H161        1.8682  -16.1128  -45.1901 H         1 UNK         0.0600 
    162 H162        3.2263  -16.7489  -46.1047 H         1 UNK         0.0600 
    163 H163        3.5162  -15.6451  -44.7666 H         1 UNK         0.0600 
    164 H164        2.0950  -16.4017  -42.7092 H         1 UNK         0.3000 
    165 H165        2.1996  -18.2746  -39.6592 H         1 UNK         0.0600 
    166 H166        2.8395  -16.0293  -38.8394 H         1 UNK         0.0600 
    167 H167        4.1895  -16.7607  -39.6920 H         1 UNK         0.0600 
    168 H168        3.2371  -15.5060  -40.4758 H         1 UNK         0.0600 
    169 H169        0.7853  -15.9092  -40.4182 H         1 UNK         0.3000 
    170 H170       -2.1789  -17.5020  -41.5826 H         1 UNK         0.0600 
    171 H171       -2.3179  -17.6056  -39.0873 H         1 UNK         0.0600 
    172 H172       -1.6062  -16.0001  -38.9771 H         1 UNK         0.0600 
    173 H173       -3.1844  -16.2219  -39.7333 H         1 UNK         0.0600 
    174 H174       -1.8375  -14.8023  -41.2170 H         1 UNK         0.3000 
    175 H175       -1.3767  -13.3157  -42.7341 H         1 UNK         0.0600 
    176 H176        0.7451  -14.0738  -44.8109 H         1 UNK         0.0600 
    177 H177        0.2800  -12.4481  -44.3273 H         1 UNK         0.0600 
    178 H178        1.0983  -13.5025  -43.1826 H         1 UNK         0.0600 
    179 H179       -1.5287  -13.9573  -45.5462 H         1 UNK         0.3000 
    180 H180       -5.0553  -14.6315  -45.5803 H         1 UNK         0.0600 
    181 H181       -4.8906  -12.8620  -47.3070 H         1 UNK         0.0600 
    182 H182       -3.3261  -12.3511  -46.6749 H         1 UNK         0.0600 
    183 H183       -4.7770  -12.1665  -45.6978 H         1 UNK         0.0600 
    184 H184       -2.7499  -14.6327  -47.4182 H         1 UNK         0.3000 
    185 H185       -2.5928  -18.1270  -47.6879 H         1 UNK         0.0600 
    186 H186       -3.3541  -17.9215  -50.0162 H         1 UNK         0.0600 
    187 H187       -4.7443  -17.7582  -48.9616 H         1 UNK         0.0600 
    188 H188       -4.0461  -16.3290  -49.7009 H         1 UNK         0.0600 
    189 H189       -1.7469  -15.8421  -49.3049 H         1 UNK         0.3000 
    190 H190        1.9365  -23.4568  -45.3694 H         1 UNK         0.3000 
    191 H191        0.1982  -24.8194  -45.3057 H         1 UNK         0.0600 
    192 H192        0.3394  -27.1385  -46.1129 H         1 UNK         0.0600 
    193 H193        1.8481  -26.6987  -45.3276 H         1 UNK         0.0600 
    194 H194        1.7544  -26.7706  -47.0867 H         1 UNK         0.0600 
    195 H195       -0.1119  -22.7108  -46.7766 H         1 UNK         0.3000 
    196 H196       -1.5878  -23.4527  -49.2565 H         1 UNK         0.0600 
    197 H197       -0.3832  -21.7129  -50.5250 H         1 UNK         0.0600 
    198 H198        0.7801  -22.8715  -49.9017 H         1 UNK         0.0600 
    199 H199        0.5941  -21.3008  -49.1236 H         1 UNK         0.0600 
    200 H200       -2.7212  -22.9212  -46.7905 H         1 UNK         0.3000 
    201 H201       -3.4666  -20.2069  -46.3838 H         1 UNK         0.0600 
    202 H202       -4.9345  -22.7802  -45.5702 H         1 UNK         0.0600 
    203 H203       -5.1851  -21.1835  -44.8743 H         1 UNK         0.0600 
    204 H204       -3.6527  -22.0104  -44.6405 H         1 UNK         0.0600 
    205 H205       -4.9159  -22.7433  -48.3643 H         1 UNK         0.3000 
    206 H206       -6.5052  -22.8089  -49.9327 H         1 UNK         0.0600 
    207 H207       -4.6642  -21.4825  -50.9860 H         1 UNK         0.0600 
    208 H208       -6.2263  -21.0712  -51.6730 H         1 UNK         0.0600 
    209 H209       -5.4657  -19.9841  -50.5177 H         1 UNK         0.0600 
    210 H210       -7.6108  -21.8929  -47.3997 H         1 UNK         0.3000 
    211 H211       -9.3906  -21.0268  -46.4018 H         1 UNK         0.0600 
    212 H212      -10.7764  -21.1310  -49.1333 H         1 UNK         0.0600 
    213 H213      -11.5630  -21.0771  -47.5619 H         1 UNK         0.0600 
    214 H214      -10.6295  -22.4906  -48.0205 H         1 UNK         0.0600 
    215 H215       -7.3901  -19.1914  -47.4673 H         1 UNK         0.3000 
    216 H216       -6.8522  -17.0944  -47.5667 H         1 UNK         0.0600 
    217 H217       -8.3061  -16.7546  -45.5547 H         1 UNK         0.0600 
    218 H218       -9.6484  -16.3046  -46.6078 H         1 UNK         0.0600 
    219 H219       -8.1960  -15.3176  -46.5551 H         1 UNK         0.0600 
    220 H220       -8.3442  -18.4950  -49.8633 H         1 UNK         0.3000 
    221 H221       -8.9794  -16.1705  -51.5910 H         1 UNK         0.0600 
    222 H222       -9.7421  -17.8423  -53.1784 H         1 UNK         0.0600 
    223 H223       -8.9920  -19.1548  -52.2795 H         1 UNK         0.0600 
    224 H224      -10.3908  -18.3111  -51.6193 H         1 UNK         0.0600 
    225 H225       -7.9250  -17.2285  -53.9925 H         1 UNK         0.3000 
    226 H226       -5.1696  -16.4172  -53.8982 H         1 UNK         0.0600 
    227 H227       -6.5836  -16.0669  -55.9060 H         1 UNK         0.0600 
    228 H228       -5.2066  -17.0813  -56.3090 H         1 UNK         0.0600 
    229 H229       -6.7944  -17.8081  -56.0972 H         1 UNK         0.0600 
    230 H230       -3.3459  -17.6171  -53.6568 H         1 UNK         0.3000 
    231 H231       -3.4740  -20.3032  -52.6792 H         1 UNK         0.0600 
    232 H232       -1.0024  -20.0617  -52.5431 H         1 UNK         0.0600 
    233 H233       -1.7934  -18.6405  -51.8931 H         1 UNK         0.0600 
    234 H234       -1.0704  -18.5839  -53.5002 H         1 UNK         0.0600 
    235 H235       -2.6187  -22.2006  -53.5534 H         1 UNK         0.3000 
    236 H236       -3.2634  -22.7825  -56.2004 H         1 UNK         0.0600 
    237 H237       -1.5182  -24.3440  -54.2199 H         1 UNK         0.0600 
    238 H238       -3.2760  -24.4331  -54.3494 H         1 UNK         0.0600 
    239 H239       -2.2677  -25.0165  -55.6624 H         1 UNK         0.0600 
    240 H240       -0.2504  -21.5611  -54.9993 H         1 UNK         0.3000 
    241 H241        1.3890  -22.3680  -57.2605 H         1 UNK         0.0600 
    242 H242       -0.4475  -18.9333  -58.3361 H         1 UNK         0.3800 
    243 H243       -1.0587  -19.8948  -57.0142 H         1 UNK         0.3800 
    244 H244        2.0044  -20.2620  -55.1378 H         1 UNK         0.0800 
    245 H245        3.1324  -20.9421  -56.2685 H         1 UNK         0.0800 
    246 H246        0.7578  -21.7768  -53.2438 H         1 UNK         0.0800 
    247 H247        1.7385  -22.9131  -52.3660 H         1 UNK         0.0800 
@<TRIPOS>BOND
     1    1    2 1    
     2    1  127 1    
     3    1  128 1    
     4    1  129 1    
     5    2    3 2    
     6    2    4 am   BACKBONE|DICT|INTERRES
     7    4    5 1    
     8    4  130 1    
     9    5    6 1    
    10    5   65 1    
    11    5  131 1    
    12    6    7 1    
    13    6  132 1    
    14    6  133 1    
    15    7    8 1    
    16    8    9 1    
    17    8  134 1    
    18    8  135 1    
    19    9   10 ar   
    20    9   14 ar   
    21   10   11 ar   
    22   10  136 1    
    23   11   12 ar   
    24   11  126 1    
    25   12   13 ar   
    26   12  137 1    
    27   13   14 ar   
    28   13   15 1    
    29   14  138 1    
    30   15   16 1    
    31   15  139 1    
    32   15  140 1    
    33   16   17 1    
    34   17   18 1    
    35   17  141 1    
    36   17  142 1    
    37   18   19 1    
    38   18   67 1    
    39   18  143 1    
    40   19   20 am   BACKBONE|DICT|INTERRES
    41   19  144 1    
    42   20   21 2    
    43   20   22 1    
    44   22   23 1    
    45   22   24 1    
    46   22  145 1    
    47   23  146 1    
    48   23  147 1    
    49   23  148 1    
    50   24   25 am   BACKBONE|DICT|INTERRES
    51   24  149 1    
    52   25   26 2    
    53   25   27 1    
    54   27   28 1    
    55   27   29 1    
    56   27  150 1    
    57   28  151 1    
    58   28  152 1    
    59   28  153 1    
    60   29   30 am   BACKBONE|DICT|INTERRES
    61   29  154 1    
    62   30   31 2    
    63   30   32 1    
    64   32   33 1    
    65   32   34 1    
    66   32  155 1    
    67   33  156 1    
    68   33  157 1    
    69   33  158 1    
    70   34   35 am   BACKBONE|DICT|INTERRES
    71   34  159 1    
    72   35   36 2    
    73   35   37 1    
    74   37   38 1    
    75   37   39 1    
    76   37  160 1    
    77   38  161 1    
    78   38  162 1    
    79   38  163 1    
    80   39   40 am   BACKBONE|DICT|INTERRES
    81   39  164 1    
    82   40   41 2    
    83   40   42 1    
    84   42   43 1    
    85   42   44 1    
    86   42  165 1    
    87   43  166 1    
    88   43  167 1    
    89   43  168 1    
    90   44   45 am   BACKBONE|DICT|INTERRES
    91   44  169 1    
    92   45   46 2    
    93   45   47 1    
    94   47   48 1    
    95   47   49 1    
    96   47  170 1    
    97   48  171 1    
    98   48  172 1    
    99   48  173 1    
   100   49   50 am   BACKBONE|DICT|INTERRES
   101   49  174 1    
   102   50   51 2    
   103   50   52 1    
   104   52   53 1    
   105   52   54 1    
   106   52  175 1    
   107   53  176 1    
   108   53  177 1    
   109   53  178 1    
   110   54   55 am   BACKBONE|DICT|INTERRES
   111   54  179 1    
   112   55   56 2    
   113   55   57 1    
   114   57   58 1    
   115   57   59 1    
   116   57  180 1    
   117   58  181 1    
   118   58  182 1    
   119   58  183 1    
   120   59   60 am   BACKBONE|DICT|INTERRES
   121   59  184 1    
   122   60   61 2    
   123   60   62 1    
   124   62   63 1    
   125   62   64 1    
   126   62  185 1    
   127   63  186 1    
   128   63  187 1    
   129   63  188 1    
   130   64   65 am   BACKBONE|DICT|INTERRES
   131   64  189 1    
   132   65   66 2    
   133   67   68 2    
   134   67   69 am   BACKBONE|DICT|INTERRES
   135   69   70 1    
   136   69  190 1    
   137   70   71 1    
   138   70   72 1    
   139   70  191 1    
   140   71  192 1    
   141   71  193 1    
   142   71  194 1    
   143   72   73 2    
   144   72   74 am   BACKBONE|DICT|INTERRES
   145   74   75 1    
   146   74  195 1    
   147   75   76 1    
   148   75   77 1    
   149   75  196 1    
   150   76  197 1    
   151   76  198 1    
   152   76  199 1    
   153   77   78 2    
   154   77   79 am   BACKBONE|DICT|INTERRES
   155   79   80 1    
   156   79  200 1    
   157   80   81 1    
   158   80   82 1    
   159   80  201 1    
   160   81  202 1    
   161   81  203 1    
   162   81  204 1    
   163   82   83 2    
   164   82   84 am   BACKBONE|DICT|INTERRES
   165   84   85 1    
   166   84  205 1    
   167   85   86 1    
   168   85   87 1    
   169   85  206 1    
   170   86  207 1    
   171   86  208 1    
   172   86  209 1    
   173   87   88 2    
   174   87   89 am   BACKBONE|DICT|INTERRES
   175   89   90 1    
   176   89  210 1    
   177   90   91 1    
   178   90   92 1    
   179   90  211 1    
   180   91  212 1    
   181   91  213 1    
   182   91  214 1    
   183   92   93 2    
   184   92   94 am   BACKBONE|DICT|INTERRES
   185   94   95 1    
   186   94  215 1    
   187   95   96 1    
   188   95   97 1    
   189   95  216 1    
   190   96  217 1    
   191   96  218 1    
   192   96  219 1    
   193   97   98 2    
   194   97   99 am   BACKBONE|DICT|INTERRES
   195   99  100 1    
   196   99  220 1    
   197  100  101 1    
   198  100  102 1    
   199  100  221 1    
   200  101  222 1    
   201  101  223 1    
   202  101  224 1    
   203  102  103 2    
   204  102  104 am   BACKBONE|DICT|INTERRES
   205  104  105 1    
   206  104  225 1    
   207  105  106 1    
   208  105  107 1    
   209  105  226 1    
   210  106  227 1    
   211  106  228 1    
   212  106  229 1    
   213  107  108 2    
   214  107  109 am   BACKBONE|DICT|INTERRES
   215  109  110 1    
   216  109  230 1    
   217  110  111 1    
   218  110  112 1    
   219  110  231 1    
   220  111  232 1    
   221  111  233 1    
   222  111  234 1    
   223  112  113 2    
   224  112  114 am   BACKBONE|DICT|INTERRES
   225  114  115 1    
   226  114  235 1    
   227  115  116 1    
   228  115  117 1    
   229  115  236 1    
   230  116  237 1    
   231  116  238 1    
   232  116  239 1    
   233  117  118 2    
   234  117  119 am   BACKBONE|DICT|INTERRES
   235  119  120 1    
   236  119  240 1    
   237  120  121 1    
   238  120  124 1    
   239  120  241 1    
   240  121  122 am   BACKBONE|DICT|INTERRES
   241  121  123 2    
   242  122  242 1    
   243  122  243 1    
   244  124  125 1    
   245  124  244 1    
   246  124  245 1    
   247  125  126 1    
   248  126  246 1    
   249  126  247 1    
@<TRIPOS>SUBSTRUCTURE
     1 UNK         1 GROUP             0       ****    0 ROOT    
