@<TRIPOS>MOLECULE
3R540
247   249    1
SMALL
USER_CHARGES


@<TRIPOS>ATOM
      1 CA          5.6653  -14.2101  -43.1108 C.3       0 UNK        -0.1800 
      2 C           4.7708  -13.4556  -44.0827 C.2       0 UNK         0.5000 
      3 O           4.0086  -12.5823  -43.6674 O.2       0 UNK        -0.5000 
      4 N           4.8714  -13.7714  -45.3799 N.am      1 UNK        -0.5000 
      5 CA          4.0788  -13.1713  -46.4628 C.3       1 UNK         0.1400 
      6 C6          4.3063  -13.8860  -47.8144 C.3       23 UNK        -0.0398 
      7 S7          3.7906  -15.6324  -47.7558 S.3       23 UNK        -0.2404 
      8 C8          3.4725  -15.9418  -49.5190 C.3       23 UNK        -0.0205 
      9 C9          2.8259  -17.2997  -49.7364 C.ar      23 UNK        -0.0193 
     10 C10         1.4991  -17.3898  -50.1644 C.ar      23 UNK        -0.1150 
     11 C11         0.9102  -18.6375  -50.3820 C.ar      23 UNK        -0.0193 
     12 C12         1.6562  -19.7994  -50.1712 C.ar      23 UNK        -0.1150 
     13 C13         2.9704  -19.7252  -49.6941 C.ar      23 UNK        -0.0193 
     14 C14         3.5535  -18.4694  -49.5026 C.ar      23 UNK        -0.1150 
     15 C15         3.7790  -20.9762  -49.3567 C.3       23 UNK        -0.0205 
     16 S16         2.8121  -22.3654  -48.6670 S.3       23 UNK        -0.2404 
     17 C17         1.8653  -21.5876  -47.3094 C.3       23 UNK        -0.0398 
     18 CA          0.6652  -22.4503  -46.8538 C.3       11 UNK         0.1400 
     19 N           0.0926  -21.9584  -45.6014 N.am      11 UNK        -0.5000 
     20 C          -0.7265  -22.6700  -44.8149 C.2       10 UNK         0.5000 
     21 O          -1.0254  -23.8447  -45.0257 O.2       10 UNK        -0.5000 
     22 CA         -1.3496  -21.9339  -43.6157 C.3       10 UNK         0.1400 
     23 CB         -0.3771  -21.9049  -42.4275 C.3       10 UNK        -0.1800 
     24 N          -1.7540  -20.5694  -43.9522 N.am      10 UNK        -0.5000 
     25 C          -2.7065  -20.2537  -44.8404 C.2       9 UNK         0.5000 
     26 O          -3.3997  -21.0869  -45.4239 O.2       9 UNK        -0.5000 
     27 CA         -2.8890  -18.7583  -45.1559 C.3       9 UNK         0.1400 
     28 CB         -3.8132  -18.0903  -44.1266 C.3       9 UNK        -0.1800 
     29 N          -1.6184  -18.0338  -45.2134 N.am      9 UNK        -0.5000 
     30 C          -0.6790  -18.2062  -46.1545 C.2       8 UNK         0.5000 
     31 O          -0.7771  -19.0065  -47.0830 O.2       8 UNK        -0.5000 
     32 CA          0.6065  -17.3759  -45.9947 C.3       8 UNK         0.1400 
     33 CB          0.3627  -15.9151  -46.4050 C.3       8 UNK        -0.1800 
     34 N           1.1087  -17.4197  -44.6212 N.am      8 UNK        -0.5000 
     35 C           1.5819  -18.5269  -44.0278 C.2       7 UNK         0.5000 
     36 O           1.6851  -19.6149  -44.5950 O.2       7 UNK        -0.5000 
     37 CA          1.9552  -18.4163  -42.5354 C.3       7 UNK         0.1400 
     38 CB          3.4127  -17.9553  -42.3840 C.3       7 UNK        -0.1800 
     39 N           1.0872  -17.5063  -41.7856 N.am      7 UNK        -0.5000 
     40 C          -0.2463  -17.6053  -41.6879 C.2       6 UNK         0.5000 
     41 O          -0.8895  -18.5511  -42.1399 O.2       6 UNK        -0.5000 
     42 CA         -1.0019  -16.4378  -41.0211 C.3       6 UNK         0.1400 
     43 CB         -1.4921  -16.8479  -39.6244 C.3       6 UNK        -0.1800 
     44 N          -0.2393  -15.1888  -40.9103 N.am      6 UNK        -0.5000 
     45 C           0.2759  -14.4841  -41.9276 C.2       5 UNK         0.5000 
     46 O           0.2146  -14.8379  -43.1089 O.2       5 UNK        -0.5000 
     47 CA          1.0463  -13.2135  -41.5252 C.3       5 UNK         0.1400 
     48 CB          2.4027  -13.5847  -40.9045 C.3       5 UNK        -0.1800 
     49 N           1.2812  -12.3191  -42.6552 N.am      5 UNK        -0.5000 
     50 C           0.3476  -11.5548  -43.2380 C.2       4 UNK         0.5000 
     51 O          -0.8311  -11.5246  -42.8773 O.2       4 UNK        -0.5000 
     52 CA          0.8323  -10.6556  -44.3973 C.3       4 UNK         0.1400 
     53 CB         -0.1674   -9.5395  -44.7648 C.3       4 UNK        -0.1800 
     54 N           2.1691  -10.1022  -44.1548 N.am      4 UNK        -0.5000 
     55 C           2.5626   -9.3198  -43.1362 C.2       3 UNK         0.5000 
     56 O           1.7934   -8.8414  -42.3017 O.2       3 UNK        -0.5000 
     57 CA          4.0751   -9.0484  -43.0003 C.3       3 UNK         0.1400 
     58 CB          4.6104   -9.6427  -41.6863 C.3       3 UNK        -0.1800 
     59 N           4.8415   -9.6222  -44.1072 N.am      3 UNK        -0.5000 
     60 C           5.2285   -8.9583  -45.2044 C.2       2 UNK         0.5000 
     61 O           5.0384   -7.7544  -45.3797 O.2       2 UNK        -0.5000 
     62 CA          5.9310   -9.7829  -46.3029 C.3       2 UNK         0.1400 
     63 CB          7.4569   -9.6849  -46.1547 C.3       2 UNK        -0.1800 
     64 N           5.5428  -11.1966  -46.3080 N.am      2 UNK        -0.5000 
     65 C           4.3198  -11.6547  -46.6136 C.2       1 UNK         0.5000 
     66 O           3.3870  -10.9274  -46.9536 O.2       1 UNK        -0.5000 
     67 C          -0.4233  -22.6188  -47.9408 C.2       11 UNK         0.5000 
     68 O          -0.4630  -23.6677  -48.5848 O.2       11 UNK        -0.5000 
     69 N          -1.3322  -21.6376  -48.0759 N.am      12 UNK        -0.5000 
     70 CA         -2.4640  -21.6347  -49.0182 C.3       12 UNK         0.1400 
     71 CB         -3.2461  -20.3165  -48.8864 C.3       12 UNK        -0.1800 
     72 C          -3.4460  -22.8111  -48.8650 C.2       12 UNK         0.5000 
     73 O          -4.1824  -23.1075  -49.8042 O.2       12 UNK        -0.5000 
     74 N          -3.4480  -23.4639  -47.6963 N.am      13 UNK        -0.5000 
     75 CA         -4.2161  -24.6768  -47.4316 C.3       13 UNK         0.1400 
     76 CB         -4.2466  -24.9338  -45.9183 C.3       13 UNK        -0.1800 
     77 C          -3.6833  -25.9138  -48.1841 C.2       13 UNK         0.5000 
     78 O          -4.4445  -26.8665  -48.3537 O.2       13 UNK        -0.5000 
     79 N          -2.4183  -25.8821  -48.6309 N.am      14 UNK        -0.5000 
     80 CA         -1.7509  -26.9797  -49.3313 C.3       14 UNK         0.1400 
     81 CB         -0.6208  -27.5280  -48.4450 C.3       14 UNK        -0.1800 
     82 C          -1.2049  -26.5447  -50.7015 C.2       14 UNK         0.5000 
     83 O          -1.4610  -27.2261  -51.6953 O.2       14 UNK        -0.5000 
     84 N          -0.4596  -25.4321  -50.7422 N.am      15 UNK        -0.5000 
     85 CA          0.1470  -24.8709  -51.9487 C.3       15 UNK         0.1400 
     86 CB          1.3109  -23.9507  -51.5482 C.3       15 UNK        -0.1800 
     87 C          -0.9221  -24.1203  -52.7553 C.2       15 UNK         0.5000 
     88 O          -1.2237  -22.9686  -52.4371 O.2       15 UNK        -0.5000 
     89 N          -1.5110  -24.8248  -53.7348 N.am      16 UNK        -0.5000 
     90 CA         -2.7527  -24.4826  -54.4370 C.3       16 UNK         0.1400 
     91 CB         -2.5852  -23.2315  -55.3216 C.3       16 UNK        -0.1800 
     92 C          -3.8979  -24.3755  -53.4139 C.2       16 UNK         0.5000 
     93 O          -4.3340  -23.2709  -53.0866 O.2       16 UNK        -0.5000 
     94 N          -4.2617  -25.5523  -52.8805 N.am      17 UNK        -0.5000 
     95 CA         -5.1124  -25.8130  -51.7161 C.3       17 UNK         0.1400 
     96 CB         -5.3890  -27.3240  -51.6560 C.3       17 UNK        -0.1800 
     97 C          -6.4297  -25.0202  -51.6361 C.2       17 UNK         0.5000 
     98 O          -6.8858  -24.4731  -52.6385 O.2       17 UNK        -0.5000 
     99 N          -7.0274  -25.0062  -50.4362 N.am      18 UNK        -0.5000 
    100 CA        -8.1252  -24.1447  -49.9709 C.3       18 UNK         0.1400 
    101 CB        -8.5537  -24.6207  -48.5740 C.3       18 UNK        -0.1800 
    102 C         -9.3651  -23.9800  -50.8795 C.2       18 UNK         0.5000 
    103 O        -10.0839  -22.9924  -50.7248 O.2       18 UNK        -0.5000 
    104 N         -9.5965  -24.9128  -51.8129 N.am      19 UNK        -0.5000 
    105 CA       -10.5913  -24.7850  -52.8823 C.3       19 UNK         0.1400 
    106 CB       -10.7217  -26.1321  -53.6089 C.3       19 UNK        -0.1800 
    107 C        -10.2563  -23.6582  -53.8858 C.2       19 UNK         0.5000 
    108 O        -11.1708  -23.0149  -54.4025 O.2       19 UNK        -0.5000 
    109 N         -8.9580  -23.4349  -54.1248 N.am      20 UNK        -0.5000 
    110 CA        -8.4056  -22.3332  -54.9104 C.3       20 UNK         0.1400 
    111 CB        -7.3011  -22.8756  -55.8327 C.3       20 UNK        -0.1800 
    112 C         -7.8410  -21.2393  -53.9867 C.2       20 UNK         0.5000 
    113 O         -8.0488  -20.0583  -54.2627 O.2       20 UNK        -0.5000 
    114 N         -7.1581  -21.6593  -52.9094 N.am      21 UNK        -0.5000 
    115 CA        -6.5397  -20.8534  -51.8526 C.3       21 UNK         0.1400 
    116 CB        -7.6152  -20.1276  -51.0184 C.3       21 UNK        -0.1800 
    117 C         -5.4611  -19.8969  -52.3978 C.2       21 UNK         0.5000 
    118 O         -5.6818  -18.6868  -52.4762 O.2       21 UNK        -0.5000 
    119 N         -4.3126  -20.4724  -52.7720 N.am      22 UNK        -0.5000 
    120 CA        -3.1540  -19.8002  -53.3903 C.3       22 UNK         0.1400 
    121 C         -3.3212  -19.5207  -54.9165 C.2       22 UNK         0.5000 
    122 N         -4.3578  -20.0286  -55.5724 N.am      22 UNK        -0.7600 
    123 O         -2.4899  -18.8560  -55.5282 O.2       22 UNK        -0.5000 
    124 C124       -2.6565  -18.5547  -52.5947 C.3       23 UNK        -0.0398 
    125 S125       -0.8351  -18.4059  -52.5373 S.3       23 UNK        -0.2404 
    126 C126       -0.5523  -18.7327  -50.7740 C.3       23 UNK        -0.0205 
    127 H127        5.0756  -14.9076  -42.5175 H         1 UNK         0.0600 
    128 H128        6.1541  -13.5113  -42.4320 H         1 UNK         0.0600 
    129 H129        6.4391  -14.7750  -43.6312 H         1 UNK         0.0600 
    130 H130        5.5015  -14.5090  -45.6619 H         1 UNK         0.3000 
    131 H131        3.0272  -13.2917  -46.1921 H         1 UNK         0.0600 
    132 H132        5.3559  -13.8392  -48.1100 H         1 UNK         0.0800 
    133 H133        3.7404  -13.3860  -48.6030 H         1 UNK         0.0800 
    134 H134        2.8344  -15.1522  -49.9189 H         1 UNK         0.0800 
    135 H135        4.4121  -15.8932  -50.0714 H         1 UNK         0.0800 
    136 H136        0.9197  -16.4914  -50.3247 H         1 UNK         0.1150 
    137 H137        1.1932  -20.7623  -50.3324 H         1 UNK         0.1150 
    138 H138        4.5727  -18.3967  -49.1493 H         1 UNK         0.1150 
    139 H139        4.2828  -21.3182  -50.2614 H         1 UNK         0.0800 
    140 H140        4.5643  -20.7302  -48.6401 H         1 UNK         0.0800 
    141 H141        1.5257  -20.5894  -47.5849 H         1 UNK         0.0800 
    142 H142        2.5552  -21.4464  -46.4764 H         1 UNK         0.0800 
    143 H143        1.0556  -23.4493  -46.6456 H         1 UNK         0.0600 
    144 H144        0.3316  -21.0097  -45.3340 H         1 UNK         0.3000 
    145 H145       -2.2435  -22.4832  -43.3130 H         1 UNK         0.0600 
    146 H146       -0.8258  -21.4177  -41.5616 H         1 UNK         0.0600 
    147 H147       -0.0997  -22.9157  -42.1262 H         1 UNK         0.0600 
    148 H148        0.5413  -21.3720  -42.6731 H         1 UNK         0.0600 
    149 H149       -1.2858  -19.8164  -43.4539 H         1 UNK         0.3000 
    150 H150       -3.3629  -18.6800  -46.1362 H         1 UNK         0.0600 
    151 H151       -4.7822  -18.5899  -44.0927 H         1 UNK         0.0600 
    152 H152       -3.9954  -17.0457  -44.3792 H         1 UNK         0.0600 
    153 H153       -3.3927  -18.1242  -43.1211 H         1 UNK         0.0600 
    154 H154       -1.4290  -17.3912  -44.4589 H         1 UNK         0.3000 
    155 H155        1.3704  -17.7958  -46.6535 H         1 UNK         0.0600 
    156 H156       -0.4395  -15.4578  -45.8246 H         1 UNK         0.0600 
    157 H157        0.0887  -15.8493  -47.4587 H         1 UNK         0.0600 
    158 H158        1.2564  -15.3089  -46.2614 H         1 UNK         0.0600 
    159 H159        1.0143  -16.5698  -44.0761 H         1 UNK         0.3000 
    160 H160        1.8586  -19.4087  -42.0918 H         1 UNK         0.0600 
    161 H161        3.5616  -16.9542  -42.7905 H         1 UNK         0.0600 
    162 H162        4.0912  -18.6277  -42.9108 H         1 UNK         0.0600 
    163 H163        3.7172  -17.9425  -41.3373 H         1 UNK         0.0600 
    164 H164        1.5278  -16.6948  -41.3803 H         1 UNK         0.3000 
    165 H165       -1.8758  -16.2318  -41.6422 H         1 UNK         0.0600 
    166 H166       -2.1167  -16.0722  -39.1808 H         1 UNK         0.0600 
    167 H167       -2.0928  -17.7574  -39.6712 H         1 UNK         0.0600 
    168 H168       -0.6593  -17.0392  -38.9465 H         1 UNK         0.0600 
    169 H169       -0.1189  -14.8334  -39.9726 H         1 UNK         0.3000 
    170 H170        0.4577  -12.6739  -40.7803 H         1 UNK         0.0600 
    171 H171        2.2749  -14.1479  -39.9795 H         1 UNK         0.0600 
    172 H172        2.9956  -14.1990  -41.5816 H         1 UNK         0.0600 
    173 H173        2.9851  -12.6953  -40.6628 H         1 UNK         0.0600 
    174 H174        2.2250  -12.3127  -43.0328 H         1 UNK         0.3000 
    175 H175        0.9281  -11.3096  -45.2653 H         1 UNK         0.0600 
    176 H176       -0.3624   -8.8746  -43.9230 H         1 UNK         0.0600 
    177 H177        0.2052   -8.9346  -45.5914 H         1 UNK         0.0600 
    178 H178       -1.1240   -9.9599  -45.0770 H         1 UNK         0.0600 
    179 H179        2.8844  -10.4234  -44.7929 H         1 UNK         0.3000 
    180 H180        4.2134   -7.9658  -42.9666 H         1 UNK         0.0600 
    181 H181        4.4711  -10.7238  -41.6470 H         1 UNK         0.0600 
    182 H182        4.0983   -9.2147  -40.8237 H         1 UNK         0.0600 
    183 H183        5.6741   -9.4371  -41.5655 H         1 UNK         0.0600 
    184 H184        5.0057  -10.6196  -44.0565 H         1 UNK         0.3000 
    185 H185        5.6519   -9.3518  -47.2666 H         1 UNK         0.0600 
    186 H186        7.7853   -8.6449  -46.1737 H         1 UNK         0.0600 
    187 H187        7.7989  -10.1199  -45.2147 H         1 UNK         0.0600 
    188 H188        7.9667  -10.1998  -46.9692 H         1 UNK         0.0600 
    189 H189        6.2473  -11.8620  -46.0239 H         1 UNK         0.3000 
    190 H190       -1.2090  -20.7868  -47.5322 H         1 UNK         0.3000 
    191 H191       -2.0478  -21.6977  -50.0252 H         1 UNK         0.0600 
    192 H192       -2.5995  -19.4442  -48.9416 H         1 UNK         0.0600 
    193 H193       -3.9843  -20.2234  -49.6831 H         1 UNK         0.0600 
    194 H194       -3.7851  -20.2653  -47.9410 H         1 UNK         0.0600 
    195 H195       -2.8467  -23.1288  -46.9557 H         1 UNK         0.3000 
    196 H196       -5.2409  -24.5042  -47.7654 H         1 UNK         0.0600 
    197 H197       -4.9034  -25.7711  -45.6792 H         1 UNK         0.0600 
    198 H198       -4.6165  -24.0637  -45.3751 H         1 UNK         0.0600 
    199 H199       -3.2566  -25.1760  -45.5320 H         1 UNK         0.0600 
    200 H200       -1.8691  -25.0402  -48.4864 H         1 UNK         0.3000 
    201 H201       -2.4524  -27.7956  -49.5175 H         1 UNK         0.0600 
    202 H202       -1.0155  -27.9294  -47.5115 H         1 UNK         0.0600 
    203 H203        0.1070  -26.7551  -48.1939 H         1 UNK         0.0600 
    204 H204       -0.0859  -28.3357  -48.9462 H         1 UNK         0.0600 
    205 H205       -0.3527  -24.8727  -49.8982 H         1 UNK         0.3000 
    206 H206        0.5551  -25.6805  -52.5576 H         1 UNK         0.0600 
    207 H207        2.0715  -24.4962  -50.9895 H         1 UNK         0.0600 
    208 H208        1.7931  -23.5246  -52.4285 H         1 UNK         0.0600 
    209 H209        0.9715  -23.1214  -50.9275 H         1 UNK         0.0600 
    210 H210       -1.1957  -25.7763  -53.8668 H         1 UNK         0.3000 
    211 H211       -2.9885  -25.3172  -55.0993 H         1 UNK         0.0600 
    212 H212       -2.2887  -22.3576  -54.7466 H         1 UNK         0.0600 
    213 H213       -3.5189  -22.9870  -55.8293 H         1 UNK         0.0600 
    214 H214       -1.8289  -23.3937  -56.0891 H         1 UNK         0.0600 
    215 H215       -3.8000  -26.3725  -53.2444 H         1 UNK         0.3000 
    216 H216       -4.5177  -25.5334  -50.8486 H         1 UNK         0.0600 
    217 H217       -5.9732  -27.5899  -50.7742 H         1 UNK         0.0600 
    218 H218       -4.4600  -27.8923  -51.6026 H         1 UNK         0.0600 
    219 H219       -5.9425  -27.6642  -52.5322 H         1 UNK         0.0600 
    220 H220       -6.5912  -25.5535  -49.7084 H         1 UNK         0.3000 
    221 H221       -7.6961  -23.1472  -49.8625 H         1 UNK         0.0600 
    222 H222       -8.9291  -25.6445  -48.5990 H         1 UNK         0.0600 
    223 H223       -7.7236  -24.5838  -47.8686 H         1 UNK         0.0600 
    224 H224       -9.3463  -23.9906  -48.1677 H         1 UNK         0.0600 
    225 H225       -8.9478  -25.6828  -51.8842 H         1 UNK         0.3000 
    226 H226      -11.5542  -24.5479  -52.4251 H         1 UNK         0.0600 
    227 H227      -11.0293  -26.9221  -52.9234 H         1 UNK         0.0600 
    228 H228      -11.4716  -26.0782  -54.3992 H         1 UNK         0.0600 
    229 H229       -9.7800  -26.4336  -54.0694 H         1 UNK         0.0600 
    230 H230       -8.2746  -23.9924  -53.6150 H         1 UNK         0.3000 
    231 H231       -9.1825  -21.8856  -55.5337 H         1 UNK         0.0600 
    232 H232       -7.6953  -23.6280  -56.5158 H         1 UNK         0.0600 
    233 H233       -6.4881  -23.3326  -55.2665 H         1 UNK         0.0600 
    234 H234       -6.8719  -22.0776  -56.4398 H         1 UNK         0.0600 
    235 H235       -6.9890  -22.6598  -52.8296 H         1 UNK         0.3000 
    236 H236       -6.0335  -21.5566  -51.1892 H         1 UNK         0.0600 
    237 H237       -7.1608  -19.5866  -50.1877 H         1 UNK         0.0600 
    238 H238       -8.1744  -19.4041  -51.6123 H         1 UNK         0.0600 
    239 H239       -8.3300  -20.8320  -50.5948 H         1 UNK         0.0600 
    240 H240       -4.2504  -21.4908  -52.7342 H         1 UNK         0.3000 
    241 H241       -2.3687  -20.5532  -53.3309 H         1 UNK         0.0600 
    242 H242       -4.4574  -19.8501  -56.5591 H         1 UNK         0.3800 
    243 H243       -5.0493  -20.5699  -55.0809 H         1 UNK         0.3800 
    244 H244       -3.0729  -17.6337  -53.0063 H         1 UNK         0.0800 
    245 H245       -3.0236  -18.5940  -51.5688 H         1 UNK         0.0800 
    246 H246       -1.1285  -18.0281  -50.1724 H         1 UNK         0.0800 
    247 H247       -0.9289  -19.7280  -50.5451 H         1 UNK         0.0800 
@<TRIPOS>BOND
     1    1    2 1    
     2    1  127 1    
     3    1  128 1    
     4    1  129 1    
     5    2    3 2    
     6    2    4 am   BACKBONE|DICT|INTERRES
     7    4    5 1    
     8    4  130 1    
     9    5    6 1    
    10    5   65 1    
    11    5  131 1    
    12    6    7 1    
    13    6  132 1    
    14    6  133 1    
    15    7    8 1    
    16    8    9 1    
    17    8  134 1    
    18    8  135 1    
    19    9   10 ar   
    20    9   14 ar   
    21   10   11 ar   
    22   10  136 1    
    23   11   12 ar   
    24   11  126 1    
    25   12   13 ar   
    26   12  137 1    
    27   13   14 ar   
    28   13   15 1    
    29   14  138 1    
    30   15   16 1    
    31   15  139 1    
    32   15  140 1    
    33   16   17 1    
    34   17   18 1    
    35   17  141 1    
    36   17  142 1    
    37   18   19 1    
    38   18   67 1    
    39   18  143 1    
    40   19   20 am   BACKBONE|DICT|INTERRES
    41   19  144 1    
    42   20   21 2    
    43   20   22 1    
    44   22   23 1    
    45   22   24 1    
    46   22  145 1    
    47   23  146 1    
    48   23  147 1    
    49   23  148 1    
    50   24   25 am   BACKBONE|DICT|INTERRES
    51   24  149 1    
    52   25   26 2    
    53   25   27 1    
    54   27   28 1    
    55   27   29 1    
    56   27  150 1    
    57   28  151 1    
    58   28  152 1    
    59   28  153 1    
    60   29   30 am   BACKBONE|DICT|INTERRES
    61   29  154 1    
    62   30   31 2    
    63   30   32 1    
    64   32   33 1    
    65   32   34 1    
    66   32  155 1    
    67   33  156 1    
    68   33  157 1    
    69   33  158 1    
    70   34   35 am   BACKBONE|DICT|INTERRES
    71   34  159 1    
    72   35   36 2    
    73   35   37 1    
    74   37   38 1    
    75   37   39 1    
    76   37  160 1    
    77   38  161 1    
    78   38  162 1    
    79   38  163 1    
    80   39   40 am   BACKBONE|DICT|INTERRES
    81   39  164 1    
    82   40   41 2    
    83   40   42 1    
    84   42   43 1    
    85   42   44 1    
    86   42  165 1    
    87   43  166 1    
    88   43  167 1    
    89   43  168 1    
    90   44   45 am   BACKBONE|DICT|INTERRES
    91   44  169 1    
    92   45   46 2    
    93   45   47 1    
    94   47   48 1    
    95   47   49 1    
    96   47  170 1    
    97   48  171 1    
    98   48  172 1    
    99   48  173 1    
   100   49   50 am   BACKBONE|DICT|INTERRES
   101   49  174 1    
   102   50   51 2    
   103   50   52 1    
   104   52   53 1    
   105   52   54 1    
   106   52  175 1    
   107   53  176 1    
   108   53  177 1    
   109   53  178 1    
   110   54   55 am   BACKBONE|DICT|INTERRES
   111   54  179 1    
   112   55   56 2    
   113   55   57 1    
   114   57   58 1    
   115   57   59 1    
   116   57  180 1    
   117   58  181 1    
   118   58  182 1    
   119   58  183 1    
   120   59   60 am   BACKBONE|DICT|INTERRES
   121   59  184 1    
   122   60   61 2    
   123   60   62 1    
   124   62   63 1    
   125   62   64 1    
   126   62  185 1    
   127   63  186 1    
   128   63  187 1    
   129   63  188 1    
   130   64   65 am   BACKBONE|DICT|INTERRES
   131   64  189 1    
   132   65   66 2    
   133   67   68 2    
   134   67   69 am   BACKBONE|DICT|INTERRES
   135   69   70 1    
   136   69  190 1    
   137   70   71 1    
   138   70   72 1    
   139   70  191 1    
   140   71  192 1    
   141   71  193 1    
   142   71  194 1    
   143   72   73 2    
   144   72   74 am   BACKBONE|DICT|INTERRES
   145   74   75 1    
   146   74  195 1    
   147   75   76 1    
   148   75   77 1    
   149   75  196 1    
   150   76  197 1    
   151   76  198 1    
   152   76  199 1    
   153   77   78 2    
   154   77   79 am   BACKBONE|DICT|INTERRES
   155   79   80 1    
   156   79  200 1    
   157   80   81 1    
   158   80   82 1    
   159   80  201 1    
   160   81  202 1    
   161   81  203 1    
   162   81  204 1    
   163   82   83 2    
   164   82   84 am   BACKBONE|DICT|INTERRES
   165   84   85 1    
   166   84  205 1    
   167   85   86 1    
   168   85   87 1    
   169   85  206 1    
   170   86  207 1    
   171   86  208 1    
   172   86  209 1    
   173   87   88 2    
   174   87   89 am   BACKBONE|DICT|INTERRES
   175   89   90 1    
   176   89  210 1    
   177   90   91 1    
   178   90   92 1    
   179   90  211 1    
   180   91  212 1    
   181   91  213 1    
   182   91  214 1    
   183   92   93 2    
   184   92   94 am   BACKBONE|DICT|INTERRES
   185   94   95 1    
   186   94  215 1    
   187   95   96 1    
   188   95   97 1    
   189   95  216 1    
   190   96  217 1    
   191   96  218 1    
   192   96  219 1    
   193   97   98 2    
   194   97   99 am   BACKBONE|DICT|INTERRES
   195   99  100 1    
   196   99  220 1    
   197  100  101 1    
   198  100  102 1    
   199  100  221 1    
   200  101  222 1    
   201  101  223 1    
   202  101  224 1    
   203  102  103 2    
   204  102  104 am   BACKBONE|DICT|INTERRES
   205  104  105 1    
   206  104  225 1    
   207  105  106 1    
   208  105  107 1    
   209  105  226 1    
   210  106  227 1    
   211  106  228 1    
   212  106  229 1    
   213  107  108 2    
   214  107  109 am   BACKBONE|DICT|INTERRES
   215  109  110 1    
   216  109  230 1    
   217  110  111 1    
   218  110  112 1    
   219  110  231 1    
   220  111  232 1    
   221  111  233 1    
   222  111  234 1    
   223  112  113 2    
   224  112  114 am   BACKBONE|DICT|INTERRES
   225  114  115 1    
   226  114  235 1    
   227  115  116 1    
   228  115  117 1    
   229  115  236 1    
   230  116  237 1    
   231  116  238 1    
   232  116  239 1    
   233  117  118 2    
   234  117  119 am   BACKBONE|DICT|INTERRES
   235  119  120 1    
   236  119  240 1    
   237  120  121 1    
   238  120  124 1    
   239  120  241 1    
   240  121  122 am   BACKBONE|DICT|INTERRES
   241  121  123 2    
   242  122  242 1    
   243  122  243 1    
   244  124  125 1    
   245  124  244 1    
   246  124  245 1    
   247  125  126 1    
   248  126  246 1    
   249  126  247 1    
@<TRIPOS>SUBSTRUCTURE
     1 UNK         1 GROUP             0       ****    0 ROOT    
