@<TRIPOS>MOLECULE
3R540
247   249    1
SMALL
USER_CHARGES


@<TRIPOS>ATOM
      1 CA         -2.0716  -12.9106  -50.7713 C.3       0 UNK        -0.1800 
      2 C          -1.4244  -13.8980  -49.8116 C.2       0 UNK         0.5000 
      3 O          -2.0027  -14.9477  -49.5310 O.2       0 UNK        -0.5000 
      4 N          -0.2379  -13.5527  -49.2936 N.am      1 UNK        -0.5000 
      5 CA          0.6198  -14.3277  -48.3796 C.3       1 UNK         0.1400 
      6 C6          1.0349  -15.7245  -48.9143 C.3       23 UNK        -0.0398 
      7 S7          1.9535  -15.5806  -50.4838 S.3       23 UNK        -0.2404 
      8 C8          3.5737  -16.3022  -50.0533 C.3       23 UNK        -0.0205 
      9 C9          3.5789  -17.8270  -50.0909 C.ar      23 UNK        -0.0193 
     10 C10         3.0337  -18.5069  -51.1838 C.ar      23 UNK        -0.1150 
     11 C11         3.0508  -19.9015  -51.2416 C.ar      23 UNK        -0.0193 
     12 C12         3.6688  -20.6205  -50.2156 C.ar      23 UNK        -0.1150 
     13 C13         4.2469  -19.9573  -49.1272 C.ar      23 UNK        -0.0193 
     14 C14         4.1823  -18.5603  -49.0637 C.ar      23 UNK        -0.1150 
     15 C15         5.0047  -20.7352  -48.0558 C.3       23 UNK        -0.0205 
     16 S16         4.0982  -22.1798  -47.4137 S.3       23 UNK        -0.2404 
     17 C17         2.8325  -21.3694  -46.3875 C.3       23 UNK        -0.0398 
     18 CA          1.5333  -22.2039  -46.2819 C.3       11 UNK         0.1400 
     19 N           0.8050  -21.9151  -45.0437 N.am      11 UNK        -0.5000 
     20 C          -0.2669  -22.5877  -44.6011 C.2       10 UNK         0.5000 
     21 O          -0.7352  -23.5779  -45.1627 O.2       10 UNK        -0.5000 
     22 CA         -0.9617  -22.0258  -43.3457 C.3       10 UNK         0.1400 
     23 CB         -0.2637  -22.5082  -42.0657 C.3       10 UNK        -0.1800 
     24 N          -1.0281  -20.5630  -43.3509 N.am      10 UNK        -0.5000 
     25 C          -1.7067  -19.8409  -44.2539 C.2       9 UNK         0.5000 
     26 O          -2.4033  -20.3346  -45.1383 O.2       9 UNK        -0.5000 
     27 CA         -1.5335  -18.3148  -44.2021 C.3       9 UNK         0.1400 
     28 CB         -2.4133  -17.6998  -43.1020 C.3       9 UNK        -0.1800 
     29 N          -0.1355  -17.9217  -44.0150 N.am      9 UNK        -0.5000 
     30 C           0.8451  -18.1644  -44.8979 C.2       8 UNK         0.5000 
     31 O           0.6549  -18.6674  -46.0042 O.2       8 UNK        -0.5000 
     32 CA          2.2867  -17.8615  -44.4486 C.3       8 UNK         0.1400 
     33 CB          2.6917  -16.4182  -44.7733 C.3       8 UNK        -0.1800 
     34 N           2.4823  -18.1160  -43.0220 N.am      8 UNK        -0.5000 
     35 C           2.5193  -19.3384  -42.4740 C.2       7 UNK         0.5000 
     36 O           2.4332  -20.3786  -43.1246 O.2       7 UNK        -0.5000 
     37 CA          2.6170  -19.4046  -40.9391 C.3       7 UNK         0.1400 
     38 CB          4.0733  -19.2391  -40.4802 C.3       7 UNK        -0.1800 
     39 N           1.7838  -18.3922  -40.2888 N.am      7 UNK        -0.5000 
     40 C           0.4438  -18.3729  -40.3334 C.2       6 UNK         0.5000 
     41 O          -0.2302  -19.2536  -40.8662 O.2       6 UNK        -0.5000 
     42 CA         -0.2545  -17.1378  -39.7303 C.3       6 UNK         0.1400 
     43 CB         -0.5786  -17.3721  -38.2478 C.3       6 UNK        -0.1800 
     44 N           0.5365  -15.9106  -39.8679 N.am      6 UNK        -0.5000 
     45 C           0.8535  -15.3404  -41.0377 C.2       5 UNK         0.5000 
     46 O           0.4775  -15.7665  -42.1323 O.2       5 UNK        -0.5000 
     47 CA          1.8226  -14.1547  -40.9728 C.3       5 UNK         0.1400 
     48 CB          3.2649  -14.6756  -40.7958 C.3       5 UNK        -0.1800 
     49 N           1.7130  -13.3708  -42.2000 N.am      5 UNK        -0.5000 
     50 C           2.2690  -12.1705  -42.4044 C.2       4 UNK         0.5000 
     51 O           2.9072  -11.5554  -41.5488 O.2       4 UNK        -0.5000 
     52 CA          2.0854  -11.5471  -43.7976 C.3       4 UNK         0.1400 
     53 CB          3.0858  -12.1516  -44.7960 C.3       4 UNK        -0.1800 
     54 N           0.7218  -11.6968  -44.3075 N.am      4 UNK        -0.5000 
     55 C          -0.3128  -10.9435  -43.9013 C.2       3 UNK         0.5000 
     56 O          -0.2191  -10.0807  -43.0271 O.2       3 UNK        -0.5000 
     57 CA         -1.6761  -11.1496  -44.5945 C.3       3 UNK         0.1400 
     58 CB         -1.9267  -10.0354  -45.6229 C.3       3 UNK        -0.1800 
     59 N          -1.7969  -12.4398  -45.2689 N.am      3 UNK        -0.5000 
     60 C          -1.9729  -13.6114  -44.6464 C.2       2 UNK         0.5000 
     61 O          -2.1370  -13.7191  -43.4314 O.2       2 UNK        -0.5000 
     62 CA         -1.9378  -14.8777  -45.5245 C.3       2 UNK         0.1400 
     63 CB         -3.3594  -15.3926  -45.7958 C.3       2 UNK        -0.1800 
     64 N          -1.2378  -14.7240  -46.8029 N.am      2 UNK        -0.5000 
     65 C           0.0558  -14.4142  -46.9479 C.2       1 UNK         0.5000 
     66 O           0.7895  -14.1471  -45.9983 O.2       1 UNK        -0.5000 
     67 C           0.6415  -22.0427  -47.5325 C.2       11 UNK         0.5000 
     68 O           0.6697  -22.9044  -48.4109 O.2       11 UNK        -0.5000 
     69 N          -0.1690  -20.9746  -47.5653 N.am      12 UNK        -0.5000 
     70 CA         -1.1712  -20.7374  -48.6017 C.3       12 UNK         0.1400 
     71 CB         -1.7086  -19.3016  -48.4968 C.3       12 UNK        -0.1800 
     72 C          -2.3084  -21.7730  -48.5595 C.2       12 UNK         0.5000 
     73 O          -2.6335  -22.3537  -49.5932 O.2       12 UNK        -0.5000 
     74 N          -2.8594  -22.0273  -47.3629 N.am      13 UNK        -0.5000 
     75 CA         -3.9403  -22.9877  -47.1127 C.3       13 UNK         0.1400 
     76 CB         -4.3367  -22.9452  -45.6303 C.3       13 UNK        -0.1800 
     77 C          -3.6141  -24.4311  -47.5398 C.2       13 UNK         0.5000 
     78 O          -4.5166  -25.1541  -47.9635 O.2       13 UNK        -0.5000 
     79 N          -2.3304  -24.8108  -47.4745 N.am      14 UNK        -0.5000 
     80 CA         -1.8058  -26.1000  -47.9305 C.3       14 UNK         0.1400 
     81 CB         -0.3285  -26.2161  -47.5265 C.3       14 UNK        -0.1800 
     82 C          -1.9813  -26.3617  -49.4429 C.2       14 UNK         0.5000 
     83 O          -1.9396  -27.5224  -49.8524 O.2       14 UNK        -0.5000 
     84 N          -2.2059  -25.3074  -50.2435 N.am      15 UNK        -0.5000 
     85 CA         -2.5395  -25.4062  -51.6674 C.3       15 UNK         0.1400 
     86 CB         -2.1304  -24.1062  -52.3760 C.3       15 UNK        -0.1800 
     87 C          -4.0245  -25.7526  -51.9249 C.2       15 UNK         0.5000 
     88 O          -4.3959  -25.9532  -53.0827 O.2       15 UNK        -0.5000 
     89 N          -4.8410  -25.8384  -50.8608 N.am      16 UNK        -0.5000 
     90 CA         -6.2323  -26.2991  -50.8295 C.3       16 UNK         0.1400 
     91 CB         -6.2906  -27.8237  -51.0711 C.3       16 UNK        -0.1800 
     92 C          -7.1454  -25.4846  -51.7661 C.2       16 UNK         0.5000 
     93 O          -7.4501  -24.3329  -51.4585 O.2       16 UNK        -0.5000 
     94 N          -7.5484  -26.0701  -52.9014 N.am      17 UNK        -0.5000 
     95 CA         -8.3661  -25.4262  -53.9331 C.3       17 UNK         0.1400 
     96 CB         -8.7573  -26.4760  -54.9843 C.3       17 UNK        -0.1800 
     97 C          -7.6817  -24.2181  -54.6061 C.2       17 UNK         0.5000 
     98 O          -8.3769  -23.3403  -55.1183 O.2       17 UNK        -0.5000 
     99 N          -6.3429  -24.1851  -54.5786 N.am      18 UNK        -0.5000 
    100 CA        -5.5148  -23.1112  -55.1228 C.3       18 UNK         0.1400 
    101 CB        -4.3525  -23.7427  -55.9086 C.3       18 UNK        -0.1800 
    102 C         -5.0057  -22.1476  -54.0313 C.2       18 UNK         0.5000 
    103 O         -4.1117  -21.3509  -54.3142 O.2       18 UNK        -0.5000 
    104 N         -5.5557  -22.2142  -52.8078 N.am      19 UNK        -0.5000 
    105 CA        -5.1255  -21.4029  -51.6617 C.3       19 UNK         0.1400 
    106 CB        -5.8034  -21.9054  -50.3803 C.3       19 UNK        -0.1800 
    107 C         -5.3329  -19.8860  -51.8130 C.2       19 UNK         0.5000 
    108 O         -4.6507  -19.1268  -51.1248 O.2       19 UNK        -0.5000 
    109 N         -6.2400  -19.4682  -52.7073 N.am      20 UNK        -0.5000 
    110 CA        -6.5213  -18.0760  -53.0640 C.3       20 UNK         0.1400 
    111 CB        -7.6966  -18.0477  -54.0558 C.3       20 UNK        -0.1800 
    112 C         -5.2733  -17.3686  -53.6327 C.2       20 UNK         0.5000 
    113 O         -4.9848  -17.4932  -54.8238 O.2       20 UNK        -0.5000 
    114 N         -4.5355  -16.6916  -52.7408 N.am      21 UNK        -0.5000 
    115 CA        -3.2318  -16.0494  -52.9485 C.3       21 UNK         0.1400 
    116 CB        -3.3336  -14.9031  -53.9773 C.3       21 UNK        -0.1800 
    117 C         -2.0829  -17.0366  -53.2624 C.2       21 UNK         0.5000 
    118 O         -1.0402  -16.6054  -53.7553 O.2       21 UNK        -0.5000 
    119 N         -2.2826  -18.3260  -52.9486 N.am      22 UNK        -0.5000 
    120 CA        -1.3683  -19.4522  -53.1968 C.3       22 UNK         0.1400 
    121 C         -1.0065  -19.6191  -54.7043 C.2       22 UNK         0.5000 
    122 N         -1.8998  -20.1910  -55.4977 N.am      22 UNK        -0.7600 
    123 O          0.0699  -19.2430  -55.1626 O.2       22 UNK        -0.5000 
    124 C124       -0.1297  -19.4060  -52.2655 C.3       23 UNK        -0.0398 
    125 S125        0.6747  -21.0381  -52.0911 S.3       23 UNK        -0.2404 
    126 C126        2.4178  -20.6289  -52.4187 C.3       23 UNK        -0.0205 
    127 H127       -1.9389  -13.2465  -51.7990 H         1 UNK         0.0600 
    128 H128       -1.6366  -11.9152  -50.6784 H         1 UNK         0.0600 
    129 H129       -3.1403  -12.8325  -50.5707 H         1 UNK         0.0600 
    130 H130        0.1538  -12.6624  -49.5675 H         1 UNK         0.3000 
    131 H131        1.5353  -13.7397  -48.2915 H         1 UNK         0.0600 
    132 H132        0.1643  -16.3600  -49.0790 H         1 UNK         0.0800 
    133 H133        1.6522  -16.2507  -48.1839 H         1 UNK         0.0800 
    134 H134        3.8906  -15.9296  -49.0779 H         1 UNK         0.0800 
    135 H135        4.3117  -15.9435  -50.7717 H         1 UNK         0.0800 
    136 H136        2.5931  -17.9429  -51.9927 H         1 UNK         0.1150 
    137 H137        3.7085  -21.6994  -50.2706 H         1 UNK         0.1150 
    138 H138        4.6339  -18.0401  -48.2306 H         1 UNK         0.1150 
    139 H139        5.9440  -21.0820  -48.4881 H         1 UNK         0.0800 
    140 H140        5.2741  -20.0877  -47.2197 H         1 UNK         0.0800 
    141 H141        2.6290  -20.3638  -46.7590 H         1 UNK         0.0800 
    142 H142        3.2814  -21.2419  -45.4029 H         1 UNK         0.0800 
    143 H143        1.8113  -23.2585  -46.2206 H         1 UNK         0.0600 
    144 H144        1.1615  -21.1538  -44.4759 H         1 UNK         0.3000 
    145 H145       -1.9852  -22.4044  -43.3330 H         1 UNK         0.0600 
    146 H146       -0.7892  -22.1603  -41.1762 H         1 UNK         0.0600 
    147 H147        0.7646  -22.1523  -42.0055 H         1 UNK         0.0600 
    148 H148       -0.2371  -23.5977  -42.0237 H         1 UNK         0.0600 
    149 H149       -0.5297  -20.0783  -42.6104 H         1 UNK         0.3000 
    150 H150       -1.8601  -17.9190  -45.1649 H         1 UNK         0.0600 
    151 H151       -3.4698  -17.8286  -43.3395 H         1 UNK         0.0600 
    152 H152       -2.2327  -16.6312  -42.9872 H         1 UNK         0.0600 
    153 H153       -2.2428  -18.1689  -42.1342 H         1 UNK         0.0600 
    154 H154        0.0956  -17.4297  -43.1583 H         1 UNK         0.3000 
    155 H155        2.9512  -18.5245  -45.0064 H         1 UNK         0.0600 
    156 H156        2.5981  -16.2196  -45.8412 H         1 UNK         0.0600 
    157 H157        3.7290  -16.2270  -44.4988 H         1 UNK         0.0600 
    158 H158        2.0691  -15.6952  -44.2475 H         1 UNK         0.0600 
    159 H159        2.5063  -17.3097  -42.4170 H         1 UNK         0.3000 
    160 H160        2.2672  -20.3900  -40.6237 H         1 UNK         0.0600 
    161 H161        4.4726  -18.2591  -40.7447 H         1 UNK         0.0600 
    162 H162        4.7150  -19.9909  -40.9418 H         1 UNK         0.0600 
    163 H163        4.1616  -19.3573  -39.4001 H         1 UNK         0.0600 
    164 H164        2.2615  -17.6398  -39.8162 H         1 UNK         0.3000 
    165 H165       -1.1944  -16.9929  -40.2664 H         1 UNK         0.0600 
    166 H166       -1.1409  -16.5368  -37.8301 H         1 UNK         0.0600 
    167 H167       -1.1870  -18.2684  -38.1187 H         1 UNK         0.0600 
    168 H168        0.3260  -17.5006  -37.6520 H         1 UNK         0.0600 
    169 H169        0.8888  -15.5054  -39.0123 H         1 UNK         0.3000 
    170 H170        1.5464  -13.5252  -40.1245 H         1 UNK         0.0600 
    171 H171        3.5869  -15.2633  -41.6565 H         1 UNK         0.0600 
    172 H172        3.9752  -13.8592  -40.6684 H         1 UNK         0.0600 
    173 H173        3.3537  -15.3090  -39.9125 H         1 UNK         0.0600 
    174 H174        1.1669  -13.8086  -42.9322 H         1 UNK         0.3000 
    175 H175        2.3061  -10.4802  -43.7179 H         1 UNK         0.0600 
    176 H176        2.9776  -13.2335  -44.8763 H         1 UNK         0.0600 
    177 H177        2.9590  -11.7263  -45.7917 H         1 UNK         0.0600 
    178 H178        4.1117  -11.9519  -44.4844 H         1 UNK         0.0600 
    179 H179        0.5742  -12.4270  -44.9964 H         1 UNK         0.3000 
    180 H180       -2.4493  -11.0847  -43.8259 H         1 UNK         0.0600 
    181 H181       -2.9145  -10.1296  -46.0744 H         1 UNK         0.0600 
    182 H182       -1.1869  -10.0533  -46.4243 H         1 UNK         0.0600 
    183 H183       -1.8784   -9.0517  -45.1537 H         1 UNK         0.0600 
    184 H184       -1.6751  -12.4452  -46.2706 H         1 UNK         0.3000 
    185 H185       -1.3900  -15.6259  -44.9548 H         1 UNK         0.0600 
    186 H186       -3.9370  -14.6785  -46.3840 H         1 UNK         0.0600 
    187 H187       -3.3422  -16.3367  -46.3406 H         1 UNK         0.0600 
    188 H188       -3.8995  -15.5645  -44.8639 H         1 UNK         0.0600 
    189 H189       -1.7692  -14.9069  -47.6504 H         1 UNK         0.3000 
    190 H190       -0.0914  -20.2744  -46.8339 H         1 UNK         0.3000 
    191 H191       -0.6757  -20.8381  -49.5666 H         1 UNK         0.0600 
    192 H192       -0.9034  -18.5735  -48.5946 H         1 UNK         0.0600 
    193 H193       -2.2061  -19.1213  -47.5441 H         1 UNK         0.0600 
    194 H194       -2.4305  -19.0974  -49.2888 H         1 UNK         0.0600 
    195 H195       -2.5519  -21.4810  -46.5606 H         1 UNK         0.3000 
    196 H196       -4.8022  -22.6656  -47.6976 H         1 UNK         0.0600 
    197 H197       -4.6526  -21.9451  -45.3334 H         1 UNK         0.0600 
    198 H198       -3.5093  -23.2426  -44.9868 H         1 UNK         0.0600 
    199 H199       -5.1685  -23.6212  -45.4285 H         1 UNK         0.0600 
    200 H200       -1.6613  -24.1665  -47.0691 H         1 UNK         0.3000 
    201 H201       -2.3611  -26.8790  -47.4045 H         1 UNK         0.0600 
    202 H202       -0.1985  -26.0776  -46.4530 H         1 UNK         0.0600 
    203 H203        0.2870  -25.4766  -48.0379 H         1 UNK         0.0600 
    204 H204        0.0685  -27.2005  -47.7774 H         1 UNK         0.0600 
    205 H205       -2.2339  -24.3756  -49.8411 H         1 UNK         0.3000 
    206 H206       -1.9478  -26.2129  -52.1046 H         1 UNK         0.0600 
    207 H207       -2.7448  -23.2668  -52.0612 H         1 UNK         0.0600 
    208 H208       -1.0899  -23.8527  -52.1716 H         1 UNK         0.0600 
    209 H209       -2.2334  -24.1984  -53.4568 H         1 UNK         0.0600 
    210 H210       -4.4604  -25.6008  -49.9510 H         1 UNK         0.3000 
    211 H211       -6.5940  -26.1134  -49.8171 H         1 UNK         0.0600 
    212 H212       -5.8781  -28.1075  -52.0399 H         1 UNK         0.0600 
    213 H213       -7.3164  -28.1916  -51.0229 H         1 UNK         0.0600 
    214 H214       -5.7240  -28.3566  -50.3072 H         1 UNK         0.0600 
    215 H215       -7.2287  -27.0077  -53.0965 H         1 UNK         0.3000 
    216 H216       -9.2782  -25.0608  -53.4569 H         1 UNK         0.0600 
    217 H217       -9.3927  -26.0390  -55.7558 H         1 UNK         0.0600 
    218 H218       -9.3144  -27.2977  -54.5339 H         1 UNK         0.0600 
    219 H219       -7.8802  -26.8947  -55.4794 H         1 UNK         0.0600 
    220 H220       -5.8431  -24.9356  -54.1105 H         1 UNK         0.3000 
    221 H221       -6.0944  -22.5070  -55.8233 H         1 UNK         0.0600 
    222 H222       -3.7225  -24.3607  -55.2696 H         1 UNK         0.0600 
    223 H223       -4.7241  -24.3729  -56.7166 H         1 UNK         0.0600 
    224 H224       -3.7171  -22.9810  -56.3621 H         1 UNK         0.0600 
    225 H225       -6.2842  -22.8952  -52.6290 H         1 UNK         0.3000 
    226 H226       -4.0510  -21.5393  -51.5517 H         1 UNK         0.0600 
    227 H227       -5.5145  -22.9335  -50.1617 H         1 UNK         0.0600 
    228 H228       -5.5112  -21.2999  -49.5216 H         1 UNK         0.0600 
    229 H229       -6.8903  -21.8634  -50.4560 H         1 UNK         0.0600 
    230 H230       -6.7308  -20.1724  -53.2377 H         1 UNK         0.3000 
    231 H231       -6.8353  -17.5516  -52.1592 H         1 UNK         0.0600 
    232 H232       -7.9296  -17.0250  -54.3548 H         1 UNK         0.0600 
    233 H233       -8.5983  -18.4689  -53.6108 H         1 UNK         0.0600 
    234 H234       -7.4753  -18.6128  -54.9623 H         1 UNK         0.0600 
    235 H235       -4.8376  -16.7245  -51.7759 H         1 UNK         0.3000 
    236 H236       -2.9739  -15.6012  -51.9894 H         1 UNK         0.0600 
    237 H237       -3.5260  -15.2759  -54.9834 H         1 UNK         0.0600 
    238 H238       -4.1323  -14.2089  -53.7163 H         1 UNK         0.0600 
    239 H239       -2.4078  -14.3284  -54.0179 H         1 UNK         0.0600 
    240 H240       -3.1673  -18.5677  -52.5187 H         1 UNK         0.3000 
    241 H241       -1.9412  -20.3375  -52.9160 H         1 UNK         0.0600 
    242 H242       -1.6940  -20.3086  -56.4763 H         1 UNK         0.3800 
    243 H243       -2.7776  -20.5465  -55.1167 H         1 UNK         0.3800 
    244 H244       -0.4224  -19.0816  -51.2666 H         1 UNK         0.0800 
    245 H245        0.5768  -18.6577  -52.6223 H         1 UNK         0.0800 
    246 H246        2.4930  -20.0310  -53.3286 H         1 UNK         0.0800 
    247 H247        2.9632  -21.5527  -52.6167 H         1 UNK         0.0800 
@<TRIPOS>BOND
     1    1    2 1    
     2    1  127 1    
     3    1  128 1    
     4    1  129 1    
     5    2    3 2    
     6    2    4 am   BACKBONE|DICT|INTERRES
     7    4    5 1    
     8    4  130 1    
     9    5    6 1    
    10    5   65 1    
    11    5  131 1    
    12    6    7 1    
    13    6  132 1    
    14    6  133 1    
    15    7    8 1    
    16    8    9 1    
    17    8  134 1    
    18    8  135 1    
    19    9   10 ar   
    20    9   14 ar   
    21   10   11 ar   
    22   10  136 1    
    23   11   12 ar   
    24   11  126 1    
    25   12   13 ar   
    26   12  137 1    
    27   13   14 ar   
    28   13   15 1    
    29   14  138 1    
    30   15   16 1    
    31   15  139 1    
    32   15  140 1    
    33   16   17 1    
    34   17   18 1    
    35   17  141 1    
    36   17  142 1    
    37   18   19 1    
    38   18   67 1    
    39   18  143 1    
    40   19   20 am   BACKBONE|DICT|INTERRES
    41   19  144 1    
    42   20   21 2    
    43   20   22 1    
    44   22   23 1    
    45   22   24 1    
    46   22  145 1    
    47   23  146 1    
    48   23  147 1    
    49   23  148 1    
    50   24   25 am   BACKBONE|DICT|INTERRES
    51   24  149 1    
    52   25   26 2    
    53   25   27 1    
    54   27   28 1    
    55   27   29 1    
    56   27  150 1    
    57   28  151 1    
    58   28  152 1    
    59   28  153 1    
    60   29   30 am   BACKBONE|DICT|INTERRES
    61   29  154 1    
    62   30   31 2    
    63   30   32 1    
    64   32   33 1    
    65   32   34 1    
    66   32  155 1    
    67   33  156 1    
    68   33  157 1    
    69   33  158 1    
    70   34   35 am   BACKBONE|DICT|INTERRES
    71   34  159 1    
    72   35   36 2    
    73   35   37 1    
    74   37   38 1    
    75   37   39 1    
    76   37  160 1    
    77   38  161 1    
    78   38  162 1    
    79   38  163 1    
    80   39   40 am   BACKBONE|DICT|INTERRES
    81   39  164 1    
    82   40   41 2    
    83   40   42 1    
    84   42   43 1    
    85   42   44 1    
    86   42  165 1    
    87   43  166 1    
    88   43  167 1    
    89   43  168 1    
    90   44   45 am   BACKBONE|DICT|INTERRES
    91   44  169 1    
    92   45   46 2    
    93   45   47 1    
    94   47   48 1    
    95   47   49 1    
    96   47  170 1    
    97   48  171 1    
    98   48  172 1    
    99   48  173 1    
   100   49   50 am   BACKBONE|DICT|INTERRES
   101   49  174 1    
   102   50   51 2    
   103   50   52 1    
   104   52   53 1    
   105   52   54 1    
   106   52  175 1    
   107   53  176 1    
   108   53  177 1    
   109   53  178 1    
   110   54   55 am   BACKBONE|DICT|INTERRES
   111   54  179 1    
   112   55   56 2    
   113   55   57 1    
   114   57   58 1    
   115   57   59 1    
   116   57  180 1    
   117   58  181 1    
   118   58  182 1    
   119   58  183 1    
   120   59   60 am   BACKBONE|DICT|INTERRES
   121   59  184 1    
   122   60   61 2    
   123   60   62 1    
   124   62   63 1    
   125   62   64 1    
   126   62  185 1    
   127   63  186 1    
   128   63  187 1    
   129   63  188 1    
   130   64   65 am   BACKBONE|DICT|INTERRES
   131   64  189 1    
   132   65   66 2    
   133   67   68 2    
   134   67   69 am   BACKBONE|DICT|INTERRES
   135   69   70 1    
   136   69  190 1    
   137   70   71 1    
   138   70   72 1    
   139   70  191 1    
   140   71  192 1    
   141   71  193 1    
   142   71  194 1    
   143   72   73 2    
   144   72   74 am   BACKBONE|DICT|INTERRES
   145   74   75 1    
   146   74  195 1    
   147   75   76 1    
   148   75   77 1    
   149   75  196 1    
   150   76  197 1    
   151   76  198 1    
   152   76  199 1    
   153   77   78 2    
   154   77   79 am   BACKBONE|DICT|INTERRES
   155   79   80 1    
   156   79  200 1    
   157   80   81 1    
   158   80   82 1    
   159   80  201 1    
   160   81  202 1    
   161   81  203 1    
   162   81  204 1    
   163   82   83 2    
   164   82   84 am   BACKBONE|DICT|INTERRES
   165   84   85 1    
   166   84  205 1    
   167   85   86 1    
   168   85   87 1    
   169   85  206 1    
   170   86  207 1    
   171   86  208 1    
   172   86  209 1    
   173   87   88 2    
   174   87   89 am   BACKBONE|DICT|INTERRES
   175   89   90 1    
   176   89  210 1    
   177   90   91 1    
   178   90   92 1    
   179   90  211 1    
   180   91  212 1    
   181   91  213 1    
   182   91  214 1    
   183   92   93 2    
   184   92   94 am   BACKBONE|DICT|INTERRES
   185   94   95 1    
   186   94  215 1    
   187   95   96 1    
   188   95   97 1    
   189   95  216 1    
   190   96  217 1    
   191   96  218 1    
   192   96  219 1    
   193   97   98 2    
   194   97   99 am   BACKBONE|DICT|INTERRES
   195   99  100 1    
   196   99  220 1    
   197  100  101 1    
   198  100  102 1    
   199  100  221 1    
   200  101  222 1    
   201  101  223 1    
   202  101  224 1    
   203  102  103 2    
   204  102  104 am   BACKBONE|DICT|INTERRES
   205  104  105 1    
   206  104  225 1    
   207  105  106 1    
   208  105  107 1    
   209  105  226 1    
   210  106  227 1    
   211  106  228 1    
   212  106  229 1    
   213  107  108 2    
   214  107  109 am   BACKBONE|DICT|INTERRES
   215  109  110 1    
   216  109  230 1    
   217  110  111 1    
   218  110  112 1    
   219  110  231 1    
   220  111  232 1    
   221  111  233 1    
   222  111  234 1    
   223  112  113 2    
   224  112  114 am   BACKBONE|DICT|INTERRES
   225  114  115 1    
   226  114  235 1    
   227  115  116 1    
   228  115  117 1    
   229  115  236 1    
   230  116  237 1    
   231  116  238 1    
   232  116  239 1    
   233  117  118 2    
   234  117  119 am   BACKBONE|DICT|INTERRES
   235  119  120 1    
   236  119  240 1    
   237  120  121 1    
   238  120  124 1    
   239  120  241 1    
   240  121  122 am   BACKBONE|DICT|INTERRES
   241  121  123 2    
   242  122  242 1    
   243  122  243 1    
   244  124  125 1    
   245  124  244 1    
   246  124  245 1    
   247  125  126 1    
   248  126  246 1    
   249  126  247 1    
@<TRIPOS>SUBSTRUCTURE
     1 UNK         1 GROUP             0       ****    0 ROOT    
