@<TRIPOS>MOLECULE
3R540
247   249    1
SMALL
USER_CHARGES


@<TRIPOS>ATOM
      1 CA          3.5904  -16.4860  -48.3707 C.3       0 UNK        -0.1800 
      2 C           3.4317  -15.2375  -49.2285 C.2       0 UNK         0.5000 
      3 O           4.4249  -14.5714  -49.5178 O.2       0 UNK        -0.5000 
      4 N           2.1905  -14.9322  -49.6392 N.am      1 UNK        -0.5000 
      5 CA          1.8016  -13.7804  -50.4660 C.3       1 UNK         0.1400 
      6 C6          2.3745  -13.8241  -51.9131 C.3       23 UNK        -0.0398 
      7 S7          1.5038  -15.0383  -52.9675 S.3       23 UNK        -0.2404 
      8 C8          2.5688  -16.5129  -52.8953 C.3       23 UNK        -0.0205 
      9 C9          1.7518  -17.7372  -52.5117 C.ar      23 UNK        -0.0193 
     10 C10         1.2460  -18.6055  -53.4829 C.ar      23 UNK        -0.1150 
     11 C11         0.4612  -19.7103  -53.1169 C.ar      23 UNK        -0.0193 
     12 C12         0.1926  -19.9344  -51.7611 C.ar      23 UNK        -0.1150 
     13 C13         0.7169  -19.0861  -50.7817 C.ar      23 UNK        -0.0193 
     14 C14         1.4960  -17.9987  -51.1678 C.ar      23 UNK        -0.1150 
     15 C15         0.4560  -19.3241  -49.3044 C.3       23 UNK        -0.0205 
     16 S16         1.5020  -20.6579  -48.6430 S.3       23 UNK        -0.2404 
     17 C17         0.2532  -21.9520  -48.3588 C.3       23 UNK        -0.0398 
     18 CA          0.6201  -22.9255  -47.2146 C.3       11 UNK         0.1400 
     19 N           0.9036  -22.2459  -45.9481 N.am      11 UNK        -0.5000 
     20 C           1.6592  -22.7564  -44.9667 C.2       10 UNK         0.5000 
     21 O           2.2208  -23.8501  -45.0371 O.2       10 UNK        -0.5000 
     22 CA          1.8050  -21.9144  -43.6828 C.3       10 UNK         0.1400 
     23 CB          2.9824  -20.9365  -43.8137 C.3       10 UNK        -0.1800 
     24 N           0.5961  -21.1643  -43.3424 N.am      10 UNK        -0.5000 
     25 C          -0.5807  -21.7163  -43.0148 C.2       9 UNK         0.5000 
     26 O          -0.7560  -22.9278  -42.8818 O.2       9 UNK        -0.5000 
     27 CA         -1.7760  -20.7566  -42.8535 C.3       9 UNK         0.1400 
     28 CB         -1.8915  -20.2847  -41.3976 C.3       9 UNK        -0.1800 
     29 N          -1.7291  -19.5924  -43.7450 N.am      9 UNK        -0.5000 
     30 C          -1.6834  -19.6535  -45.0844 C.2       8 UNK         0.5000 
     31 O          -1.6314  -20.7095  -45.7138 O.2       8 UNK        -0.5000 
     32 CA         -1.6383  -18.3173  -45.8429 C.3       8 UNK         0.1400 
     33 CB         -3.0302  -17.6717  -45.9099 C.3       8 UNK        -0.1800 
     34 N          -0.6891  -17.3893  -45.2310 N.am      8 UNK        -0.5000 
     35 C           0.6425  -17.4992  -45.3393 C.2       7 UNK         0.5000 
     36 O           1.2056  -18.3465  -46.0289 O.2       7 UNK        -0.5000 
     37 CA          1.4890  -16.5230  -44.5043 C.3       7 UNK         0.1400 
     38 CB          1.6847  -15.1901  -45.2435 C.3       7 UNK        -0.1800 
     39 N           0.9016  -16.2694  -43.1892 N.am      7 UNK        -0.5000 
     40 C           0.8189  -17.1836  -42.2102 C.2       6 UNK         0.5000 
     41 O           1.2475  -18.3334  -42.3107 O.2       6 UNK        -0.5000 
     42 CA          0.1079  -16.7542  -40.9119 C.3       6 UNK         0.1400 
     43 CB          1.1199  -16.1637  -39.9190 C.3       6 UNK        -0.1800 
     44 N          -0.9683  -15.7868  -41.1282 N.am      6 UNK        -0.5000 
     45 C          -2.0603  -15.9920  -41.8790 C.2       5 UNK         0.5000 
     46 O          -2.3062  -17.0532  -42.4528 O.2       5 UNK        -0.5000 
     47 CA         -3.0063  -14.7893  -42.0616 C.3       5 UNK         0.1400 
     48 CB         -4.1410  -14.8382  -41.0280 C.3       5 UNK        -0.1800 
     49 N          -2.3253  -13.4915  -41.9739 N.am      5 UNK        -0.5000 
     50 C          -1.3816  -13.0707  -42.8271 C.2       4 UNK         0.5000 
     51 O          -0.9658  -13.7458  -43.7703 O.2       4 UNK        -0.5000 
     52 CA         -0.7486  -11.6983  -42.5398 C.3       4 UNK         0.1400 
     53 CB          0.6457  -11.8775  -41.9183 C.3       4 UNK        -0.1800 
     54 N          -0.6277  -10.8967  -43.7562 N.am      4 UNK        -0.5000 
     55 C          -1.6591  -10.3558  -44.4189 C.2       3 UNK         0.5000 
     56 O          -2.8283  -10.4339  -44.0385 O.2       3 UNK        -0.5000 
     57 CA         -1.3393   -9.5768  -45.7116 C.3       3 UNK         0.1400 
     58 CB         -1.3509   -8.0639  -45.4407 C.3       3 UNK        -0.1800 
     59 N          -0.0579   -9.9358  -46.3281 N.am      3 UNK        -0.5000 
     60 C           0.1803  -11.0900  -46.9627 C.2       2 UNK         0.5000 
     61 O          -0.6491  -11.9978  -47.0673 O.2       2 UNK        -0.5000 
     62 CA          1.5791  -11.2518  -47.5802 C.3       2 UNK         0.1400 
     63 CB          2.6419  -11.4833  -46.4926 C.3       2 UNK        -0.1800 
     64 N           1.5597  -12.4012  -48.4770 N.am      2 UNK        -0.5000 
     65 C           2.0684  -12.4571  -49.7129 C.2       1 UNK         0.5000 
     66 O           2.7094  -11.5436  -50.2361 O.2       1 UNK        -0.5000 
     67 C          -0.5183  -23.9458  -47.0469 C.2       11 UNK         0.5000 
     68 O          -0.4498  -25.0255  -47.6334 O.2       11 UNK        -0.5000 
     69 N          -1.5510  -23.5787  -46.2714 N.am      12 UNK        -0.5000 
     70 CA         -2.8269  -24.2885  -46.1047 C.3       12 UNK         0.1400 
     71 CB         -3.7009  -23.5161  -45.1066 C.3       12 UNK        -0.1800 
     72 C          -2.7280  -25.7704  -45.7016 C.2       12 UNK         0.5000 
     73 O          -3.6400  -26.5366  -46.0127 O.2       12 UNK        -0.5000 
     74 N          -1.6127  -26.1568  -45.0704 N.am      13 UNK        -0.5000 
     75 CA         -1.2609  -27.5389  -44.7452 C.3       13 UNK         0.1400 
     76 CB          0.0171  -27.5299  -43.8922 C.3       13 UNK        -0.1800 
     77 C          -1.0786  -28.4537  -45.9773 C.2       13 UNK         0.5000 
     78 O          -1.2297  -29.6685  -45.8388 O.2       13 UNK        -0.5000 
     79 N          -0.7594  -27.8727  -47.1433 N.am      14 UNK        -0.5000 
     80 CA         -0.5519  -28.5896  -48.4033 C.3       14 UNK         0.1400 
     81 CB          0.9480  -28.5915  -48.7395 C.3       14 UNK        -0.1800 
     82 C          -1.3631  -27.9864  -49.5631 C.2       14 UNK         0.5000 
     83 O          -1.8735  -28.7389  -50.3936 O.2       14 UNK        -0.5000 
     84 N          -1.4642  -26.6512  -49.6177 N.am      15 UNK        -0.5000 
     85 CA         -2.1176  -25.9103  -50.6999 C.3       15 UNK         0.1400 
     86 CB         -1.6025  -24.4619  -50.6945 C.3       15 UNK        -0.1800 
     87 C          -3.6534  -25.9219  -50.6134 C.2       15 UNK         0.5000 
     88 O          -4.3107  -25.7176  -51.6351 O.2       15 UNK        -0.5000 
     89 N          -4.1962  -26.1371  -49.4049 N.am      16 UNK        -0.5000 
     90 CA         -5.6232  -26.1237  -49.0701 C.3       16 UNK         0.1400 
     91 CB         -6.3097  -27.3959  -49.6151 C.3       16 UNK        -0.1800 
     92 C          -6.2936  -24.8034  -49.5099 C.2       16 UNK         0.5000 
     93 O          -5.9376  -23.7483  -48.9856 O.2       16 UNK        -0.5000 
     94 N          -7.2136  -24.8691  -50.4814 N.am      17 UNK        -0.5000 
     95 CA         -7.9278  -23.7229  -51.0481 C.3       17 UNK         0.1400 
     96 CB         -9.0576  -24.2402  -51.9514 C.3       17 UNK        -0.1800 
     97 C          -7.0320  -22.7334  -51.8225 C.2       17 UNK         0.5000 
     98 O          -7.3931  -21.5611  -51.9328 O.2       17 UNK        -0.5000 
     99 N          -5.8792  -23.1967  -52.3299 N.am      18 UNK        -0.5000 
    100 CA        -4.9141  -22.3719  -53.0653 C.3       18 UNK         0.1400 
    101 CB        -4.0535  -23.2693  -53.9691 C.3       18 UNK        -0.1800 
    102 C         -4.0334  -21.4946  -52.1521 C.2       18 UNK         0.5000 
    103 O         -3.2541  -20.6915  -52.6616 O.2       18 UNK        -0.5000 
    104 N         -4.1683  -21.6384  -50.8260 N.am      19 UNK        -0.5000 
    105 CA        -3.4287  -20.8810  -49.8150 C.3       19 UNK         0.1400 
    106 CB        -3.7148  -21.4940  -48.4431 C.3       19 UNK        -0.1800 
    107 C         -3.7266  -19.3696  -49.7839 C.2       19 UNK         0.5000 
    108 O         -2.9598  -18.6202  -49.1799 O.2       19 UNK        -0.5000 
    109 N         -4.8139  -18.9333  -50.4309 N.am      20 UNK        -0.5000 
    110 CA        -5.2565  -17.5414  -50.5308 C.3       20 UNK         0.1400 
    111 CB        -6.7502  -17.5372  -50.9050 C.3       20 UNK        -0.1800 
    112 C         -4.3952  -16.6846  -51.4916 C.2       20 UNK         0.5000 
    113 O         -4.9479  -15.9803  -52.3378 O.2       20 UNK        -0.5000 
    114 N         -3.0646  -16.7520  -51.3269 N.am      21 UNK        -0.5000 
    115 CA        -2.0175  -16.0017  -52.0288 C.3       21 UNK         0.1400 
    116 CB        -2.0246  -14.5325  -51.5579 C.3       21 UNK        -0.1800 
    117 C         -2.1094  -16.1350  -53.5630 C.2       21 UNK         0.5000 
    118 O         -2.4755  -15.1771  -54.2474 O.2       21 UNK        -0.5000 
    119 N         -1.8058  -17.3364  -54.0722 N.am      22 UNK        -0.5000 
    120 CA        -1.9091  -17.6865  -55.5000 C.3       22 UNK         0.1400 
    121 C         -0.9412  -16.9408  -56.4722 C.2       22 UNK         0.5000 
    122 N          0.0680  -16.2217  -55.9957 N.am      22 UNK        -0.7600 
    123 O         -1.1215  -17.0072  -57.6853 O.2       22 UNK        -0.5000 
    124 C124       -1.9312  -19.2265  -55.7154 C.3       23 UNK        -0.0398 
    125 S125       -0.3055  -20.0607  -55.8277 S.3       23 UNK        -0.2404 
    126 C126       -0.0553  -20.7183  -54.1441 C.3       23 UNK        -0.0205 
    127 H127        4.1370  -17.2513  -48.9217 H         1 UNK         0.0600 
    128 H128        2.6281  -16.9044  -48.0751 H         1 UNK         0.0600 
    129 H129        4.1508  -16.2536  -47.4652 H         1 UNK         0.0600 
    130 H130        1.4236  -15.5186  -49.3453 H         1 UNK         0.3000 
    131 H131        0.7155  -13.8286  -50.5500 H         1 UNK         0.0600 
    132 H132        2.2392  -12.8596  -52.4050 H         1 UNK         0.0800 
    133 H133        3.4490  -14.0081  -51.9202 H         1 UNK         0.0800 
    134 H134        3.3762  -16.3697  -52.1760 H         1 UNK         0.0800 
    135 H135        3.0448  -16.6597  -53.8659 H         1 UNK         0.0800 
    136 H136        1.4724  -18.4168  -54.5222 H         1 UNK         0.1150 
    137 H137       -0.4021  -20.7870  -51.4654 H         1 UNK         0.1150 
    138 H138        1.9063  -17.3528  -50.4138 H         1 UNK         0.1150 
    139 H139        0.6534  -18.4175  -48.7312 H         1 UNK         0.0800 
    140 H140       -0.5988  -19.5376  -49.1538 H         1 UNK         0.0800 
    141 H141        0.1247  -22.4930  -49.2972 H         1 UNK         0.0800 
    142 H142       -0.7047  -21.4790  -48.1411 H         1 UNK         0.0800 
    143 H143        1.5128  -23.4749  -47.5216 H         1 UNK         0.0600 
    144 H144        0.4475  -21.3535  -45.8066 H         1 UNK         0.3000 
    145 H145        2.0177  -22.5990  -42.8593 H         1 UNK         0.0600 
    146 H146        2.8089  -20.2027  -44.6021 H         1 UNK         0.0600 
    147 H147        3.1496  -20.3938  -42.8831 H         1 UNK         0.0600 
    148 H148        3.9061  -21.4649  -44.0529 H         1 UNK         0.0600 
    149 H149        0.6660  -20.1537  -43.3674 H         1 UNK         0.3000 
    150 H150       -2.6813  -21.3136  -43.1012 H         1 UNK         0.0600 
    151 H151       -2.0298  -21.1315  -40.7243 H         1 UNK         0.0600 
    152 H152       -2.7426  -19.6173  -41.2610 H         1 UNK         0.0600 
    153 H153       -0.9930  -19.7582  -41.0785 H         1 UNK         0.0600 
    154 H154       -1.8015  -18.6800  -43.3023 H         1 UNK         0.3000 
    155 H155       -1.3159  -18.5246  -46.8654 H         1 UNK         0.0600 
    156 H156       -3.7482  -18.3480  -46.3760 H         1 UNK         0.0600 
    157 H157       -3.4114  -17.4174  -44.9206 H         1 UNK         0.0600 
    158 H158       -3.0107  -16.7606  -46.5080 H         1 UNK         0.0600 
    159 H159       -1.0691  -16.6856  -44.6139 H         1 UNK         0.3000 
    160 H160        2.4715  -16.9758  -44.3537 H         1 UNK         0.0600 
    161 H161        2.2624  -14.4881  -44.6423 H         1 UNK         0.0600 
    162 H162        2.2245  -15.3361  -46.1774 H         1 UNK         0.0600 
    163 H163        0.7341  -14.7179  -45.4920 H         1 UNK         0.0600 
    164 H164        0.4734  -15.3628  -43.0538 H         1 UNK         0.3000 
    165 H165       -0.3321  -17.6439  -40.4600 H         1 UNK         0.0600 
    166 H166        0.6475  -15.9318  -38.9643 H         1 UNK         0.0600 
    167 H167        1.9266  -16.8700  -39.7175 H         1 UNK         0.0600 
    168 H168        1.5729  -15.2482  -40.3018 H         1 UNK         0.0600 
    169 H169       -0.8557  -14.8824  -40.6955 H         1 UNK         0.3000 
    170 H170       -3.4464  -14.8700  -43.0578 H         1 UNK         0.0600 
    171 H171       -4.6806  -15.7846  -41.0853 H         1 UNK         0.0600 
    172 H172       -3.7637  -14.7365  -40.0097 H         1 UNK         0.0600 
    173 H173       -4.8658  -14.0421  -41.1997 H         1 UNK         0.0600 
    174 H174       -2.6110  -12.8846  -41.2188 H         1 UNK         0.3000 
    175 H175       -1.3767  -11.1547  -41.8308 H         1 UNK         0.0600 
    176 H176        1.3238  -12.4019  -42.5933 H         1 UNK         0.0600 
    177 H177        1.0949  -10.9150  -41.6728 H         1 UNK         0.0600 
    178 H178        0.5916  -12.4546  -40.9942 H         1 UNK         0.0600 
    179 H179        0.2942  -10.8126  -44.1559 H         1 UNK         0.3000 
    180 H180       -2.1345   -9.7981  -46.4268 H         1 UNK         0.0600 
    181 H181       -0.5647   -7.7741  -44.7425 H         1 UNK         0.0600 
    182 H182       -2.3033   -7.7504  -45.0107 H         1 UNK         0.0600 
    183 H183       -1.2104   -7.4966  -46.3609 H         1 UNK         0.0600 
    184 H184        0.6723   -9.2395  -46.2820 H         1 UNK         0.3000 
    185 H185        1.8139  -10.3408  -48.1347 H         1 UNK         0.0600 
    186 H186        3.6262  -11.6424  -46.9335 H         1 UNK         0.0600 
    187 H187        2.7208  -10.6233  -45.8269 H         1 UNK         0.0600 
    188 H188        2.4067  -12.3536  -45.8798 H         1 UNK         0.0600 
    189 H189        0.9851  -13.1664  -48.1503 H         1 UNK         0.3000 
    190 H190       -1.5143  -22.6493  -45.8621 H         1 UNK         0.3000 
    191 H191       -3.3301  -24.2777  -47.0714 H         1 UNK         0.0600 
    192 H192       -3.2480  -23.4942  -44.1152 H         1 UNK         0.0600 
    193 H193       -4.6847  -23.9770  -45.0087 H         1 UNK         0.0600 
    194 H194       -3.8571  -22.4867  -45.4298 H         1 UNK         0.0600 
    195 H195       -0.9220  -25.4507  -44.8593 H         1 UNK         0.3000 
    196 H196       -2.0720  -27.9566  -44.1455 H         1 UNK         0.0600 
    197 H197        0.3023  -28.5421  -43.6024 H         1 UNK         0.0600 
    198 H198       -0.1243  -26.9580  -42.9749 H         1 UNK         0.0600 
    199 H199        0.8575  -27.0934  -44.4338 H         1 UNK         0.0600 
    200 H200       -0.6517  -26.8632  -47.1708 H         1 UNK         0.3000 
    201 H201       -0.8762  -29.6277  -48.3064 H         1 UNK         0.0600 
    202 H202        1.5229  -29.0993  -47.9650 H         1 UNK         0.0600 
    203 H203        1.3393  -27.5779  -48.8363 H         1 UNK         0.0600 
    204 H204        1.1389  -29.1107  -49.6796 H         1 UNK         0.0600 
    205 H205       -1.0103  -26.0864  -48.9024 H         1 UNK         0.3000 
    206 H206       -1.8366  -26.3665  -51.6516 H         1 UNK         0.0600 
    207 H207       -0.5149  -24.4299  -50.7598 H         1 UNK         0.0600 
    208 H208       -1.9927  -23.9005  -51.5430 H         1 UNK         0.0600 
    209 H209       -1.9039  -23.9330  -49.7907 H         1 UNK         0.0600 
    210 H210       -3.5690  -26.2996  -48.6305 H         1 UNK         0.3000 
    211 H211       -5.6897  -26.1512  -47.9816 H         1 UNK         0.0600 
    212 H212       -6.2507  -27.4666  -50.7018 H         1 UNK         0.0600 
    213 H213       -7.3627  -27.4285  -49.3324 H         1 UNK         0.0600 
    214 H214       -5.8422  -28.2912  -49.2048 H         1 UNK         0.0600 
    215 H215       -7.4202  -25.7721  -50.8830 H         1 UNK         0.3000 
    216 H216       -8.3790  -23.1705  -50.2212 H         1 UNK         0.0600 
    217 H217       -9.6346  -23.4139  -52.3689 H         1 UNK         0.0600 
    218 H218       -9.7520  -24.8698  -51.3946 H         1 UNK         0.0600 
    219 H219       -8.6688  -24.8241  -52.7866 H         1 UNK         0.0600 
    220 H220       -5.6150  -24.1627  -52.1642 H         1 UNK         0.3000 
    221 H221       -5.4671  -21.6904  -53.7152 H         1 UNK         0.0600 
    222 H222       -3.4429  -23.9628  -53.3931 H         1 UNK         0.0600 
    223 H223       -4.6737  -23.8547  -54.6479 H         1 UNK         0.0600 
    224 H224       -3.3769  -22.6728  -54.5827 H         1 UNK         0.0600 
    225 H225       -4.8368  -22.3143  -50.4787 H         1 UNK         0.3000 
    226 H226       -2.3652  -20.9966  -50.0280 H         1 UNK         0.0600 
    227 H227       -3.4068  -22.5359  -48.4197 H         1 UNK         0.0600 
    228 H228       -3.1727  -20.9704  -47.6593 H         1 UNK         0.0600 
    229 H229       -4.7747  -21.4459  -48.1912 H         1 UNK         0.0600 
    230 H230       -5.3738  -19.6156  -50.9215 H         1 UNK         0.3000 
    231 H231       -5.1657  -17.0856  -49.5427 H         1 UNK         0.0600 
    232 H232       -7.1497  -16.5224  -50.9231 H         1 UNK         0.0600 
    233 H233       -7.3397  -18.1011  -50.1817 H         1 UNK         0.0600 
    234 H234       -6.9184  -17.9769  -51.8890 H         1 UNK         0.0600 
    235 H235       -2.7416  -17.3756  -50.5920 H         1 UNK         0.3000 
    236 H236       -1.0636  -16.4385  -51.7298 H         1 UNK         0.0600 
    237 H237       -1.2451  -13.9570  -52.0579 H         1 UNK         0.0600 
    238 H238       -1.8457  -14.4624  -50.4850 H         1 UNK         0.0600 
    239 H239       -2.9752  -14.0425  -51.7708 H         1 UNK         0.0600 
    240 H240       -1.5036  -18.0762  -53.4543 H         1 UNK         0.3000 
    241 H241       -2.9006  -17.3389  -55.7974 H         1 UNK         0.0600 
    242 H242        0.2133  -16.1331  -55.0022 H         1 UNK         0.3800 
    243 H243        0.6774  -15.7400  -56.6371 H         1 UNK         0.3800 
    244 H244       -2.4447  -19.4364  -56.6549 H         1 UNK         0.0800 
    245 H245       -2.5407  -19.7097  -54.9525 H         1 UNK         0.0800 
    246 H246       -0.9813  -21.1792  -53.8005 H         1 UNK         0.0800 
    247 H247        0.6754  -21.5253  -54.2068 H         1 UNK         0.0800 
@<TRIPOS>BOND
     1    1    2 1    
     2    1  127 1    
     3    1  128 1    
     4    1  129 1    
     5    2    3 2    
     6    2    4 am   BACKBONE|DICT|INTERRES
     7    4    5 1    
     8    4  130 1    
     9    5    6 1    
    10    5   65 1    
    11    5  131 1    
    12    6    7 1    
    13    6  132 1    
    14    6  133 1    
    15    7    8 1    
    16    8    9 1    
    17    8  134 1    
    18    8  135 1    
    19    9   10 ar   
    20    9   14 ar   
    21   10   11 ar   
    22   10  136 1    
    23   11   12 ar   
    24   11  126 1    
    25   12   13 ar   
    26   12  137 1    
    27   13   14 ar   
    28   13   15 1    
    29   14  138 1    
    30   15   16 1    
    31   15  139 1    
    32   15  140 1    
    33   16   17 1    
    34   17   18 1    
    35   17  141 1    
    36   17  142 1    
    37   18   19 1    
    38   18   67 1    
    39   18  143 1    
    40   19   20 am   BACKBONE|DICT|INTERRES
    41   19  144 1    
    42   20   21 2    
    43   20   22 1    
    44   22   23 1    
    45   22   24 1    
    46   22  145 1    
    47   23  146 1    
    48   23  147 1    
    49   23  148 1    
    50   24   25 am   BACKBONE|DICT|INTERRES
    51   24  149 1    
    52   25   26 2    
    53   25   27 1    
    54   27   28 1    
    55   27   29 1    
    56   27  150 1    
    57   28  151 1    
    58   28  152 1    
    59   28  153 1    
    60   29   30 am   BACKBONE|DICT|INTERRES
    61   29  154 1    
    62   30   31 2    
    63   30   32 1    
    64   32   33 1    
    65   32   34 1    
    66   32  155 1    
    67   33  156 1    
    68   33  157 1    
    69   33  158 1    
    70   34   35 am   BACKBONE|DICT|INTERRES
    71   34  159 1    
    72   35   36 2    
    73   35   37 1    
    74   37   38 1    
    75   37   39 1    
    76   37  160 1    
    77   38  161 1    
    78   38  162 1    
    79   38  163 1    
    80   39   40 am   BACKBONE|DICT|INTERRES
    81   39  164 1    
    82   40   41 2    
    83   40   42 1    
    84   42   43 1    
    85   42   44 1    
    86   42  165 1    
    87   43  166 1    
    88   43  167 1    
    89   43  168 1    
    90   44   45 am   BACKBONE|DICT|INTERRES
    91   44  169 1    
    92   45   46 2    
    93   45   47 1    
    94   47   48 1    
    95   47   49 1    
    96   47  170 1    
    97   48  171 1    
    98   48  172 1    
    99   48  173 1    
   100   49   50 am   BACKBONE|DICT|INTERRES
   101   49  174 1    
   102   50   51 2    
   103   50   52 1    
   104   52   53 1    
   105   52   54 1    
   106   52  175 1    
   107   53  176 1    
   108   53  177 1    
   109   53  178 1    
   110   54   55 am   BACKBONE|DICT|INTERRES
   111   54  179 1    
   112   55   56 2    
   113   55   57 1    
   114   57   58 1    
   115   57   59 1    
   116   57  180 1    
   117   58  181 1    
   118   58  182 1    
   119   58  183 1    
   120   59   60 am   BACKBONE|DICT|INTERRES
   121   59  184 1    
   122   60   61 2    
   123   60   62 1    
   124   62   63 1    
   125   62   64 1    
   126   62  185 1    
   127   63  186 1    
   128   63  187 1    
   129   63  188 1    
   130   64   65 am   BACKBONE|DICT|INTERRES
   131   64  189 1    
   132   65   66 2    
   133   67   68 2    
   134   67   69 am   BACKBONE|DICT|INTERRES
   135   69   70 1    
   136   69  190 1    
   137   70   71 1    
   138   70   72 1    
   139   70  191 1    
   140   71  192 1    
   141   71  193 1    
   142   71  194 1    
   143   72   73 2    
   144   72   74 am   BACKBONE|DICT|INTERRES
   145   74   75 1    
   146   74  195 1    
   147   75   76 1    
   148   75   77 1    
   149   75  196 1    
   150   76  197 1    
   151   76  198 1    
   152   76  199 1    
   153   77   78 2    
   154   77   79 am   BACKBONE|DICT|INTERRES
   155   79   80 1    
   156   79  200 1    
   157   80   81 1    
   158   80   82 1    
   159   80  201 1    
   160   81  202 1    
   161   81  203 1    
   162   81  204 1    
   163   82   83 2    
   164   82   84 am   BACKBONE|DICT|INTERRES
   165   84   85 1    
   166   84  205 1    
   167   85   86 1    
   168   85   87 1    
   169   85  206 1    
   170   86  207 1    
   171   86  208 1    
   172   86  209 1    
   173   87   88 2    
   174   87   89 am   BACKBONE|DICT|INTERRES
   175   89   90 1    
   176   89  210 1    
   177   90   91 1    
   178   90   92 1    
   179   90  211 1    
   180   91  212 1    
   181   91  213 1    
   182   91  214 1    
   183   92   93 2    
   184   92   94 am   BACKBONE|DICT|INTERRES
   185   94   95 1    
   186   94  215 1    
   187   95   96 1    
   188   95   97 1    
   189   95  216 1    
   190   96  217 1    
   191   96  218 1    
   192   96  219 1    
   193   97   98 2    
   194   97   99 am   BACKBONE|DICT|INTERRES
   195   99  100 1    
   196   99  220 1    
   197  100  101 1    
   198  100  102 1    
   199  100  221 1    
   200  101  222 1    
   201  101  223 1    
   202  101  224 1    
   203  102  103 2    
   204  102  104 am   BACKBONE|DICT|INTERRES
   205  104  105 1    
   206  104  225 1    
   207  105  106 1    
   208  105  107 1    
   209  105  226 1    
   210  106  227 1    
   211  106  228 1    
   212  106  229 1    
   213  107  108 2    
   214  107  109 am   BACKBONE|DICT|INTERRES
   215  109  110 1    
   216  109  230 1    
   217  110  111 1    
   218  110  112 1    
   219  110  231 1    
   220  111  232 1    
   221  111  233 1    
   222  111  234 1    
   223  112  113 2    
   224  112  114 am   BACKBONE|DICT|INTERRES
   225  114  115 1    
   226  114  235 1    
   227  115  116 1    
   228  115  117 1    
   229  115  236 1    
   230  116  237 1    
   231  116  238 1    
   232  116  239 1    
   233  117  118 2    
   234  117  119 am   BACKBONE|DICT|INTERRES
   235  119  120 1    
   236  119  240 1    
   237  120  121 1    
   238  120  124 1    
   239  120  241 1    
   240  121  122 am   BACKBONE|DICT|INTERRES
   241  121  123 2    
   242  122  242 1    
   243  122  243 1    
   244  124  125 1    
   245  124  244 1    
   246  124  245 1    
   247  125  126 1    
   248  126  246 1    
   249  126  247 1    
@<TRIPOS>SUBSTRUCTURE
     1 UNK         1 GROUP             0       ****    0 ROOT    
