@<TRIPOS>MOLECULE
3R540
247   249    1
SMALL
USER_CHARGES


@<TRIPOS>ATOM
      1 CA          5.5193  -16.5553  -45.0010 C.3       0 UNK        -0.1800 
      2 C           4.2809  -15.6735  -44.9565 C.2       0 UNK         0.5000 
      3 O           3.8622  -15.2662  -43.8705 O.2       0 UNK        -0.5000 
      4 N           3.6890  -15.3831  -46.1225 N.am      1 UNK        -0.5000 
      5 CA          2.5472  -14.4759  -46.2645 C.3       1 UNK         0.1400 
      6 C6          1.7656  -14.7177  -47.5790 C.3       23 UNK        -0.0398 
      7 S7          0.2556  -13.6966  -47.7214 S.3       23 UNK        -0.2404 
      8 C8         -0.0208  -13.6907  -49.5204 C.3       23 UNK        -0.0205 
      9 C9         -0.6796  -14.9806  -49.9806 C.ar      23 UNK        -0.0193 
     10 C10        -2.0648  -15.0439  -50.1531 C.ar      23 UNK        -0.1150 
     11 C11        -2.6752  -16.2348  -50.5561 C.ar      23 UNK        -0.0193 
     12 C12        -1.8933  -17.3763  -50.7589 C.ar      23 UNK        -0.1150 
     13 C13        -0.5051  -17.3227  -50.5978 C.ar      23 UNK        -0.0193 
     14 C14         0.0954  -16.1145  -50.2313 C.ar      23 UNK        -0.1150 
     15 C15         0.3400  -18.5725  -50.8157 C.3       23 UNK        -0.0205 
     16 S16         1.5342  -18.8855  -49.4671 S.3       23 UNK        -0.2404 
     17 C17         0.4558  -18.9131  -47.9941 C.3       23 UNK        -0.0398 
     18 CA          0.0794  -20.3398  -47.5393 C.3       11 UNK         0.1400 
     19 N          -0.4116  -20.3423  -46.1610 N.am      11 UNK        -0.5000 
     20 C          -0.6701  -21.4445  -45.4439 C.2       10 UNK         0.5000 
     21 O          -0.4608  -22.5892  -45.8433 O.2       10 UNK        -0.5000 
     22 CA         -1.3095  -21.2304  -44.0632 C.3       10 UNK         0.1400 
     23 CB         -0.2288  -20.9766  -43.0085 C.3       10 UNK        -0.1800 
     24 N          -2.2641  -20.1211  -44.0684 N.am      10 UNK        -0.5000 
     25 C          -3.4559  -20.1726  -44.6792 C.2       9 UNK         0.5000 
     26 O          -3.8726  -21.1630  -45.2804 O.2       9 UNK        -0.5000 
     27 CA         -4.3054  -18.8903  -44.6452 C.3       9 UNK         0.1400 
     28 CB         -4.9714  -18.7119  -43.2724 C.3       9 UNK        -0.1800 
     29 N          -3.5414  -17.6861  -44.9762 N.am      9 UNK        -0.5000 
     30 C          -2.9613  -17.4555  -46.1625 C.2       8 UNK         0.5000 
     31 O          -2.9697  -18.2551  -47.0952 O.2       8 UNK        -0.5000 
     32 CA         -2.2304  -16.1136  -46.3328 C.3       8 UNK         0.1400 
     33 CB         -3.2177  -15.0322  -46.7978 C.3       8 UNK        -0.1800 
     34 N          -1.5449  -15.6527  -45.1227 N.am      8 UNK        -0.5000 
     35 C          -0.5543  -16.3062  -44.5014 C.2       7 UNK         0.5000 
     36 O          -0.1391  -17.4117  -44.8633 O.2       7 UNK        -0.5000 
     37 CA          0.0819  -15.5657  -43.3035 C.3       7 UNK         0.1400 
     38 CB         -0.9485  -15.2450  -42.1993 C.3       7 UNK        -0.1800 
     39 N           1.2572  -16.2600  -42.7646 N.am      7 UNK        -0.5000 
     40 C           1.2807  -17.4145  -42.0779 C.2       6 UNK         0.5000 
     41 O           0.2766  -18.0087  -41.6865 O.2       6 UNK        -0.5000 
     42 CA          2.6656  -17.9982  -41.7537 C.3       6 UNK         0.1400 
     43 CB          3.1793  -18.8600  -42.9193 C.3       6 UNK        -0.1800 
     44 N           3.6287  -16.9305  -41.4930 N.am      6 UNK        -0.5000 
     45 C           4.2121  -16.6907  -40.3127 C.2       5 UNK         0.5000 
     46 O           4.0487  -17.3792  -39.3046 O.2       5 UNK        -0.5000 
     47 CA          5.1297  -15.4594  -40.2496 C.3       5 UNK         0.1400 
     48 CB          6.5474  -15.8163  -40.7233 C.3       5 UNK        -0.1800 
     49 N           4.6211  -14.3635  -41.0699 N.am      5 UNK        -0.5000 
     50 C           3.6278  -13.5323  -40.7286 C.2       4 UNK         0.5000 
     51 O           3.0267  -13.5968  -39.6552 O.2       4 UNK        -0.5000 
     52 CA          3.2433  -12.4558  -41.7697 C.3       4 UNK         0.1400 
     53 CB          2.7291  -11.1538  -41.1229 C.3       4 UNK        -0.1800 
     54 N           4.3085  -12.1760  -42.7421 N.am      4 UNK        -0.5000 
     55 C           5.5384  -11.6914  -42.5006 C.2       3 UNK         0.5000 
     56 O           5.9241  -11.3147  -41.3938 O.2       3 UNK        -0.5000 
     57 CA          6.5292  -11.6746  -43.6820 C.3       3 UNK         0.1400 
     58 CB          7.5507  -12.8135  -43.5269 C.3       3 UNK        -0.1800 
     59 N           5.8718  -11.8171  -44.9812 N.am      3 UNK        -0.5000 
     60 C           5.2489  -10.8270  -45.6331 C.2       2 UNK         0.5000 
     61 O           5.2209   -9.6591  -45.2440 O.2       2 UNK        -0.5000 
     62 CA          4.5102  -11.2199  -46.9265 C.3       2 UNK         0.1400 
     63 CB          5.4305  -11.0544  -48.1453 C.3       2 UNK        -0.1800 
     64 N           3.9816  -12.5887  -46.9054 N.am      2 UNK        -0.5000 
     65 C           3.0013  -13.0128  -46.0936 C.2       1 UNK         0.5000 
     66 O           2.4927  -12.3188  -45.2133 O.2       1 UNK        -0.5000 
     67 C          -0.9282  -21.0118  -48.4970 C.2       11 UNK         0.5000 
     68 O          -0.5386  -21.8827  -49.2741 O.2       11 UNK        -0.5000 
     69 N          -2.2106  -20.6377  -48.3853 N.am      12 UNK        -0.5000 
     70 CA         -3.3213  -21.2386  -49.1200 C.3       12 UNK         0.1400 
     71 CB         -4.6114  -20.4610  -48.8309 C.3       12 UNK        -0.1800 
     72 C          -3.5033  -22.7306  -48.7956 C.2       12 UNK         0.5000 
     73 O          -3.6761  -23.5286  -49.7151 O.2       12 UNK        -0.5000 
     74 N          -3.4212  -23.0924  -47.5063 N.am      13 UNK        -0.5000 
     75 CA         -3.4807  -24.4777  -47.0356 C.3       13 UNK         0.1400 
     76 CB         -3.4794  -24.5150  -45.5005 C.3       13 UNK        -0.1800 
     77 C          -2.3508  -25.3510  -47.6131 C.2       13 UNK         0.5000 
     78 O          -2.6246  -26.4469  -48.1064 O.2       13 UNK        -0.5000 
     79 N          -1.1172  -24.8246  -47.5886 N.am      14 UNK        -0.5000 
     80 CA          0.0710  -25.4422  -48.1807 C.3       14 UNK         0.1400 
     81 CB          1.3181  -24.6341  -47.7925 C.3       14 UNK        -0.1800 
     82 C          -0.0264  -25.5952  -49.7104 C.2       14 UNK         0.5000 
     83 O           0.4339  -26.6032  -50.2488 O.2       14 UNK        -0.5000 
     84 N          -0.6696  -24.6300  -50.3807 N.am      15 UNK        -0.5000 
     85 CA         -0.9965  -24.6391  -51.8081 C.3       15 UNK         0.1400 
     86 CB         -1.2201  -23.1922  -52.2761 C.3       15 UNK        -0.1800 
     87 C          -2.1887  -25.5689  -52.1334 C.2       15 UNK         0.5000 
     88 O          -3.1809  -25.1360  -52.7266 O.2       15 UNK        -0.5000 
     89 N          -2.0473  -26.8409  -51.7332 N.am      16 UNK        -0.5000 
     90 CA         -2.9382  -27.9783  -51.9729 C.3       16 UNK         0.1400 
     91 CB         -2.8174  -28.4370  -53.4400 C.3       16 UNK        -0.1800 
     92 C          -4.3935  -27.7353  -51.5228 C.2       16 UNK         0.5000 
     93 O          -5.3268  -28.0461  -52.2649 O.2       16 UNK        -0.5000 
     94 N          -4.5510  -27.1878  -50.3073 N.am      17 UNK        -0.5000 
     95 CA         -5.8223  -26.8431  -49.6619 C.3       17 UNK         0.1400 
     96 CB         -6.6252  -28.1147  -49.3148 C.3       17 UNK        -0.1800 
     97 C          -6.6318  -25.8092  -50.4725 C.2       17 UNK         0.5000 
     98 O          -7.8102  -26.0273  -50.7606 O.2       17 UNK        -0.5000 
     99 N          -5.9626  -24.7014  -50.8199 N.am      18 UNK        -0.5000 
    100 CA        -6.4516  -23.5599  -51.5923 C.3       18 UNK         0.1400 
    101 CB        -7.5415  -22.7957  -50.8126 C.3       18 UNK        -0.1800 
    102 C         -6.8868  -23.9595  -53.0138 C.2       18 UNK         0.5000 
    103 O         -8.0138  -23.6714  -53.4241 O.2       18 UNK        -0.5000 
    104 N         -5.9776  -24.6085  -53.7551 N.am      19 UNK        -0.5000 
    105 CA        -6.1637  -25.0089  -55.1533 C.3       19 UNK         0.1400 
    106 CB        -5.1412  -26.1026  -55.5006 C.3       19 UNK        -0.1800 
    107 C         -6.0692  -23.7897  -56.0945 C.2       19 UNK         0.5000 
    108 O         -5.0688  -23.6171  -56.7913 O.2       19 UNK        -0.5000 
    109 N         -7.0904  -22.9240  -56.0194 N.am      20 UNK        -0.5000 
    110 CA        -7.2334  -21.5954  -56.6347 C.3       20 UNK         0.1400 
    111 CB        -7.0845  -21.6557  -58.1681 C.3       20 UNK        -0.1800 
    112 C         -6.3270  -20.5111  -56.0102 C.2       20 UNK         0.5000 
    113 O         -6.4655  -19.3347  -56.3490 O.2       20 UNK        -0.5000 
    114 N         -5.4451  -20.9022  -55.0828 N.am      21 UNK        -0.5000 
    115 CA        -4.4966  -20.0556  -54.3647 C.3       21 UNK         0.1400 
    116 CB        -3.3235  -20.9382  -53.9053 C.3       21 UNK        -0.1800 
    117 C         -5.1639  -19.3076  -53.1936 C.2       21 UNK         0.5000 
    118 O         -4.7654  -19.4996  -52.0445 O.2       21 UNK        -0.5000 
    119 N         -6.1753  -18.4906  -53.5211 N.am      22 UNK        -0.5000 
    120 CA        -6.9420  -17.5250  -52.6985 C.3       22 UNK         0.1400 
    121 C         -7.5105  -17.9619  -51.3112 C.2       22 UNK         0.5000 
    122 N         -7.1222  -19.0894  -50.7421 N.am      22 UNK        -0.7600 
    123 O         -8.3631  -17.2726  -50.7576 O.2       22 UNK        -0.5000 
    124 C124       -6.3206  -16.0924  -52.6613 C.3       23 UNK        -0.0398 
    125 S125       -4.5005  -15.9780  -52.5723 S.3       23 UNK        -0.2404 
    126 C126       -4.1725  -16.2787  -50.8104 C.3       23 UNK        -0.0205 
    127 H127        5.6765  -16.9822  -45.9917 H         1 UNK         0.0600 
    128 H128        5.4267  -17.3748  -44.2891 H         1 UNK         0.0600 
    129 H129        6.4014  -15.9734  -44.7349 H         1 UNK         0.0600 
    130 H130        4.0700  -15.7628  -46.9776 H         1 UNK         0.3000 
    131 H131        1.8588  -14.6918  -45.4489 H         1 UNK         0.0600 
    132 H132        2.4071  -14.5393  -48.4431 H         1 UNK         0.0800 
    133 H133        1.4627  -15.7644  -47.6325 H         1 UNK         0.0800 
    134 H134       -0.6548  -12.8393  -49.7722 H         1 UNK         0.0800 
    135 H135        0.9204  -13.5326  -50.0488 H         1 UNK         0.0800 
    136 H136       -2.6680  -14.1633  -49.9826 H         1 UNK         0.1150 
    137 H137       -2.3696  -18.2998  -51.0594 H         1 UNK         0.1150 
    138 H138        1.1683  -16.0653  -50.1145 H         1 UNK         0.1150 
    139 H139       -0.2954  -19.4512  -50.9359 H         1 UNK         0.0800 
    140 H140        0.8894  -18.4629  -51.7514 H         1 UNK         0.0800 
    141 H141       -0.4336  -18.3016  -48.1444 H         1 UNK         0.0800 
    142 H142        1.0151  -18.4162  -47.2000 H         1 UNK         0.0800 
    143 H143        0.9879  -20.9462  -47.5456 H         1 UNK         0.0600 
    144 H144       -0.5960  -19.4383  -45.7431 H         1 UNK         0.3000 
    145 H145       -1.8426  -22.1432  -43.7899 H         1 UNK         0.0600 
    146 H146       -0.6616  -20.8363  -42.0179 H         1 UNK         0.0600 
    147 H147        0.4670  -21.8144  -42.9487 H         1 UNK         0.0600 
    148 H148        0.3465  -20.0865  -43.2555 H         1 UNK         0.0600 
    149 H149       -1.9728  -19.2624  -43.6232 H         1 UNK         0.3000 
    150 H150       -5.0938  -18.9992  -45.3931 H         1 UNK         0.0600 
    151 H151       -5.5555  -19.5935  -43.0048 H         1 UNK         0.0600 
    152 H152       -5.6525  -17.8607  -43.2726 H         1 UNK         0.0600 
    153 H153       -4.2358  -18.5530  -42.4829 H         1 UNK         0.0600 
    154 H154       -3.4736  -16.9762  -44.2624 H         1 UNK         0.3000 
    155 H155       -1.4779  -16.2469  -47.1129 H         1 UNK         0.0600 
    156 H156       -3.7508  -15.3506  -47.6945 H         1 UNK         0.0600 
    157 H157       -2.7027  -14.1034  -47.0420 H         1 UNK         0.0600 
    158 H158       -3.9648  -14.8121  -46.0345 H         1 UNK         0.0600 
    159 H159       -1.8226  -14.7458  -44.7770 H         1 UNK         0.3000 
    160 H160        0.4522  -14.6117  -43.6795 H         1 UNK         0.0600 
    161 H161       -1.4960  -16.1312  -41.8775 H         1 UNK         0.0600 
    162 H162       -1.6857  -14.5207  -42.5464 H         1 UNK         0.0600 
    163 H163       -0.4650  -14.8129  -41.3229 H         1 UNK         0.0600 
    164 H164        2.1462  -15.8802  -43.0682 H         1 UNK         0.3000 
    165 H165        2.5596  -18.6412  -40.8775 H         1 UNK         0.0600 
    166 H166        4.2095  -19.1754  -42.7533 H         1 UNK         0.0600 
    167 H167        2.5840  -19.7654  -43.0281 H         1 UNK         0.0600 
    168 H168        3.1393  -18.3265  -43.8694 H         1 UNK         0.0600 
    169 H169        3.8172  -16.2911  -42.2580 H         1 UNK         0.3000 
    170 H170        5.1859  -15.1280  -39.2105 H         1 UNK         0.0600 
    171 H171        6.5553  -16.1471  -41.7629 H         1 UNK         0.0600 
    172 H172        7.2175  -14.9604  -40.6393 H         1 UNK         0.0600 
    173 H173        6.9696  -16.6204  -40.1191 H         1 UNK         0.0600 
    174 H174        5.0145  -14.2645  -41.9943 H         1 UNK         0.3000 
    175 H175        2.4207  -12.8827  -42.3455 H         1 UNK         0.0600 
    176 H176        2.4613  -10.4178  -41.8811 H         1 UNK         0.0600 
    177 H177        3.4743  -10.7045  -40.4661 H         1 UNK         0.0600 
    178 H178        1.8367  -11.3399  -40.5243 H         1 UNK         0.0600 
    179 H179        4.0749  -12.4172  -43.6969 H         1 UNK         0.3000 
    180 H180        7.0658  -10.7238  -43.6541 H         1 UNK         0.0600 
    181 H181        8.2909  -12.7916  -44.3269 H         1 UNK         0.0600 
    182 H182        7.0699  -13.7923  -43.5401 H         1 UNK         0.0600 
    183 H183        8.0922  -12.7282  -42.5837 H         1 UNK         0.0600 
    184 H184        5.8550  -12.7410  -45.3865 H         1 UNK         0.3000 
    185 H185        3.6660  -10.5366  -47.0415 H         1 UNK         0.0600 
    186 H186        5.8220  -10.0378  -48.2038 H         1 UNK         0.0600 
    187 H187        6.2836  -11.7326  -48.1017 H         1 UNK         0.0600 
    188 H188        4.8938  -11.2476  -49.0743 H         1 UNK         0.0600 
    189 H189        4.3675  -13.2284  -47.5842 H         1 UNK         0.3000 
    190 H190       -2.4532  -19.8728  -47.7587 H         1 UNK         0.3000 
    191 H191       -3.1043  -21.1495  -50.1865 H         1 UNK         0.0600 
    192 H192       -5.4535  -20.9002  -49.3641 H         1 UNK         0.0600 
    193 H193       -4.8566  -20.4600  -47.7687 H         1 UNK         0.0600 
    194 H194       -4.5242  -19.4238  -49.1553 H         1 UNK         0.0600 
    195 H195       -3.3287  -22.3713  -46.7979 H         1 UNK         0.3000 
    196 H196       -4.4301  -24.8924  -47.3750 H         1 UNK         0.0600 
    197 H197       -3.5711  -25.5389  -45.1363 H         1 UNK         0.0600 
    198 H198       -4.3159  -23.9484  -45.0913 H         1 UNK         0.0600 
    199 H199       -2.5605  -24.1020  -45.0859 H         1 UNK         0.0600 
    200 H200       -0.9777  -23.9276  -47.1307 H         1 UNK         0.3000 
    201 H201        0.1691  -26.4432  -47.7559 H         1 UNK         0.0600 
    202 H202        1.4383  -24.5917  -46.7098 H         1 UNK         0.0600 
    203 H203        1.2658  -23.6099  -48.1625 H         1 UNK         0.0600 
    204 H204        2.2214  -25.0869  -48.2031 H         1 UNK         0.0600 
    205 H205       -0.9876  -23.8190  -49.8608 H         1 UNK         0.3000 
    206 H206       -0.1353  -25.0273  -52.3554 H         1 UNK         0.0600 
    207 H207       -0.3408  -22.5757  -52.0889 H         1 UNK         0.0600 
    208 H208       -1.4219  -23.1543  -53.3469 H         1 UNK         0.0600 
    209 H209       -2.0630  -22.7332  -51.7608 H         1 UNK         0.0600 
    210 H210       -1.1955  -27.0548  -51.2228 H         1 UNK         0.3000 
    211 H211       -2.5685  -28.7919  -51.3473 H         1 UNK         0.0600 
    212 H212       -3.1195  -27.6534  -54.1328 H         1 UNK         0.0600 
    213 H213       -3.4390  -29.3114  -53.6359 H         1 UNK         0.0600 
    214 H214       -1.7904  -28.7122  -53.6800 H         1 UNK         0.0600 
    215 H215       -3.7197  -26.9570  -49.7717 H         1 UNK         0.3000 
    216 H216       -5.5672  -26.3596  -48.7198 H         1 UNK         0.0600 
    217 H217       -7.5146  -27.8665  -48.7346 H         1 UNK         0.0600 
    218 H218       -6.0302  -28.8044  -48.7161 H         1 UNK         0.0600 
    219 H219       -6.9567  -28.6456  -50.2076 H         1 UNK         0.0600 
    220 H220       -4.9945  -24.6084  -50.5203 H         1 UNK         0.3000 
    221 H221       -5.6021  -22.8851  -51.7098 H         1 UNK         0.0600 
    222 H222       -8.4491  -23.3882  -50.6942 H         1 UNK         0.0600 
    223 H223       -7.1939  -22.5170  -49.8183 H         1 UNK         0.0600 
    224 H224       -7.8179  -21.8773  -51.3316 H         1 UNK         0.0600 
    225 H225       -5.0675  -24.8115  -53.3484 H         1 UNK         0.3000 
    226 H226       -7.1601  -25.4409  -55.2680 H         1 UNK         0.0600 
    227 H227       -5.2922  -26.9856  -54.8801 H         1 UNK         0.0600 
    228 H228       -5.2397  -26.4166  -56.5404 H         1 UNK         0.0600 
    229 H229       -4.1168  -25.7576  -55.3547 H         1 UNK         0.0600 
    230 H230       -7.8041  -23.1474  -55.3309 H         1 UNK         0.3000 
    231 H231       -8.2570  -21.2850  -56.4202 H         1 UNK         0.0600 
    232 H232       -6.0603  -21.8720  -58.4721 H         1 UNK         0.0600 
    233 H233       -7.3599  -20.7030  -58.6219 H         1 UNK         0.0600 
    234 H234       -7.7328  -22.4188  -58.5988 H         1 UNK         0.0600 
    235 H235       -5.4077  -21.8871  -54.8706 H         1 UNK         0.3000 
    236 H236       -4.1012  -19.3019  -55.0487 H         1 UNK         0.0600 
    237 H237       -2.8258  -21.4066  -54.7547 H         1 UNK         0.0600 
    238 H238       -2.5731  -20.3529  -53.3718 H         1 UNK         0.0600 
    239 H239       -3.6616  -21.7310  -53.2370 H         1 UNK         0.0600 
    240 H240       -6.4223  -18.4853  -54.5049 H         1 UNK         0.3000 
    241 H241       -7.8595  -17.4192  -53.2793 H         1 UNK         0.0600 
    242 H242       -6.3102  -19.5596  -51.1337 H         1 UNK         0.3800 
    243 H243       -7.5069  -19.3650  -49.8542 H         1 UNK         0.3800 
    244 H244       -6.5995  -15.5810  -53.5833 H         1 UNK         0.0800 
    245 H245       -6.7506  -15.4779  -51.8683 H         1 UNK         0.0800 
    246 H246       -4.6878  -15.5315  -50.2052 H         1 UNK         0.0800 
    247 H247       -4.5719  -17.2507  -50.5180 H         1 UNK         0.0800 
@<TRIPOS>BOND
     1    1    2 1    
     2    1  127 1    
     3    1  128 1    
     4    1  129 1    
     5    2    3 2    
     6    2    4 am   BACKBONE|DICT|INTERRES
     7    4    5 1    
     8    4  130 1    
     9    5    6 1    
    10    5   65 1    
    11    5  131 1    
    12    6    7 1    
    13    6  132 1    
    14    6  133 1    
    15    7    8 1    
    16    8    9 1    
    17    8  134 1    
    18    8  135 1    
    19    9   10 ar   
    20    9   14 ar   
    21   10   11 ar   
    22   10  136 1    
    23   11   12 ar   
    24   11  126 1    
    25   12   13 ar   
    26   12  137 1    
    27   13   14 ar   
    28   13   15 1    
    29   14  138 1    
    30   15   16 1    
    31   15  139 1    
    32   15  140 1    
    33   16   17 1    
    34   17   18 1    
    35   17  141 1    
    36   17  142 1    
    37   18   19 1    
    38   18   67 1    
    39   18  143 1    
    40   19   20 am   BACKBONE|DICT|INTERRES
    41   19  144 1    
    42   20   21 2    
    43   20   22 1    
    44   22   23 1    
    45   22   24 1    
    46   22  145 1    
    47   23  146 1    
    48   23  147 1    
    49   23  148 1    
    50   24   25 am   BACKBONE|DICT|INTERRES
    51   24  149 1    
    52   25   26 2    
    53   25   27 1    
    54   27   28 1    
    55   27   29 1    
    56   27  150 1    
    57   28  151 1    
    58   28  152 1    
    59   28  153 1    
    60   29   30 am   BACKBONE|DICT|INTERRES
    61   29  154 1    
    62   30   31 2    
    63   30   32 1    
    64   32   33 1    
    65   32   34 1    
    66   32  155 1    
    67   33  156 1    
    68   33  157 1    
    69   33  158 1    
    70   34   35 am   BACKBONE|DICT|INTERRES
    71   34  159 1    
    72   35   36 2    
    73   35   37 1    
    74   37   38 1    
    75   37   39 1    
    76   37  160 1    
    77   38  161 1    
    78   38  162 1    
    79   38  163 1    
    80   39   40 am   BACKBONE|DICT|INTERRES
    81   39  164 1    
    82   40   41 2    
    83   40   42 1    
    84   42   43 1    
    85   42   44 1    
    86   42  165 1    
    87   43  166 1    
    88   43  167 1    
    89   43  168 1    
    90   44   45 am   BACKBONE|DICT|INTERRES
    91   44  169 1    
    92   45   46 2    
    93   45   47 1    
    94   47   48 1    
    95   47   49 1    
    96   47  170 1    
    97   48  171 1    
    98   48  172 1    
    99   48  173 1    
   100   49   50 am   BACKBONE|DICT|INTERRES
   101   49  174 1    
   102   50   51 2    
   103   50   52 1    
   104   52   53 1    
   105   52   54 1    
   106   52  175 1    
   107   53  176 1    
   108   53  177 1    
   109   53  178 1    
   110   54   55 am   BACKBONE|DICT|INTERRES
   111   54  179 1    
   112   55   56 2    
   113   55   57 1    
   114   57   58 1    
   115   57   59 1    
   116   57  180 1    
   117   58  181 1    
   118   58  182 1    
   119   58  183 1    
   120   59   60 am   BACKBONE|DICT|INTERRES
   121   59  184 1    
   122   60   61 2    
   123   60   62 1    
   124   62   63 1    
   125   62   64 1    
   126   62  185 1    
   127   63  186 1    
   128   63  187 1    
   129   63  188 1    
   130   64   65 am   BACKBONE|DICT|INTERRES
   131   64  189 1    
   132   65   66 2    
   133   67   68 2    
   134   67   69 am   BACKBONE|DICT|INTERRES
   135   69   70 1    
   136   69  190 1    
   137   70   71 1    
   138   70   72 1    
   139   70  191 1    
   140   71  192 1    
   141   71  193 1    
   142   71  194 1    
   143   72   73 2    
   144   72   74 am   BACKBONE|DICT|INTERRES
   145   74   75 1    
   146   74  195 1    
   147   75   76 1    
   148   75   77 1    
   149   75  196 1    
   150   76  197 1    
   151   76  198 1    
   152   76  199 1    
   153   77   78 2    
   154   77   79 am   BACKBONE|DICT|INTERRES
   155   79   80 1    
   156   79  200 1    
   157   80   81 1    
   158   80   82 1    
   159   80  201 1    
   160   81  202 1    
   161   81  203 1    
   162   81  204 1    
   163   82   83 2    
   164   82   84 am   BACKBONE|DICT|INTERRES
   165   84   85 1    
   166   84  205 1    
   167   85   86 1    
   168   85   87 1    
   169   85  206 1    
   170   86  207 1    
   171   86  208 1    
   172   86  209 1    
   173   87   88 2    
   174   87   89 am   BACKBONE|DICT|INTERRES
   175   89   90 1    
   176   89  210 1    
   177   90   91 1    
   178   90   92 1    
   179   90  211 1    
   180   91  212 1    
   181   91  213 1    
   182   91  214 1    
   183   92   93 2    
   184   92   94 am   BACKBONE|DICT|INTERRES
   185   94   95 1    
   186   94  215 1    
   187   95   96 1    
   188   95   97 1    
   189   95  216 1    
   190   96  217 1    
   191   96  218 1    
   192   96  219 1    
   193   97   98 2    
   194   97   99 am   BACKBONE|DICT|INTERRES
   195   99  100 1    
   196   99  220 1    
   197  100  101 1    
   198  100  102 1    
   199  100  221 1    
   200  101  222 1    
   201  101  223 1    
   202  101  224 1    
   203  102  103 2    
   204  102  104 am   BACKBONE|DICT|INTERRES
   205  104  105 1    
   206  104  225 1    
   207  105  106 1    
   208  105  107 1    
   209  105  226 1    
   210  106  227 1    
   211  106  228 1    
   212  106  229 1    
   213  107  108 2    
   214  107  109 am   BACKBONE|DICT|INTERRES
   215  109  110 1    
   216  109  230 1    
   217  110  111 1    
   218  110  112 1    
   219  110  231 1    
   220  111  232 1    
   221  111  233 1    
   222  111  234 1    
   223  112  113 2    
   224  112  114 am   BACKBONE|DICT|INTERRES
   225  114  115 1    
   226  114  235 1    
   227  115  116 1    
   228  115  117 1    
   229  115  236 1    
   230  116  237 1    
   231  116  238 1    
   232  116  239 1    
   233  117  118 2    
   234  117  119 am   BACKBONE|DICT|INTERRES
   235  119  120 1    
   236  119  240 1    
   237  120  121 1    
   238  120  124 1    
   239  120  241 1    
   240  121  122 am   BACKBONE|DICT|INTERRES
   241  121  123 2    
   242  122  242 1    
   243  122  243 1    
   244  124  125 1    
   245  124  244 1    
   246  124  245 1    
   247  125  126 1    
   248  126  246 1    
   249  126  247 1    
@<TRIPOS>SUBSTRUCTURE
     1 UNK         1 GROUP             0       ****    0 ROOT    
