@<TRIPOS>MOLECULE
3R540
247   249    1
SMALL
USER_CHARGES


@<TRIPOS>ATOM
      1 CA         -1.6529  -12.6309  -51.5571 C.3       0 UNK        -0.1800 
      2 C          -0.3070  -12.1733  -51.0098 C.2       0 UNK         0.5000 
      3 O           0.0870  -11.0266  -51.2236 O.2       0 UNK        -0.5000 
      4 N           0.3995  -13.0682  -50.3110 N.am      1 UNK        -0.5000 
      5 CA          1.6591  -12.8065  -49.6080 C.3       1 UNK         0.1400 
      6 C6          2.4159  -14.1177  -49.2554 C.3       23 UNK        -0.0398 
      7 S7          1.3562  -15.4501  -48.5836 S.3       23 UNK        -0.2404 
      8 C8          1.0768  -16.4388  -50.0914 C.3       23 UNK        -0.0205 
      9 C9         -0.2306  -17.2210  -50.0564 C.ar      23 UNK        -0.0193 
     10 C10        -1.4419  -16.5746  -49.7914 C.ar      23 UNK        -0.1150 
     11 C11        -2.6418  -17.2889  -49.7706 C.ar      23 UNK        -0.0193 
     12 C12        -2.6280  -18.6609  -50.0322 C.ar      23 UNK        -0.1150 
     13 C13        -1.4293  -19.3259  -50.3049 C.ar      23 UNK        -0.0193 
     14 C14        -0.2347  -18.5929  -50.3234 C.ar      23 UNK        -0.1150 
     15 C15        -1.4725  -20.8297  -50.5848 C.3       23 UNK        -0.0205 
     16 S16         0.0458  -21.7531  -50.1655 S.3       23 UNK        -0.2404 
     17 C17         0.1989  -21.3871  -48.3858 C.3       23 UNK        -0.0398 
     18 CA          0.0354  -22.6173  -47.4673 C.3       11 UNK         0.1400 
     19 N           0.4855  -22.3148  -46.1078 N.am      11 UNK        -0.5000 
     20 C           0.5907  -23.2038  -45.1116 C.2       10 UNK         0.5000 
     21 O           0.3408  -24.4023  -45.2326 O.2       10 UNK        -0.5000 
     22 CA          1.0072  -22.6523  -43.7380 C.3       10 UNK         0.1400 
     23 CB          2.5287  -22.4556  -43.6728 C.3       10 UNK        -0.1800 
     24 N           0.3286  -21.3970  -43.4110 N.am      10 UNK        -0.5000 
     25 C          -0.9927  -21.2894  -43.2047 C.2       9 UNK         0.5000 
     26 O          -1.7690  -22.2453  -43.2366 O.2       9 UNK        -0.5000 
     27 CA         -1.5483  -19.8715  -42.9708 C.3       9 UNK         0.1400 
     28 CB         -1.1816  -19.3553  -41.5710 C.3       9 UNK        -0.1800 
     29 N          -1.0954  -18.9108  -43.9757 N.am      9 UNK        -0.5000 
     30 C          -1.3108  -19.0158  -45.2947 C.2       8 UNK         0.5000 
     31 O          -1.9577  -19.9194  -45.8171 O.2       8 UNK        -0.5000 
     32 CA         -0.6483  -17.9594  -46.1899 C.3       8 UNK         0.1400 
     33 CB         -1.5479  -16.7217  -46.3146 C.3       8 UNK        -0.1800 
     34 N           0.6886  -17.5973  -45.7123 N.am      8 UNK        -0.5000 
     35 C           1.7260  -18.4468  -45.7084 C.2       7 UNK         0.5000 
     36 O           1.6554  -19.6179  -46.0825 O.2       7 UNK        -0.5000 
     37 CA          3.0568  -17.9114  -45.1620 C.3       7 UNK         0.1400 
     38 CB          3.6340  -16.8085  -46.0637 C.3       7 UNK        -0.1800 
     39 N           2.9556  -17.4175  -43.7905 N.am      7 UNK        -0.5000 
     40 C           2.7082  -18.1770  -42.7147 C.2       6 UNK         0.5000 
     41 O           2.3814  -19.3616  -42.7718 O.2       6 UNK        -0.5000 
     42 CA          2.8599  -17.5019  -41.3443 C.3       6 UNK         0.1400 
     43 CB          4.3142  -17.0660  -41.0983 C.3       6 UNK        -0.1800 
     44 N           1.9864  -16.3382  -41.2551 N.am      6 UNK        -0.5000 
     45 C           0.9639  -16.2106  -40.3997 C.2       5 UNK         0.5000 
     46 O           0.6951  -17.0331  -39.5233 O.2       5 UNK        -0.5000 
     47 CA          0.0773  -14.9551  -40.5425 C.3       5 UNK         0.1400 
     48 CB          0.4480  -13.9130  -39.4761 C.3       5 UNK        -0.1800 
     49 N           0.1373  -14.3202  -41.8616 N.am      5 UNK        -0.5000 
     50 C          -0.2161  -14.9016  -43.0154 C.2       4 UNK         0.5000 
     51 O          -0.6434  -16.0529  -43.0996 O.2       4 UNK        -0.5000 
     52 CA          0.0000  -14.0792  -44.2991 C.3       4 UNK         0.1400 
     53 CB         -1.2594  -13.2649  -44.6282 C.3       4 UNK        -0.1800 
     54 N           1.1611  -13.1849  -44.2803 N.am      4 UNK        -0.5000 
     55 C           2.4312  -13.5249  -44.0184 C.2       3 UNK         0.5000 
     56 O           2.7619  -14.6373  -43.6039 O.2       3 UNK        -0.5000 
     57 CA          3.5098  -12.4534  -44.2864 C.3       3 UNK         0.1400 
     58 CB          4.9213  -13.0618  -44.3769 C.3       3 UNK        -0.1800 
     59 N           3.2472  -11.6994  -45.5157 N.am      3 UNK        -0.5000 
     60 C           2.4366  -10.6385  -45.6218 C.2       2 UNK         0.5000 
     61 O           1.7960  -10.1770  -44.6773 O.2       2 UNK        -0.5000 
     62 CA          2.2869  -10.0152  -47.0216 C.3       2 UNK         0.1400 
     63 CB          3.3524   -8.9307  -47.2427 C.3       2 UNK        -0.1800 
     64 N           2.3643  -10.9960  -48.1087 N.am      2 UNK        -0.5000 
     65 C           1.4246  -11.9165  -48.3678 C.2       1 UNK         0.5000 
     66 O           0.4137  -12.0718  -47.6792 O.2       1 UNK        -0.5000 
     67 C          -1.4022  -23.1785  -47.4844 C.2       11 UNK         0.5000 
     68 O          -1.6305  -24.2303  -48.0803 O.2       11 UNK        -0.5000 
     69 N          -2.3269  -22.5085  -46.7824 N.am      12 UNK        -0.5000 
     70 CA         -3.7225  -22.9211  -46.6383 C.3       12 UNK         0.1400 
     71 CB         -4.5203  -21.8175  -45.9289 C.3       12 UNK        -0.1800 
     72 C          -3.8877  -24.2639  -45.9068 C.2       12 UNK         0.5000 
     73 O          -4.7716  -25.0405  -46.2660 O.2       12 UNK        -0.5000 
     74 N          -3.0313  -24.5285  -44.9114 N.am      13 UNK        -0.5000 
     75 CA         -2.9874  -25.8028  -44.1967 C.3       13 UNK         0.1400 
     76 CB         -2.1448  -25.6485  -42.9212 C.3       13 UNK        -0.1800 
     77 C          -2.4533  -26.9512  -45.0740 C.2       13 UNK         0.5000 
     78 O          -3.0110  -28.0488  -45.0413 O.2       13 UNK        -0.5000 
     79 N          -1.3821  -26.6824  -45.8314 N.am      14 UNK        -0.5000 
     80 CA         -0.6844  -27.6698  -46.6516 C.3       14 UNK         0.1400 
     81 CB          0.7464  -27.1786  -46.9237 C.3       14 UNK        -0.1800 
     82 C          -1.3982  -27.9911  -47.9761 C.2       14 UNK         0.5000 
     83 O          -1.5124  -29.1666  -48.3265 O.2       14 UNK        -0.5000 
     84 N          -1.8215  -26.9517  -48.7059 N.am      15 UNK        -0.5000 
     85 CA         -2.2499  -27.0413  -50.1049 C.3       15 UNK         0.1400 
     86 CB         -1.3657  -26.0975  -50.9380 C.3       15 UNK        -0.1800 
     87 C          -3.7425  -26.7268  -50.3160 C.2       15 UNK         0.5000 
     88 O          -4.1895  -26.7357  -51.4638 O.2       15 UNK        -0.5000 
     89 N          -4.4851  -26.4757  -49.2281 N.am      16 UNK        -0.5000 
     90 CA         -5.8947  -26.0642  -49.1932 C.3       16 UNK         0.1400 
     91 CB         -6.8093  -27.1018  -49.8844 C.3       16 UNK        -0.1800 
     92 C          -6.1051  -24.6219  -49.7081 C.2       16 UNK         0.5000 
     93 O          -5.1454  -23.8578  -49.8320 O.2       16 UNK        -0.5000 
     94 N          -7.3721  -24.2523  -49.9396 N.am      17 UNK        -0.5000 
     95 CA         -7.7992  -22.9210  -50.3752 C.3       17 UNK         0.1400 
     96 CB         -9.3351  -22.8699  -50.3725 C.3       17 UNK        -0.1800 
     97 C          -7.2506  -22.5300  -51.7617 C.2       17 UNK         0.5000 
     98 O          -7.0743  -23.3993  -52.6189 O.2       17 UNK        -0.5000 
     99 N          -7.0329  -21.2198  -51.9504 N.am      18 UNK        -0.5000 
    100 CA        -6.4201  -20.5703  -53.1135 C.3       18 UNK         0.1400 
    101 CB        -7.2666  -20.7602  -54.3918 C.3       18 UNK        -0.1800 
    102 C         -4.9476  -20.9940  -53.2673 C.2       18 UNK         0.5000 
    103 O         -4.0840  -20.3713  -52.6497 O.2       18 UNK        -0.5000 
    104 N         -4.7049  -22.0494  -54.0565 N.am      19 UNK        -0.5000 
    105 CA        -3.4734  -22.8321  -54.2321 C.3       19 UNK         0.1400 
    106 CB        -3.1055  -23.5538  -52.9236 C.3       19 UNK        -0.1800 
    107 C         -2.2467  -22.1041  -54.8219 C.2       19 UNK         0.5000 
    108 O         -1.5101  -22.7194  -55.5947 O.2       19 UNK        -0.5000 
    109 N         -2.0358  -20.8357  -54.4648 N.am      20 UNK        -0.5000 
    110 CA        -0.9212  -20.0052  -54.9079 C.3       20 UNK         0.1400 
    111 CB         0.2478  -20.1139  -53.9071 C.3       20 UNK        -0.1800 
    112 C         -1.4338  -18.5774  -55.1482 C.2       20 UNK         0.5000 
    113 O         -2.3240  -18.3987  -55.9813 O.2       20 UNK        -0.5000 
    114 N         -0.8796  -17.5875  -54.4328 N.am      21 UNK        -0.5000 
    115 CA        -1.1461  -16.1533  -54.6011 C.3       21 UNK         0.1400 
    116 CB        -0.2723  -15.3644  -53.6157 C.3       21 UNK        -0.1800 
    117 C         -2.6243  -15.7496  -54.4371 C.2       21 UNK         0.5000 
    118 O         -3.0681  -14.8039  -55.0894 O.2       21 UNK        -0.5000 
    119 N         -3.3551  -16.4852  -53.5922 N.am      22 UNK        -0.5000 
    120 CA        -4.8056  -16.3433  -53.3994 C.3       22 UNK         0.1400 
    121 C         -5.6664  -17.1118  -54.4465 C.2       22 UNK         0.5000 
    122 N         -5.0943  -17.8292  -55.4065 N.am      22 UNK        -0.7600 
    123 O         -6.8912  -17.0470  -54.3963 O.2       22 UNK        -0.5000 
    124 C124       -5.2199  -16.6894  -51.9475 C.3       23 UNK        -0.0398 
    125 S125       -4.5292  -15.4949  -50.7525 S.3       23 UNK        -0.2404 
    126 C126       -3.9427  -16.5825  -49.4191 C.3       23 UNK        -0.0205 
    127 H127       -1.8376  -13.6865  -51.3560 H         1 UNK         0.0600 
    128 H128       -1.6937  -12.4799  -52.6357 H         1 UNK         0.0600 
    129 H129       -2.4580  -12.0546  -51.1016 H         1 UNK         0.0600 
    130 H130        0.0018  -13.9758  -50.1221 H         1 UNK         0.3000 
    131 H131        2.2960  -12.2425  -50.2931 H         1 UNK         0.0600 
    132 H132        2.9181  -14.4911  -50.1488 H         1 UNK         0.0800 
    133 H133        3.2204  -13.9264  -48.5430 H         1 UNK         0.0800 
    134 H134        1.0653  -15.7894  -50.9657 H         1 UNK         0.0800 
    135 H135        1.9270  -17.1099  -50.2223 H         1 UNK         0.0800 
    136 H136       -1.4545  -15.5149  -49.5830 H         1 UNK         0.1150 
    137 H137       -3.5546  -19.2179  -50.0182 H         1 UNK         0.1150 
    138 H138        0.6992  -19.0885  -50.5448 H         1 UNK         0.1150 
    139 H139       -2.3087  -21.2863  -50.0521 H         1 UNK         0.0800 
    140 H140       -1.6708  -20.9689  -51.6457 H         1 UNK         0.0800 
    141 H141       -0.4968  -20.6008  -48.0933 H         1 UNK         0.0800 
    142 H142        1.1949  -20.9640  -48.2539 H         1 UNK         0.0800 
    143 H143        0.6933  -23.4038  -47.8434 H         1 UNK         0.0600 
    144 H144        0.7453  -21.3494  -45.9263 H         1 UNK         0.3000 
    145 H145        0.7284  -23.3921  -42.9847 H         1 UNK         0.0600 
    146 H146        2.8434  -22.1523  -42.6742 H         1 UNK         0.0600 
    147 H147        3.0540  -23.3810  -43.9125 H         1 UNK         0.0600 
    148 H148        2.8663  -21.6926  -44.3757 H         1 UNK         0.0600 
    149 H149        0.9143  -20.5692  -43.3495 H         1 UNK         0.3000 
    150 H150       -2.6366  -19.9277  -43.0383 H         1 UNK         0.0600 
    151 H151       -1.5301  -20.0408  -40.7977 H         1 UNK         0.0600 
    152 H152       -1.6387  -18.3848  -41.3764 H         1 UNK         0.0600 
    153 H153       -0.1037  -19.2436  -41.4497 H         1 UNK         0.0600 
    154 H154       -0.6026  -18.0924  -43.6371 H         1 UNK         0.3000 
    155 H155       -0.5360  -18.3851  -47.1889 H         1 UNK         0.0600 
    156 H156       -1.8014  -16.2959  -45.3464 H         1 UNK         0.0600 
    157 H157       -1.0855  -15.9439  -46.9208 H         1 UNK         0.0600 
    158 H158       -2.4893  -16.9902  -46.7929 H         1 UNK         0.0600 
    159 H159        0.8198  -16.6644  -45.3558 H         1 UNK         0.3000 
    160 H160        3.7651  -18.7427  -45.1610 H         1 UNK         0.0600 
    161 H161        4.6325  -16.5170  -45.7379 H         1 UNK         0.0600 
    162 H162        3.0107  -15.9141  -46.0614 H         1 UNK         0.0600 
    163 H163        3.7148  -17.1495  -47.0967 H         1 UNK         0.0600 
    164 H164        3.1293  -16.4238  -43.6623 H         1 UNK         0.3000 
    165 H165        2.5998  -18.2443  -40.5868 H         1 UNK         0.0600 
    166 H166        4.4370  -16.6704  -40.0900 H         1 UNK         0.0600 
    167 H167        4.9982  -17.9092  -41.2025 H         1 UNK         0.0600 
    168 H168        4.6330  -16.2930  -41.7988 H         1 UNK         0.0600 
    169 H169        2.1168  -15.6242  -41.9638 H         1 UNK         0.3000 
    170 H170       -0.9550  -15.2683  -40.3736 H         1 UNK         0.0600 
    171 H171        1.4654  -13.5441  -39.6123 H         1 UNK         0.0600 
    172 H172       -0.2277  -13.0581  -39.5068 H         1 UNK         0.0600 
    173 H173        0.3847  -14.3389  -38.4738 H         1 UNK         0.0600 
    174 H174        0.4985  -13.3783  -41.8950 H         1 UNK         0.3000 
    175 H175        0.1701  -14.7838  -45.1129 H         1 UNK         0.0600 
    176 H176       -1.1766  -12.7870  -45.6041 H         1 UNK         0.0600 
    177 H177       -1.4386  -12.4853  -43.8869 H         1 UNK         0.0600 
    178 H178       -2.1448  -13.9014  -44.6563 H         1 UNK         0.0600 
    179 H179        0.9956  -12.2357  -44.5899 H         1 UNK         0.3000 
    180 H180        3.4968  -11.7685  -43.4363 H         1 UNK         0.0600 
    181 H181        4.9941  -13.7898  -45.1859 H         1 UNK         0.0600 
    182 H182        5.1907  -13.5713  -43.4508 H         1 UNK         0.0600 
    183 H183        5.6728  -12.2912  -44.5494 H         1 UNK         0.0600 
    184 H184        3.7034  -12.0329  -46.3516 H         1 UNK         0.3000 
    185 H185        1.3050   -9.5388  -47.0654 H         1 UNK         0.0600 
    186 H186        3.2059   -8.4220  -48.1957 H         1 UNK         0.0600 
    187 H187        3.3049   -8.1715  -46.4607 H         1 UNK         0.0600 
    188 H188        4.3604   -9.3472  -47.2347 H         1 UNK         0.0600 
    189 H189        3.1627  -10.9196  -48.7228 H         1 UNK         0.3000 
    190 H190       -2.0729  -21.6309  -46.3308 H         1 UNK         0.3000 
    191 H191       -4.1312  -23.0392  -47.6411 H         1 UNK         0.0600 
    192 H192       -4.4945  -20.8872  -46.4966 H         1 UNK         0.0600 
    193 H193       -5.5676  -22.1010  -45.8173 H         1 UNK         0.0600 
    194 H194       -4.1244  -21.6139  -44.9330 H         1 UNK         0.0600 
    195 H195       -2.3599  -23.8209  -44.6368 H         1 UNK         0.3000 
    196 H196       -4.0054  -26.0595  -43.8957 H         1 UNK         0.0600 
    197 H197       -2.1154  -26.5817  -42.3575 H         1 UNK         0.0600 
    198 H198       -2.5614  -24.8843  -42.2648 H         1 UNK         0.0600 
    199 H199       -1.1156  -25.3684  -43.1466 H         1 UNK         0.0600 
    200 H200       -0.9547  -25.7626  -45.7679 H         1 UNK         0.3000 
    201 H201       -0.6109  -28.5988  -46.0820 H         1 UNK         0.0600 
    202 H202        1.2981  -27.0404  -45.9937 H         1 UNK         0.0600 
    203 H203        0.7507  -26.2273  -47.4578 H         1 UNK         0.0600 
    204 H204        1.3008  -27.8983  -47.5273 H         1 UNK         0.0600 
    205 H205       -1.7099  -26.0047  -48.3432 H         1 UNK         0.3000 
    206 H206       -2.0944  -28.0530  -50.4843 H         1 UNK         0.0600 
    207 H207       -0.3072  -26.3080  -50.7847 H         1 UNK         0.0600 
    208 H208       -1.5659  -26.2147  -52.0032 H         1 UNK         0.0600 
    209 H209       -1.5399  -25.0518  -50.6809 H         1 UNK         0.0600 
    210 H210       -4.0090  -26.4546  -48.3370 H         1 UNK         0.3000 
    211 H211       -6.1743  -26.0537  -48.1404 H         1 UNK         0.0600 
    212 H212       -6.7407  -27.0476  -50.9714 H         1 UNK         0.0600 
    213 H213       -7.8548  -26.9481  -49.6166 H         1 UNK         0.0600 
    214 H214       -6.5517  -28.1172  -49.5830 H         1 UNK         0.0600 
    215 H215       -8.1015  -24.9420  -49.8384 H         1 UNK         0.3000 
    216 H216       -7.4270  -22.2026  -49.6417 H         1 UNK         0.0600 
    217 H217       -9.6955  -21.8819  -50.6619 H         1 UNK         0.0600 
    218 H218       -9.7368  -23.0825  -49.3815 H         1 UNK         0.0600 
    219 H219       -9.7616  -23.5913  -51.0708 H         1 UNK         0.0600 
    220 H220       -7.2165  -20.6004  -51.1739 H         1 UNK         0.3000 
    221 H221       -6.4108  -19.5035  -52.8902 H         1 UNK         0.0600 
    222 H222       -7.4028  -21.8070  -54.6620 H         1 UNK         0.0600 
    223 H223       -8.2568  -20.3222  -54.2668 H         1 UNK         0.0600 
    224 H224       -6.8014  -20.2616  -55.2425 H         1 UNK         0.0600 
    225 H225       -5.5165  -22.4606  -54.4964 H         1 UNK         0.3000 
    226 H226       -3.7323  -23.6052  -54.9571 H         1 UNK         0.0600 
    227 H227       -3.8998  -24.2345  -52.6169 H         1 UNK         0.0600 
    228 H228       -2.1976  -24.1441  -53.0458 H         1 UNK         0.0600 
    229 H229       -2.9372  -22.8596  -52.1020 H         1 UNK         0.0600 
    230 H230       -2.7068  -20.4095  -53.8286 H         1 UNK         0.3000 
    231 H231       -0.5665  -20.3581  -55.8784 H         1 UNK         0.0600 
    232 H232       -0.0240  -19.7425  -52.9207 H         1 UNK         0.0600 
    233 H233        1.1162  -19.5508  -54.2508 H         1 UNK         0.0600 
    234 H234        0.5662  -21.1499  -53.7896 H         1 UNK         0.0600 
    235 H235       -0.1696  -17.8307  -53.7580 H         1 UNK         0.3000 
    236 H236       -0.8444  -15.8866  -55.6159 H         1 UNK         0.0600 
    237 H237        0.7811  -15.6272  -53.7129 H         1 UNK         0.0600 
    238 H238       -0.3559  -14.2920  -53.7947 H         1 UNK         0.0600 
    239 H239       -0.5770  -15.5495  -52.5860 H         1 UNK         0.0600 
    240 H240       -2.9080  -17.2412  -53.0952 H         1 UNK         0.3000 
    241 H241       -5.0635  -15.2941  -53.5562 H         1 UNK         0.0600 
    242 H242       -4.0845  -17.8920  -55.5011 H         1 UNK         0.3800 
    243 H243       -5.6788  -18.2861  -56.0867 H         1 UNK         0.3800 
    244 H244       -6.3047  -16.6655  -51.8320 H         1 UNK         0.0800 
    245 H245       -4.9072  -17.7037  -51.6960 H         1 UNK         0.0800 
    246 H246       -4.7225  -17.3010  -49.1617 H         1 UNK         0.0800 
    247 H247       -3.7862  -15.9739  -48.5279 H         1 UNK         0.0800 
@<TRIPOS>BOND
     1    1    2 1    
     2    1  127 1    
     3    1  128 1    
     4    1  129 1    
     5    2    3 2    
     6    2    4 am   BACKBONE|DICT|INTERRES
     7    4    5 1    
     8    4  130 1    
     9    5    6 1    
    10    5   65 1    
    11    5  131 1    
    12    6    7 1    
    13    6  132 1    
    14    6  133 1    
    15    7    8 1    
    16    8    9 1    
    17    8  134 1    
    18    8  135 1    
    19    9   10 ar   
    20    9   14 ar   
    21   10   11 ar   
    22   10  136 1    
    23   11   12 ar   
    24   11  126 1    
    25   12   13 ar   
    26   12  137 1    
    27   13   14 ar   
    28   13   15 1    
    29   14  138 1    
    30   15   16 1    
    31   15  139 1    
    32   15  140 1    
    33   16   17 1    
    34   17   18 1    
    35   17  141 1    
    36   17  142 1    
    37   18   19 1    
    38   18   67 1    
    39   18  143 1    
    40   19   20 am   BACKBONE|DICT|INTERRES
    41   19  144 1    
    42   20   21 2    
    43   20   22 1    
    44   22   23 1    
    45   22   24 1    
    46   22  145 1    
    47   23  146 1    
    48   23  147 1    
    49   23  148 1    
    50   24   25 am   BACKBONE|DICT|INTERRES
    51   24  149 1    
    52   25   26 2    
    53   25   27 1    
    54   27   28 1    
    55   27   29 1    
    56   27  150 1    
    57   28  151 1    
    58   28  152 1    
    59   28  153 1    
    60   29   30 am   BACKBONE|DICT|INTERRES
    61   29  154 1    
    62   30   31 2    
    63   30   32 1    
    64   32   33 1    
    65   32   34 1    
    66   32  155 1    
    67   33  156 1    
    68   33  157 1    
    69   33  158 1    
    70   34   35 am   BACKBONE|DICT|INTERRES
    71   34  159 1    
    72   35   36 2    
    73   35   37 1    
    74   37   38 1    
    75   37   39 1    
    76   37  160 1    
    77   38  161 1    
    78   38  162 1    
    79   38  163 1    
    80   39   40 am   BACKBONE|DICT|INTERRES
    81   39  164 1    
    82   40   41 2    
    83   40   42 1    
    84   42   43 1    
    85   42   44 1    
    86   42  165 1    
    87   43  166 1    
    88   43  167 1    
    89   43  168 1    
    90   44   45 am   BACKBONE|DICT|INTERRES
    91   44  169 1    
    92   45   46 2    
    93   45   47 1    
    94   47   48 1    
    95   47   49 1    
    96   47  170 1    
    97   48  171 1    
    98   48  172 1    
    99   48  173 1    
   100   49   50 am   BACKBONE|DICT|INTERRES
   101   49  174 1    
   102   50   51 2    
   103   50   52 1    
   104   52   53 1    
   105   52   54 1    
   106   52  175 1    
   107   53  176 1    
   108   53  177 1    
   109   53  178 1    
   110   54   55 am   BACKBONE|DICT|INTERRES
   111   54  179 1    
   112   55   56 2    
   113   55   57 1    
   114   57   58 1    
   115   57   59 1    
   116   57  180 1    
   117   58  181 1    
   118   58  182 1    
   119   58  183 1    
   120   59   60 am   BACKBONE|DICT|INTERRES
   121   59  184 1    
   122   60   61 2    
   123   60   62 1    
   124   62   63 1    
   125   62   64 1    
   126   62  185 1    
   127   63  186 1    
   128   63  187 1    
   129   63  188 1    
   130   64   65 am   BACKBONE|DICT|INTERRES
   131   64  189 1    
   132   65   66 2    
   133   67   68 2    
   134   67   69 am   BACKBONE|DICT|INTERRES
   135   69   70 1    
   136   69  190 1    
   137   70   71 1    
   138   70   72 1    
   139   70  191 1    
   140   71  192 1    
   141   71  193 1    
   142   71  194 1    
   143   72   73 2    
   144   72   74 am   BACKBONE|DICT|INTERRES
   145   74   75 1    
   146   74  195 1    
   147   75   76 1    
   148   75   77 1    
   149   75  196 1    
   150   76  197 1    
   151   76  198 1    
   152   76  199 1    
   153   77   78 2    
   154   77   79 am   BACKBONE|DICT|INTERRES
   155   79   80 1    
   156   79  200 1    
   157   80   81 1    
   158   80   82 1    
   159   80  201 1    
   160   81  202 1    
   161   81  203 1    
   162   81  204 1    
   163   82   83 2    
   164   82   84 am   BACKBONE|DICT|INTERRES
   165   84   85 1    
   166   84  205 1    
   167   85   86 1    
   168   85   87 1    
   169   85  206 1    
   170   86  207 1    
   171   86  208 1    
   172   86  209 1    
   173   87   88 2    
   174   87   89 am   BACKBONE|DICT|INTERRES
   175   89   90 1    
   176   89  210 1    
   177   90   91 1    
   178   90   92 1    
   179   90  211 1    
   180   91  212 1    
   181   91  213 1    
   182   91  214 1    
   183   92   93 2    
   184   92   94 am   BACKBONE|DICT|INTERRES
   185   94   95 1    
   186   94  215 1    
   187   95   96 1    
   188   95   97 1    
   189   95  216 1    
   190   96  217 1    
   191   96  218 1    
   192   96  219 1    
   193   97   98 2    
   194   97   99 am   BACKBONE|DICT|INTERRES
   195   99  100 1    
   196   99  220 1    
   197  100  101 1    
   198  100  102 1    
   199  100  221 1    
   200  101  222 1    
   201  101  223 1    
   202  101  224 1    
   203  102  103 2    
   204  102  104 am   BACKBONE|DICT|INTERRES
   205  104  105 1    
   206  104  225 1    
   207  105  106 1    
   208  105  107 1    
   209  105  226 1    
   210  106  227 1    
   211  106  228 1    
   212  106  229 1    
   213  107  108 2    
   214  107  109 am   BACKBONE|DICT|INTERRES
   215  109  110 1    
   216  109  230 1    
   217  110  111 1    
   218  110  112 1    
   219  110  231 1    
   220  111  232 1    
   221  111  233 1    
   222  111  234 1    
   223  112  113 2    
   224  112  114 am   BACKBONE|DICT|INTERRES
   225  114  115 1    
   226  114  235 1    
   227  115  116 1    
   228  115  117 1    
   229  115  236 1    
   230  116  237 1    
   231  116  238 1    
   232  116  239 1    
   233  117  118 2    
   234  117  119 am   BACKBONE|DICT|INTERRES
   235  119  120 1    
   236  119  240 1    
   237  120  121 1    
   238  120  124 1    
   239  120  241 1    
   240  121  122 am   BACKBONE|DICT|INTERRES
   241  121  123 2    
   242  122  242 1    
   243  122  243 1    
   244  124  125 1    
   245  124  244 1    
   246  124  245 1    
   247  125  126 1    
   248  126  246 1    
   249  126  247 1    
@<TRIPOS>SUBSTRUCTURE
     1 UNK         1 GROUP             0       ****    0 ROOT    
