@<TRIPOS>MOLECULE
3R540
247   249    1
SMALL
USER_CHARGES


@<TRIPOS>ATOM
      1 CA          1.8304  -11.6744  -48.3885 C.3       0 UNK        -0.1800 
      2 C           1.5752  -13.1705  -48.2848 C.2       0 UNK         0.5000 
      3 O           1.0199  -13.6259  -47.2859 O.2       0 UNK        -0.5000 
      4 N           1.9882  -13.9361  -49.3031 N.am      1 UNK        -0.5000 
      5 CA          1.8461  -15.3936  -49.4117 C.3       1 UNK         0.1400 
      6 C6          0.3760  -15.8521  -49.6217 C.3       23 UNK        -0.0398 
      7 S7         -0.3508  -15.2110  -51.1760 S.3       23 UNK        -0.2404 
      8 C8          0.6418  -15.9957  -52.4948 C.3       23 UNK        -0.0205 
      9 C9          0.4837  -17.5077  -52.5260 C.ar      23 UNK        -0.0193 
     10 C10        -0.4360  -18.1051  -53.3901 C.ar      23 UNK        -0.1150 
     11 C11        -0.5983  -19.4944  -53.4086 C.ar      23 UNK        -0.0193 
     12 C12         0.1497  -20.2866  -52.5321 C.ar      23 UNK        -0.1150 
     13 C13         1.0707  -19.6964  -51.6611 C.ar      23 UNK        -0.0193 
     14 C14         1.2574  -18.3141  -51.6898 C.ar      23 UNK        -0.1150 
     15 C15         1.8435  -20.5304  -50.6535 C.3       23 UNK        -0.0205 
     16 S16         1.1615  -20.3131  -48.9778 S.3       23 UNK        -0.2404 
     17 C17        -0.4415  -21.1715  -49.1293 C.3       23 UNK        -0.0398 
     18 CA         -0.6782  -22.1383  -47.9502 C.3       11 UNK         0.1400 
     19 N          -0.8578  -21.4160  -46.6874 N.am      11 UNK        -0.5000 
     20 C          -1.0248  -21.9706  -45.4800 C.2       10 UNK         0.5000 
     21 O          -0.8666  -23.1746  -45.2627 O.2       10 UNK        -0.5000 
     22 CA         -1.5544  -21.0532  -44.3563 C.3       10 UNK         0.1400 
     23 CB         -0.4619  -20.7951  -43.3133 C.3       10 UNK        -0.1800 
     24 N          -2.1380  -19.7739  -44.8032 N.am      10 UNK        -0.5000 
     25 C          -3.1787  -19.6500  -45.6449 C.2       9 UNK         0.5000 
     26 O          -3.7309  -20.6164  -46.1696 O.2       9 UNK        -0.5000 
     27 CA         -3.6971  -18.2426  -45.9925 C.3       9 UNK         0.1400 
     28 CB         -5.1652  -18.0880  -45.5652 C.3       9 UNK        -0.1800 
     29 N          -2.9305  -17.1424  -45.4135 N.am      9 UNK        -0.5000 
     30 C          -1.7983  -16.6245  -45.8979 C.2       8 UNK         0.5000 
     31 O          -1.1704  -17.1146  -46.8374 O.2       8 UNK        -0.5000 
     32 CA         -1.2687  -15.3383  -45.2294 C.3       8 UNK         0.1400 
     33 CB         -1.8731  -14.0919  -45.9010 C.3       8 UNK        -0.1800 
     34 N          -1.4082  -15.2689  -43.7666 N.am      8 UNK        -0.5000 
     35 C          -2.5172  -15.2313  -43.0111 C.2       7 UNK         0.5000 
     36 O          -3.6575  -15.2647  -43.4766 O.2       7 UNK        -0.5000 
     37 CA         -2.3235  -15.1519  -41.4794 C.3       7 UNK         0.1400 
     38 CB         -3.5095  -15.7593  -40.7017 C.3       7 UNK        -0.1800 
     39 N          -1.0568  -15.7170  -41.0002 N.am      7 UNK        -0.5000 
     40 C          -0.6129  -16.9763  -41.1462 C.2       6 UNK         0.5000 
     41 O          -1.2466  -17.8537  -41.7326 O.2       6 UNK        -0.5000 
     42 CA          0.7763  -17.3044  -40.5590 C.3       6 UNK         0.1400 
     43 CB          1.6040  -18.1792  -41.5131 C.3       6 UNK        -0.1800 
     44 N           1.5327  -16.0839  -40.2815 N.am      6 UNK        -0.5000 
     45 C           1.9281  -15.6663  -39.0718 C.2       5 UNK         0.5000 
     46 O           1.7549  -16.3070  -38.0345 O.2       5 UNK        -0.5000 
     47 CA          2.6163  -14.2861  -38.9988 C.3       5 UNK         0.1400 
     48 CB          4.1435  -14.4507  -38.9724 C.3       5 UNK        -0.1800 
     49 N           2.2576  -13.3868  -40.0990 N.am      5 UNK        -0.5000 
     50 C           1.0257  -12.9229  -40.3522 C.2       4 UNK         0.5000 
     51 O           0.0456  -13.1661  -39.6484 O.2       4 UNK        -0.5000 
     52 CA          0.8401  -12.1128  -41.6489 C.3       4 UNK         0.1400 
     53 CB          0.9515  -10.6082  -41.3629 C.3       4 UNK        -0.1800 
     54 N           1.7752  -12.4696  -42.7220 N.am      4 UNK        -0.5000 
     55 C           1.8914  -13.6809  -43.2833 C.2       3 UNK         0.5000 
     56 O           1.2580  -14.6699  -42.9042 O.2       3 UNK        -0.5000 
     57 CA          2.8776  -13.7768  -44.4589 C.3       3 UNK         0.1400 
     58 CB          4.3429  -13.6612  -43.9918 C.3       3 UNK        -0.1800 
     59 N           2.6466  -14.9628  -45.2886 N.am      3 UNK        -0.5000 
     60 C           2.9707  -16.2451  -45.0568 C.2       2 UNK         0.5000 
     61 O           3.6139  -16.6296  -44.0801 O.2       2 UNK        -0.5000 
     62 CA          2.5012  -17.2919  -46.0953 C.3       2 UNK         0.1400 
     63 CB          1.5257  -18.2907  -45.4549 C.3       2 UNK        -0.1800 
     64 N           1.8878  -16.7045  -47.2945 N.am      2 UNK        -0.5000 
     65 C           2.5968  -16.1002  -48.2612 C.2       1 UNK         0.5000 
     66 O           3.8285  -16.0512  -48.2577 O.2       1 UNK        -0.5000 
     67 C          -1.8238  -23.1334  -48.2556 C.2       11 UNK         0.5000 
     68 O          -1.5971  -24.0773  -49.0112 O.2       11 UNK        -0.5000 
     69 N          -2.9972  -22.9753  -47.6206 N.am      12 UNK        -0.5000 
     70 CA         -4.0922  -23.9506  -47.5959 C.3       12 UNK         0.1400 
     71 CB         -5.2279  -23.4124  -46.7113 C.3       12 UNK        -0.1800 
     72 C          -3.6667  -25.3370  -47.0759 C.2       12 UNK         0.5000 
     73 O          -4.1983  -26.3436  -47.5428 O.2       12 UNK        -0.5000 
     74 N          -2.7135  -25.3588  -46.1355 N.am      13 UNK        -0.5000 
     75 CA         -2.1047  -26.5707  -45.5993 C.3       13 UNK         0.1400 
     76 CB         -1.9689  -26.4350  -44.0743 C.3       13 UNK        -0.1800 
     77 C          -0.7330  -26.8220  -46.2440 C.2       13 UNK         0.5000 
     78 O          -0.4473  -27.9555  -46.6297 O.2       13 UNK        -0.5000 
     79 N           0.0958  -25.7711  -46.3410 N.am      14 UNK        -0.5000 
     80 CA          1.4991  -25.8803  -46.7492 C.3       14 UNK         0.1400 
     81 CB          2.2607  -24.6224  -46.3023 C.3       14 UNK        -0.1800 
     82 C           1.7163  -26.1508  -48.2514 C.2       14 UNK         0.5000 
     83 O           2.7251  -26.7655  -48.6005 O.2       14 UNK        -0.5000 
     84 N           0.7940  -25.6929  -49.1085 N.am      15 UNK        -0.5000 
     85 CA          0.8768  -25.8184  -50.5687 C.3       15 UNK         0.1400 
     86 CB          1.1786  -24.4324  -51.1631 C.3       15 UNK        -0.1800 
     87 C          -0.4019  -26.4106  -51.1918 C.2       15 UNK         0.5000 
     88 O          -0.4406  -26.5966  -52.4086 O.2       15 UNK        -0.5000 
     89 N          -1.4216  -26.6823  -50.3633 N.am      16 UNK        -0.5000 
     90 CA         -2.7674  -27.1402  -50.7253 C.3       16 UNK         0.1400 
     91 CB         -2.7217  -28.5561  -51.3380 C.3       16 UNK        -0.1800 
     92 C          -3.5504  -26.1282  -51.5942 C.2       16 UNK         0.5000 
     93 O          -4.3796  -26.5374  -52.4093 O.2       16 UNK        -0.5000 
     94 N          -3.2866  -24.8272  -51.4097 N.am      17 UNK        -0.5000 
     95 CA         -3.9024  -23.7390  -52.1643 C.3       17 UNK         0.1400 
     96 CB         -3.1332  -23.5115  -53.4759 C.3       17 UNK        -0.1800 
     97 C          -3.9234  -22.4857  -51.2823 C.2       17 UNK         0.5000 
     98 O          -2.8714  -21.8977  -51.0348 O.2       17 UNK        -0.5000 
     99 N          -5.1154  -22.1246  -50.7933 N.am      18 UNK        -0.5000 
    100 CA        -5.3880  -21.1049  -49.7748 C.3       18 UNK         0.1400 
    101 CB        -6.8264  -21.3236  -49.2682 C.3       18 UNK        -0.1800 
    102 C         -5.1437  -19.6407  -50.2064 C.2       18 UNK         0.5000 
    103 O         -6.0384  -18.8073  -50.0562 O.2       18 UNK        -0.5000 
    104 N         -3.9393  -19.3454  -50.7137 N.am      19 UNK        -0.5000 
    105 CA        -3.4104  -18.0349  -51.1163 C.3       19 UNK         0.1400 
    106 CB        -3.3056  -17.0794  -49.9098 C.3       19 UNK        -0.1800 
    107 C         -4.1746  -17.4079  -52.2984 C.2       19 UNK         0.5000 
    108 O         -3.6890  -17.4316  -53.4302 O.2       19 UNK        -0.5000 
    109 N         -5.3950  -16.9229  -52.0385 N.am      20 UNK        -0.5000 
    110 CA        -6.3384  -16.3876  -53.0267 C.3       20 UNK         0.1400 
    111 CB        -7.5418  -15.7882  -52.2837 C.3       20 UNK        -0.1800 
    112 C         -6.8054  -17.4302  -54.0656 C.2       20 UNK         0.5000 
    113 O         -7.3238  -17.0544  -55.1170 O.2       20 UNK        -0.5000 
    114 N         -6.5829  -18.7166  -53.7633 N.am      21 UNK        -0.5000 
    115 CA        -6.7801  -19.8606  -54.6505 C.3       21 UNK         0.1400 
    116 CB        -6.6032  -21.1454  -53.8281 C.3       21 UNK        -0.1800 
    117 C         -5.8355  -19.8805  -55.8716 C.2       21 UNK         0.5000 
    118 O         -6.1436  -20.5755  -56.8409 O.2       21 UNK        -0.5000 
    119 N         -4.7176  -19.1408  -55.8197 N.am      22 UNK        -0.5000 
    120 CA        -3.7689  -19.0043  -56.9371 C.3       22 UNK         0.1400 
    121 C         -3.1840  -17.5720  -57.1081 C.2       22 UNK         0.5000 
    122 N         -3.1987  -16.7081  -56.0991 N.am      22 UNK        -0.7600 
    123 O         -2.7333  -17.2244  -58.1964 O.2       22 UNK        -0.5000 
    124 C124       -2.7118  -20.1512  -56.9624 C.3       23 UNK        -0.0398 
    125 S125       -1.1350  -19.8356  -56.0918 S.3       23 UNK        -0.2404 
    126 C126       -1.6016  -20.1258  -54.3595 C.3       23 UNK        -0.0205 
    127 H127        2.3231  -11.4104  -49.3245 H         1 UNK         0.0600 
    128 H128        2.4633  -11.3450  -47.5646 H         1 UNK         0.0600 
    129 H129        0.8875  -11.1303  -48.3343 H         1 UNK         0.0600 
    130 H130        2.4603  -13.4959  -50.0798 H         1 UNK         0.3000 
    131 H131        2.4109  -15.6705  -50.3001 H         1 UNK         0.0600 
    132 H132        0.2845  -16.9383  -49.6109 H         1 UNK         0.0800 
    133 H133       -0.2515  -15.5003  -48.8022 H         1 UNK         0.0800 
    134 H134        0.3227  -15.5774  -53.4507 H         1 UNK         0.0800 
    135 H135        1.6932  -15.7262  -52.3994 H         1 UNK         0.0800 
    136 H136       -1.0321  -17.4902  -54.0500 H         1 UNK         0.1150 
    137 H137        0.0049  -21.3578  -52.5180 H         1 UNK         0.1150 
    138 H138        1.9800  -17.8676  -51.0235 H         1 UNK         0.1150 
    139 H139        1.8349  -21.5850  -50.9282 H         1 UNK         0.0800 
    140 H140        2.8900  -20.2225  -50.6533 H         1 UNK         0.0800 
    141 H141       -1.2393  -20.4299  -49.1974 H         1 UNK         0.0800 
    142 H142       -0.4536  -21.7166  -50.0729 H         1 UNK         0.0800 
    143 H143        0.2156  -22.7514  -47.8443 H         1 UNK         0.0600 
    144 H144       -0.9955  -20.4191  -46.7660 H         1 UNK         0.3000 
    145 H145       -2.3537  -21.6114  -43.8649 H         1 UNK         0.0600 
    146 H146       -0.8815  -20.3446  -42.4151 H         1 UNK         0.0600 
    147 H147        0.0217  -21.7236  -43.0064 H         1 UNK         0.0600 
    148 H148        0.3118  -20.1337  -43.6979 H         1 UNK         0.0600 
    149 H149       -1.7541  -18.9334  -44.3948 H         1 UNK         0.3000 
    150 H150       -3.6557  -18.1546  -47.0796 H         1 UNK         0.0600 
    151 H151       -5.7922  -18.8575  -46.0181 H         1 UNK         0.0600 
    152 H152       -5.5658  -17.1230  -45.8764 H         1 UNK         0.0600 
    153 H153       -5.2776  -18.1645  -44.4830 H         1 UNK         0.0600 
    154 H154       -3.3676  -16.6387  -44.6450 H         1 UNK         0.3000 
    155 H155       -0.1953  -15.3187  -45.4173 H         1 UNK         0.0600 
    156 H156       -1.4148  -13.1800  -45.5182 H         1 UNK         0.0600 
    157 H157       -2.9495  -14.0215  -45.7439 H         1 UNK         0.0600 
    158 H158       -1.7037  -14.1102  -46.9784 H         1 UNK         0.0600 
    159 H159       -0.5194  -15.2320  -43.2732 H         1 UNK         0.3000 
    160 H160       -2.2856  -14.0883  -41.2407 H         1 UNK         0.0600 
    161 H161       -3.6524  -16.8135  -40.9412 H         1 UNK         0.0600 
    162 H162       -4.4404  -15.2418  -40.9359 H         1 UNK         0.0600 
    163 H163       -3.3582  -15.6772  -39.6254 H         1 UNK         0.0600 
    164 H164       -0.4664  -15.0683  -40.4937 H         1 UNK         0.3000 
    165 H165        0.6054  -17.8682  -39.6402 H         1 UNK         0.0600 
    166 H166        1.6783  -17.7269  -42.5017 H         1 UNK         0.0600 
    167 H167        2.6160  -18.3299  -41.1371 H         1 UNK         0.0600 
    168 H168        1.1549  -19.1646  -41.6279 H         1 UNK         0.0600 
    169 H169        1.6976  -15.4888  -41.0873 H         1 UNK         0.3000 
    170 H170        2.3041  -13.8134  -38.0653 H         1 UNK         0.0600 
    171 H171        4.4535  -15.0937  -38.1476 H         1 UNK         0.0600 
    172 H172        4.5152  -14.8982  -39.8953 H         1 UNK         0.0600 
    173 H173        4.6423  -13.4906  -38.8388 H         1 UNK         0.0600 
    174 H174        2.9971  -13.1427  -40.7411 H         1 UNK         0.3000 
    175 H175       -0.1685  -12.3167  -42.0148 H         1 UNK         0.0600 
    176 H176        1.9526  -10.3355  -41.0266 H         1 UNK         0.0600 
    177 H177        0.7226  -10.0191  -42.2512 H         1 UNK         0.0600 
    178 H178        0.2496  -10.3047  -40.5848 H         1 UNK         0.0600 
    179 H179        2.3345  -11.7121  -43.0872 H         1 UNK         0.3000 
    180 H180        2.6722  -12.9282  -45.1128 H         1 UNK         0.0600 
    181 H181        4.5867  -14.3920  -43.2203 H         1 UNK         0.0600 
    182 H182        4.5425  -12.6748  -43.5723 H         1 UNK         0.0600 
    183 H183        5.0346  -13.8040  -44.8221 H         1 UNK         0.0600 
    184 H184        2.0843  -14.7716  -46.1123 H         1 UNK         0.3000 
    185 H185        3.3835  -17.8542  -46.4081 H         1 UNK         0.0600 
    186 H186        1.1002  -18.9702  -46.1930 H         1 UNK         0.0600 
    187 H187        2.0439  -18.9006  -44.7146 H         1 UNK         0.0600 
    188 H188        0.7068  -17.7870  -44.9424 H         1 UNK         0.0600 
    189 H189        0.8750  -16.7244  -47.3371 H         1 UNK         0.3000 
    190 H190       -3.1310  -22.1509  -47.0392 H         1 UNK         0.3000 
    191 H191       -4.4621  -24.0683  -48.6157 H         1 UNK         0.0600 
    192 H192       -5.5561  -22.4245  -47.0266 H         1 UNK         0.0600 
    193 H193       -6.0967  -24.0709  -46.7464 H         1 UNK         0.0600 
    194 H194       -4.9183  -23.3313  -45.6684 H         1 UNK         0.0600 
    195 H195       -2.3138  -24.4807  -45.8242 H         1 UNK         0.3000 
    196 H196       -2.7362  -27.4382  -45.8026 H         1 UNK         0.0600 
    197 H197       -1.5107  -27.3255  -43.6422 H         1 UNK         0.0600 
    198 H198       -2.9444  -26.3107  -43.6040 H         1 UNK         0.0600 
    199 H199       -1.3529  -25.5792  -43.7947 H         1 UNK         0.0600 
    200 H200       -0.2037  -24.8728  -45.9745 H         1 UNK         0.3000 
    201 H201        1.9315  -26.7266  -46.2107 H         1 UNK         0.0600 
    202 H202        2.1548  -24.4568  -45.2299 H         1 UNK         0.0600 
    203 H203        1.9128  -23.7271  -46.8137 H         1 UNK         0.0600 
    204 H204        3.3269  -24.7201  -46.5108 H         1 UNK         0.0600 
    205 H205       -0.0058  -25.1775  -48.7576 H         1 UNK         0.3000 
    206 H206        1.6883  -26.4926  -50.8490 H         1 UNK         0.0600 
    207 H207        2.0907  -24.0134  -50.7384 H         1 UNK         0.0600 
    208 H208        1.3198  -24.4887  -52.2431 H         1 UNK         0.0600 
    209 H209        0.3641  -23.7328  -50.9767 H         1 UNK         0.0600 
    210 H210       -1.2888  -26.4716  -49.3856 H         1 UNK         0.3000 
    211 H211       -3.3199  -27.2179  -49.7905 H         1 UNK         0.0600 
    212 H212       -2.2543  -28.5587  -52.3229 H         1 UNK         0.0600 
    213 H213       -3.7263  -28.9644  -51.4536 H         1 UNK         0.0600 
    214 H214       -2.1662  -29.2437  -50.7003 H         1 UNK         0.0600 
    215 H215       -2.6140  -24.5504  -50.6994 H         1 UNK         0.3000 
    216 H216       -4.9332  -24.0008  -52.4126 H         1 UNK         0.0600 
    217 H217       -3.5430  -22.6661  -54.0294 H         1 UNK         0.0600 
    218 H218       -3.1970  -24.3845  -54.1254 H         1 UNK         0.0600 
    219 H219       -2.0767  -23.3163  -53.2887 H         1 UNK         0.0600 
    220 H220       -5.9210  -22.6619  -51.0786 H         1 UNK         0.3000 
    221 H221       -4.7101  -21.2824  -48.9398 H         1 UNK         0.0600 
    222 H222       -7.5617  -21.1077  -50.0445 H         1 UNK         0.0600 
    223 H223       -6.9843  -22.3510  -48.9405 H         1 UNK         0.0600 
    224 H224       -7.0455  -20.6768  -48.4174 H         1 UNK         0.0600 
    225 H225       -3.3074  -20.1328  -50.8486 H         1 UNK         0.3000 
    226 H226       -2.3941  -18.2152  -51.4643 H         1 UNK         0.0600 
    227 H227       -2.5704  -17.4441  -49.1929 H         1 UNK         0.0600 
    228 H228       -2.9843  -16.0862  -50.2226 H         1 UNK         0.0600 
    229 H229       -4.2524  -16.9576  -49.3843 H         1 UNK         0.0600 
    230 H230       -5.7564  -17.0691  -51.1023 H         1 UNK         0.3000 
    231 H231       -5.8341  -15.5879  -53.5727 H         1 UNK         0.0600 
    232 H232       -8.2575  -15.3529  -52.9824 H         1 UNK         0.0600 
    233 H233       -7.2302  -14.9954  -51.6034 H         1 UNK         0.0600 
    234 H234       -8.0690  -16.5441  -51.7001 H         1 UNK         0.0600 
    235 H235       -6.1763  -18.9117  -52.8607 H         1 UNK         0.3000 
    236 H236       -7.8051  -19.8244  -55.0250 H         1 UNK         0.0600 
    237 H237       -7.2863  -21.1721  -52.9788 H         1 UNK         0.0600 
    238 H238       -6.8022  -22.0303  -54.4340 H         1 UNK         0.0600 
    239 H239       -5.5855  -21.2296  -53.4487 H         1 UNK         0.0600 
    240 H240       -4.5275  -18.5827  -54.9974 H         1 UNK         0.3000 
    241 H241       -4.3585  -19.1259  -57.8484 H         1 UNK         0.0600 
    242 H242       -3.4623  -16.9773  -55.1549 H         1 UNK         0.3800 
    243 H243       -2.8288  -15.7845  -56.2553 H         1 UNK         0.3800 
    244 H244       -2.4471  -20.3515  -58.0015 H         1 UNK         0.0800 
    245 H245       -3.1415  -21.0845  -56.5958 H         1 UNK         0.0800 
    246 H246       -2.5894  -19.7157  -54.1561 H         1 UNK         0.0800 
    247 H247       -1.6667  -21.1991  -54.1930 H         1 UNK         0.0800 
@<TRIPOS>BOND
     1    1    2 1    
     2    1  127 1    
     3    1  128 1    
     4    1  129 1    
     5    2    3 2    
     6    2    4 am   BACKBONE|DICT|INTERRES
     7    4    5 1    
     8    4  130 1    
     9    5    6 1    
    10    5   65 1    
    11    5  131 1    
    12    6    7 1    
    13    6  132 1    
    14    6  133 1    
    15    7    8 1    
    16    8    9 1    
    17    8  134 1    
    18    8  135 1    
    19    9   10 ar   
    20    9   14 ar   
    21   10   11 ar   
    22   10  136 1    
    23   11   12 ar   
    24   11  126 1    
    25   12   13 ar   
    26   12  137 1    
    27   13   14 ar   
    28   13   15 1    
    29   14  138 1    
    30   15   16 1    
    31   15  139 1    
    32   15  140 1    
    33   16   17 1    
    34   17   18 1    
    35   17  141 1    
    36   17  142 1    
    37   18   19 1    
    38   18   67 1    
    39   18  143 1    
    40   19   20 am   BACKBONE|DICT|INTERRES
    41   19  144 1    
    42   20   21 2    
    43   20   22 1    
    44   22   23 1    
    45   22   24 1    
    46   22  145 1    
    47   23  146 1    
    48   23  147 1    
    49   23  148 1    
    50   24   25 am   BACKBONE|DICT|INTERRES
    51   24  149 1    
    52   25   26 2    
    53   25   27 1    
    54   27   28 1    
    55   27   29 1    
    56   27  150 1    
    57   28  151 1    
    58   28  152 1    
    59   28  153 1    
    60   29   30 am   BACKBONE|DICT|INTERRES
    61   29  154 1    
    62   30   31 2    
    63   30   32 1    
    64   32   33 1    
    65   32   34 1    
    66   32  155 1    
    67   33  156 1    
    68   33  157 1    
    69   33  158 1    
    70   34   35 am   BACKBONE|DICT|INTERRES
    71   34  159 1    
    72   35   36 2    
    73   35   37 1    
    74   37   38 1    
    75   37   39 1    
    76   37  160 1    
    77   38  161 1    
    78   38  162 1    
    79   38  163 1    
    80   39   40 am   BACKBONE|DICT|INTERRES
    81   39  164 1    
    82   40   41 2    
    83   40   42 1    
    84   42   43 1    
    85   42   44 1    
    86   42  165 1    
    87   43  166 1    
    88   43  167 1    
    89   43  168 1    
    90   44   45 am   BACKBONE|DICT|INTERRES
    91   44  169 1    
    92   45   46 2    
    93   45   47 1    
    94   47   48 1    
    95   47   49 1    
    96   47  170 1    
    97   48  171 1    
    98   48  172 1    
    99   48  173 1    
   100   49   50 am   BACKBONE|DICT|INTERRES
   101   49  174 1    
   102   50   51 2    
   103   50   52 1    
   104   52   53 1    
   105   52   54 1    
   106   52  175 1    
   107   53  176 1    
   108   53  177 1    
   109   53  178 1    
   110   54   55 am   BACKBONE|DICT|INTERRES
   111   54  179 1    
   112   55   56 2    
   113   55   57 1    
   114   57   58 1    
   115   57   59 1    
   116   57  180 1    
   117   58  181 1    
   118   58  182 1    
   119   58  183 1    
   120   59   60 am   BACKBONE|DICT|INTERRES
   121   59  184 1    
   122   60   61 2    
   123   60   62 1    
   124   62   63 1    
   125   62   64 1    
   126   62  185 1    
   127   63  186 1    
   128   63  187 1    
   129   63  188 1    
   130   64   65 am   BACKBONE|DICT|INTERRES
   131   64  189 1    
   132   65   66 2    
   133   67   68 2    
   134   67   69 am   BACKBONE|DICT|INTERRES
   135   69   70 1    
   136   69  190 1    
   137   70   71 1    
   138   70   72 1    
   139   70  191 1    
   140   71  192 1    
   141   71  193 1    
   142   71  194 1    
   143   72   73 2    
   144   72   74 am   BACKBONE|DICT|INTERRES
   145   74   75 1    
   146   74  195 1    
   147   75   76 1    
   148   75   77 1    
   149   75  196 1    
   150   76  197 1    
   151   76  198 1    
   152   76  199 1    
   153   77   78 2    
   154   77   79 am   BACKBONE|DICT|INTERRES
   155   79   80 1    
   156   79  200 1    
   157   80   81 1    
   158   80   82 1    
   159   80  201 1    
   160   81  202 1    
   161   81  203 1    
   162   81  204 1    
   163   82   83 2    
   164   82   84 am   BACKBONE|DICT|INTERRES
   165   84   85 1    
   166   84  205 1    
   167   85   86 1    
   168   85   87 1    
   169   85  206 1    
   170   86  207 1    
   171   86  208 1    
   172   86  209 1    
   173   87   88 2    
   174   87   89 am   BACKBONE|DICT|INTERRES
   175   89   90 1    
   176   89  210 1    
   177   90   91 1    
   178   90   92 1    
   179   90  211 1    
   180   91  212 1    
   181   91  213 1    
   182   91  214 1    
   183   92   93 2    
   184   92   94 am   BACKBONE|DICT|INTERRES
   185   94   95 1    
   186   94  215 1    
   187   95   96 1    
   188   95   97 1    
   189   95  216 1    
   190   96  217 1    
   191   96  218 1    
   192   96  219 1    
   193   97   98 2    
   194   97   99 am   BACKBONE|DICT|INTERRES
   195   99  100 1    
   196   99  220 1    
   197  100  101 1    
   198  100  102 1    
   199  100  221 1    
   200  101  222 1    
   201  101  223 1    
   202  101  224 1    
   203  102  103 2    
   204  102  104 am   BACKBONE|DICT|INTERRES
   205  104  105 1    
   206  104  225 1    
   207  105  106 1    
   208  105  107 1    
   209  105  226 1    
   210  106  227 1    
   211  106  228 1    
   212  106  229 1    
   213  107  108 2    
   214  107  109 am   BACKBONE|DICT|INTERRES
   215  109  110 1    
   216  109  230 1    
   217  110  111 1    
   218  110  112 1    
   219  110  231 1    
   220  111  232 1    
   221  111  233 1    
   222  111  234 1    
   223  112  113 2    
   224  112  114 am   BACKBONE|DICT|INTERRES
   225  114  115 1    
   226  114  235 1    
   227  115  116 1    
   228  115  117 1    
   229  115  236 1    
   230  116  237 1    
   231  116  238 1    
   232  116  239 1    
   233  117  118 2    
   234  117  119 am   BACKBONE|DICT|INTERRES
   235  119  120 1    
   236  119  240 1    
   237  120  121 1    
   238  120  124 1    
   239  120  241 1    
   240  121  122 am   BACKBONE|DICT|INTERRES
   241  121  123 2    
   242  122  242 1    
   243  122  243 1    
   244  124  125 1    
   245  124  244 1    
   246  124  245 1    
   247  125  126 1    
   248  126  246 1    
   249  126  247 1    
@<TRIPOS>SUBSTRUCTURE
     1 UNK         1 GROUP             0       ****    0 ROOT    
