@<TRIPOS>MOLECULE
3R540
247   249    1
SMALL
USER_CHARGES


@<TRIPOS>ATOM
      1 CA          5.2804  -12.9017  -44.4858 C.3       0 UNK        -0.1800 
      2 C           4.1385  -13.6603  -45.1447 C.2       0 UNK         0.5000 
      3 O           3.2877  -14.2153  -44.4514 O.2       0 UNK        -0.5000 
      4 N           4.1134  -13.6932  -46.4828 N.am      1 UNK        -0.5000 
      5 CA          3.0814  -14.3752  -47.2764 C.3       1 UNK         0.1400 
      6 C6          3.4955  -14.5719  -48.7548 C.3       23 UNK        -0.0398 
      7 S7          5.0926  -15.4412  -48.9034 S.3       23 UNK        -0.2404 
      8 C8          5.0515  -16.0141  -50.6313 C.3       23 UNK        -0.0205 
      9 C9          4.2660  -17.3068  -50.8150 C.ar      23 UNK        -0.0193 
     10 C10         3.2147  -17.3699  -51.7353 C.ar      23 UNK        -0.1150 
     11 C11         2.5401  -18.5740  -51.9608 C.ar      23 UNK        -0.0193 
     12 C12         2.9182  -19.7179  -51.2538 C.ar      23 UNK        -0.1150 
     13 C13         3.9594  -19.6676  -50.3231 C.ar      23 UNK        -0.0193 
     14 C14         4.6305  -18.4599  -50.1114 C.ar      23 UNK        -0.1150 
     15 C15         4.3828  -20.9223  -49.5717 C.3       23 UNK        -0.0205 
     16 S16         3.3843  -21.1937  -48.0736 S.3       23 UNK        -0.2404 
     17 C17         1.8079  -21.7647  -48.7911 C.3       23 UNK        -0.0398 
     18 CA          1.0416  -22.7298  -47.8578 C.3       11 UNK         0.1400 
     19 N           0.5767  -22.0791  -46.6289 N.am      11 UNK        -0.5000 
     20 C          -0.0255  -22.7061  -45.6080 C.2       10 UNK         0.5000 
     21 O          -0.1902  -23.9250  -45.5528 O.2       10 UNK        -0.5000 
     22 CA         -0.5979  -21.8150  -44.4919 C.3       10 UNK         0.1400 
     23 CB          0.4970  -21.3805  -43.5055 C.3       10 UNK        -0.1800 
     24 N          -1.2807  -20.6396  -45.0350 N.am      10 UNK        -0.5000 
     25 C          -2.4413  -20.6872  -45.7050 C.2       9 UNK         0.5000 
     26 O          -3.0820  -21.7218  -45.8831 O.2       9 UNK        -0.5000 
     27 CA         -2.9553  -19.3704  -46.3131 C.3       9 UNK         0.1400 
     28 CB         -3.8099  -18.5959  -45.3000 C.3       9 UNK        -0.1800 
     29 N          -1.8683  -18.5184  -46.7925 N.am      9 UNK        -0.5000 
     30 C          -1.1272  -18.7915  -47.8774 C.2       8 UNK         0.5000 
     31 O          -1.3035  -19.7772  -48.5920 O.2       8 UNK        -0.5000 
     32 CA          0.0342  -17.8281  -48.1888 C.3       8 UNK         0.1400 
     33 CB         -0.4934  -16.6328  -48.9950 C.3       8 UNK        -0.1800 
     34 N           0.7157  -17.3390  -46.9868 N.am      8 UNK        -0.5000 
     35 C           1.2660  -18.1236  -46.0466 C.2       7 UNK         0.5000 
     36 O           1.3525  -19.3447  -46.1586 O.2       7 UNK        -0.5000 
     37 CA          1.7223  -17.4730  -44.7246 C.3       7 UNK         0.1400 
     38 CB          3.2546  -17.4551  -44.6138 C.3       7 UNK        -0.1800 
     39 N           1.1760  -16.1348  -44.4721 N.am      7 UNK        -0.5000 
     40 C          -0.1295  -15.8642  -44.3167 C.2       6 UNK         0.5000 
     41 O          -1.0101  -16.7180  -44.4491 O.2       6 UNK        -0.5000 
     42 CA         -0.5159  -14.4076  -43.9757 C.3       6 UNK         0.1400 
     43 CB         -1.9686  -14.2843  -43.4726 C.3       6 UNK        -0.1800 
     44 N           0.3935  -13.7361  -43.0419 N.am      6 UNK        -0.5000 
     45 C           0.7439  -14.1426  -41.8122 C.2       5 UNK         0.5000 
     46 O           0.4161  -15.2201  -41.3138 O.2       5 UNK        -0.5000 
     47 CA          1.5505  -13.1376  -40.9704 C.3       5 UNK         0.1400 
     48 CB          2.9911  -12.9860  -41.4783 C.3       5 UNK        -0.1800 
     49 N           0.9085  -11.8240  -40.9379 N.am      5 UNK        -0.5000 
     50 C          -0.2139  -11.5413  -40.2610 C.2       4 UNK         0.5000 
     51 O          -0.8034  -12.3520  -39.5456 O.2       4 UNK        -0.5000 
     52 CA         -0.7686  -10.1085  -40.3868 C.3       4 UNK         0.1400 
     53 CB         -0.3465   -9.2613  -39.1763 C.3       4 UNK        -0.1800 
     54 N          -0.3422   -9.4291  -41.6119 N.am      4 UNK        -0.5000 
     55 C          -0.8169   -9.6985  -42.8347 C.2       3 UNK         0.5000 
     56 O          -1.7063  -10.5246  -43.0494 O.2       3 UNK        -0.5000 
     57 CA         -0.2173   -8.9041  -44.0162 C.3       3 UNK         0.1400 
     58 CB          1.1329   -8.2218  -43.6968 C.3       3 UNK        -0.1800 
     59 N          -0.1040   -9.7182  -45.2304 N.am      3 UNK        -0.5000 
     60 C           0.6155  -10.8380  -45.3874 C.2       2 UNK         0.5000 
     61 O           1.2951  -11.3469  -44.4906 O.2       2 UNK        -0.5000 
     62 CA          0.5528  -11.5028  -46.7774 C.3       2 UNK         0.1400 
     63 CB          0.4966  -10.4815  -47.9299 C.3       2 UNK        -0.1800 
     64 N           1.7254  -12.3509  -46.9717 N.am      2 UNK        -0.5000 
     65 C           1.7123  -13.6729  -47.1720 C.2       1 UNK         0.5000 
     66 O           0.6866  -14.3473  -47.2409 O.2       1 UNK        -0.5000 
     67 C          -0.1225  -23.3964  -48.6171 C.2       11 UNK         0.5000 
     68 O           0.0055  -24.5507  -49.0253 O.2       11 UNK        -0.5000 
     69 N          -1.2478  -22.6800  -48.7523 N.am      12 UNK        -0.5000 
     70 CA         -2.4772  -23.1838  -49.3595 C.3       12 UNK         0.1400 
     71 CB         -3.5009  -22.0517  -49.4758 C.3       12 UNK        -0.1800 
     72 C          -3.0725  -24.3761  -48.5942 C.2       12 UNK         0.5000 
     73 O          -3.4216  -25.3735  -49.2216 O.2       12 UNK        -0.5000 
     74 N          -3.1318  -24.2803  -47.2581 N.am      13 UNK        -0.5000 
     75 CA         -3.5932  -25.3507  -46.3728 C.3       13 UNK         0.1400 
     76 CB         -3.6666  -24.8375  -44.9271 C.3       13 UNK        -0.1800 
     77 C          -2.7239  -26.6184  -46.4615 C.2       13 UNK         0.5000 
     78 O          -3.2705  -27.7203  -46.5160 O.2       13 UNK        -0.5000 
     79 N          -1.3962  -26.4413  -46.5238 N.am      14 UNK        -0.5000 
     80 CA         -0.4225  -27.5182  -46.7188 C.3       14 UNK         0.1400 
     81 CB          0.9960  -26.9717  -46.4974 C.3       14 UNK        -0.1800 
     82 C          -0.5407  -28.1930  -48.0999 C.2       14 UNK         0.5000 
     83 O          -0.3998  -29.4127  -48.1945 O.2       14 UNK        -0.5000 
     84 N          -0.8238  -27.3949  -49.1379 N.am      15 UNK        -0.5000 
     85 CA         -1.0635  -27.8512  -50.5092 C.3       15 UNK         0.1400 
     86 CB         -0.8689  -26.6612  -51.4631 C.3       15 UNK        -0.1800 
     87 C          -2.4571  -28.4805  -50.7212 C.2       15 UNK         0.5000 
     88 O          -2.6750  -29.1065  -51.7594 O.2       15 UNK        -0.5000 
     89 N          -3.3713  -28.2846  -49.7587 N.am      16 UNK        -0.5000 
     90 CA         -4.7998  -28.6181  -49.7939 C.3       16 UNK         0.1400 
     91 CB         -5.0171  -30.1444  -49.8573 C.3       16 UNK        -0.1800 
     92 C          -5.5503  -27.8408  -50.8985 C.2       16 UNK         0.5000 
     93 O          -6.3934  -28.4035  -51.6003 O.2       16 UNK        -0.5000 
     94 N          -5.2085  -26.5557  -51.0318 N.am      17 UNK        -0.5000 
     95 CA         -5.7426  -25.6051  -52.0003 C.3       17 UNK         0.1400 
     96 CB         -4.5631  -25.0769  -52.8341 C.3       17 UNK        -0.1800 
     97 C          -6.4530  -24.4482  -51.2753 C.2       17 UNK         0.5000 
     98 O          -6.3716  -24.3325  -50.0496 O.2       17 UNK        -0.5000 
     99 N          -7.1355  -23.5976  -52.0512 N.am      18 UNK        -0.5000 
    100 CA        -7.7609  -22.3678  -51.5672 C.3       18 UNK         0.1400 
    101 CB        -8.7840  -21.8812  -52.6051 C.3       18 UNK        -0.1800 
    102 C         -6.7045  -21.2791  -51.3157 C.2       18 UNK         0.5000 
    103 O         -5.7815  -21.1288  -52.1219 O.2       18 UNK        -0.5000 
    104 N         -6.8793  -20.5083  -50.2340 N.am      19 UNK        -0.5000 
    105 CA        -6.0005  -19.3957  -49.8569 C.3       19 UNK         0.1400 
    106 CB        -6.3580  -18.9116  -48.4441 C.3       19 UNK        -0.1800 
    107 C         -6.0334  -18.2324  -50.8639 C.2       19 UNK         0.5000 
    108 O         -5.0045  -17.5964  -51.0876 O.2       19 UNK        -0.5000 
    109 N         -7.1951  -18.0168  -51.4980 N.am      20 UNK        -0.5000 
    110 CA        -7.3951  -17.0378  -52.5702 C.3       20 UNK         0.1400 
    111 CB        -8.8997  -16.9059  -52.8513 C.3       20 UNK        -0.1800 
    112 C         -6.6342  -17.3906  -53.8647 C.2       20 UNK         0.5000 
    113 O         -6.2648  -16.4877  -54.6159 O.2       20 UNK        -0.5000 
    114 N         -6.4008  -18.6907  -54.0901 N.am      21 UNK        -0.5000 
    115 CA        -5.6071  -19.2203  -55.1998 C.3       21 UNK         0.1400 
    116 CB        -6.1962  -20.5788  -55.6151 C.3       21 UNK        -0.1800 
    117 C         -4.1160  -19.3708  -54.8357 C.2       21 UNK         0.5000 
    118 O         -3.3108  -19.6624  -55.7209 O.2       21 UNK        -0.5000 
    119 N         -3.7757  -19.1890  -53.5514 N.am      22 UNK        -0.5000 
    120 CA        -2.4564  -19.4537  -52.9577 C.3       22 UNK         0.1400 
    121 C         -2.0809  -20.9688  -52.9376 C.2       22 UNK         0.5000 
    122 N         -3.0530  -21.8716  -52.8692 N.am      22 UNK        -0.7600 
    123 O         -0.9118  -21.3405  -52.9820 O.2       22 UNK        -0.5000 
    124 C124       -1.3497  -18.5260  -53.5394 C.3       23 UNK        -0.0398 
    125 S125       -0.1363  -18.0242  -52.2750 S.3       23 UNK        -0.2404 
    126 C126        1.4145  -18.6492  -52.9795 C.3       23 UNK        -0.0205 
    127 H127        4.9066  -11.9806  -44.0388 H         1 UNK         0.0600 
    128 H128        5.7283  -13.5080  -43.6982 H         1 UNK         0.0600 
    129 H129        6.0613  -12.6436  -45.2023 H         1 UNK         0.0600 
    130 H130        4.8531  -13.2501  -47.0088 H         1 UNK         0.3000 
    131 H131        2.9455  -15.3696  -46.8529 H         1 UNK         0.0600 
    132 H132        2.7362  -15.1495  -49.2855 H         1 UNK         0.0800 
    133 H133        3.5742  -13.6122  -49.2684 H         1 UNK         0.0800 
    134 H134        6.0765  -16.1879  -50.9614 H         1 UNK         0.0800 
    135 H135        4.6586  -15.2189  -51.2669 H         1 UNK         0.0800 
    136 H136        2.9284  -16.4877  -52.2906 H         1 UNK         0.1150 
    137 H137        2.4019  -20.6497  -51.4351 H         1 UNK         0.1150 
    138 H138        5.4481  -18.4180  -49.4053 H         1 UNK         0.1150 
    139 H139        4.3226  -21.7940  -50.2250 H         1 UNK         0.0800 
    140 H140        5.4305  -20.8409  -49.2786 H         1 UNK         0.0800 
    141 H141        2.0262  -22.2638  -49.7368 H         1 UNK         0.0800 
    142 H142        1.1990  -20.8929  -49.0352 H         1 UNK         0.0800 
    143 H143        1.7253  -23.5281  -47.5613 H         1 UNK         0.0600 
    144 H144        0.7348  -21.0763  -46.5614 H         1 UNK         0.3000 
    145 H145       -1.3311  -22.4048  -43.9377 H         1 UNK         0.0600 
    146 H146        0.0863  -20.7635  -42.7063 H         1 UNK         0.0600 
    147 H147        0.9622  -22.2495  -43.0387 H         1 UNK         0.0600 
    148 H148        1.2886  -20.8135  -43.9944 H         1 UNK         0.0600 
    149 H149       -0.7931  -19.7579  -44.9752 H         1 UNK         0.3000 
    150 H150       -3.5900  -19.6220  -47.1650 H         1 UNK         0.0600 
    151 H151       -4.6585  -19.1958  -44.9686 H         1 UNK         0.0600 
    152 H152       -4.2097  -17.6814  -45.7384 H         1 UNK         0.0600 
    153 H153       -3.2364  -18.3207  -44.4141 H         1 UNK         0.0600 
    154 H154       -1.6247  -17.7220  -46.2136 H         1 UNK         0.3000 
    155 H155        0.7629  -18.3667  -48.7983 H         1 UNK         0.0600 
    156 H156       -1.1219  -16.9591  -49.8230 H         1 UNK         0.0600 
    157 H157       -1.1035  -15.9711  -48.3795 H         1 UNK         0.0600 
    158 H158        0.3246  -16.0485  -49.4158 H         1 UNK         0.0600 
    159 H159        0.6632  -16.3397  -46.8225 H         1 UNK         0.3000 
    160 H160        1.3499  -18.1147  -43.9235 H         1 UNK         0.0600 
    161 H161        3.5762  -17.0428  -43.6572 H         1 UNK         0.0600 
    162 H162        3.6587  -18.4659  -44.6833 H         1 UNK         0.0600 
    163 H163        3.7197  -16.8687  -45.4041 H         1 UNK         0.0600 
    164 H164        1.8530  -15.3814  -44.3613 H         1 UNK         0.3000 
    165 H165       -0.4513  -13.8506  -44.9092 H         1 UNK         0.0600 
    166 H166       -2.2300  -13.2450  -43.2744 H         1 UNK         0.0600 
    167 H167       -2.6754  -14.6585  -44.2141 H         1 UNK         0.0600 
    168 H168       -2.1254  -14.8500  -42.5536 H         1 UNK         0.0600 
    169 H169        0.7706  -12.8527  -43.3747 H         1 UNK         0.3000 
    170 H170        1.5977  -13.5245  -39.9502 H         1 UNK         0.0600 
    171 H171        3.5968  -12.4131  -40.7763 H         1 UNK         0.0600 
    172 H172        3.0227  -12.4728  -42.4392 H         1 UNK         0.0600 
    173 H173        3.4692  -13.9582  -41.6050 H         1 UNK         0.0600 
    174 H174        1.3093  -11.1073  -41.5243 H         1 UNK         0.3000 
    175 H175       -1.8586  -10.1771  -40.3898 H         1 UNK         0.0600 
    176 H176        0.7368   -9.1463  -39.1228 H         1 UNK         0.0600 
    177 H177       -0.7894   -8.2660  -39.2173 H         1 UNK         0.0600 
    178 H178       -0.6737   -9.7224  -38.2434 H         1 UNK         0.0600 
    179 H179        0.3788   -8.7290  -41.5142 H         1 UNK         0.3000 
    180 H180       -0.9375   -8.1175  -44.2445 H         1 UNK         0.0600 
    181 H181        1.8867   -8.9382  -43.3680 H         1 UNK         0.0600 
    182 H182        1.0243   -7.4682  -42.9165 H         1 UNK         0.0600 
    183 H183        1.5269   -7.7101  -44.5749 H         1 UNK         0.0600 
    184 H184       -0.6589   -9.4004  -46.0121 H         1 UNK         0.3000 
    185 H185       -0.3602  -12.0998  -46.8017 H         1 UNK         0.0600 
    186 H186        1.3276   -9.7769  -47.8845 H         1 UNK         0.0600 
    187 H187        0.5401  -10.9825  -48.8971 H         1 UNK         0.0600 
    188 H188       -0.4300   -9.9073  -47.9148 H         1 UNK         0.0600 
    189 H189        2.6184  -11.9036  -46.8244 H         1 UNK         0.3000 
    190 H190       -1.2601  -21.7115  -48.4456 H         1 UNK         0.3000 
    191 H191       -2.2313  -23.5217  -50.3681 H         1 UNK         0.0600 
    192 H192       -3.8024  -21.6715  -48.5006 H         1 UNK         0.0600 
    193 H193       -4.3983  -22.4022  -49.9827 H         1 UNK         0.0600 
    194 H194       -3.1025  -21.2194  -50.0546 H         1 UNK         0.0600 
    195 H195       -2.8722  -23.4041  -46.8139 H         1 UNK         0.3000 
    196 H196       -4.6034  -25.6217  -46.6866 H         1 UNK         0.0600 
    197 H197       -4.0218  -25.6176  -44.2528 H         1 UNK         0.0600 
    198 H198       -4.3554  -23.9969  -44.8426 H         1 UNK         0.0600 
    199 H199       -2.6921  -24.5090  -44.5656 H         1 UNK         0.0600 
    200 H200       -1.0232  -25.5013  -46.4256 H         1 UNK         0.3000 
    201 H201       -0.6130  -28.2810  -45.9611 H         1 UNK         0.0600 
    202 H202        1.1071  -26.5606  -45.4939 H         1 UNK         0.0600 
    203 H203        1.2402  -26.1829  -47.2093 H         1 UNK         0.0600 
    204 H204        1.7410  -27.7600  -46.6112 H         1 UNK         0.0600 
    205 H205       -0.8593  -26.3919  -48.9843 H         1 UNK         0.3000 
    206 H206       -0.3200  -28.6114  -50.7570 H         1 UNK         0.0600 
    207 H207        0.1322  -26.2398  -51.3696 H         1 UNK         0.0600 
    208 H208       -0.9980  -26.9645  -52.5027 H         1 UNK         0.0600 
    209 H209       -1.5865  -25.8651  -51.2626 H         1 UNK         0.0600 
    210 H210       -3.0847  -27.7182  -48.9708 H         1 UNK         0.3000 
    211 H211       -5.2117  -28.2686  -48.8461 H         1 UNK         0.0600 
    212 H212       -4.6892  -30.5646  -50.8083 H         1 UNK         0.0600 
    213 H213       -6.0725  -30.3918  -49.7391 H         1 UNK         0.0600 
    214 H214       -4.4738  -30.6522  -49.0603 H         1 UNK         0.0600 
    215 H215       -4.5558  -26.1572  -50.3569 H         1 UNK         0.3000 
    216 H216       -6.4643  -26.0884  -52.6618 H         1 UNK         0.0600 
    217 H217       -4.8912  -24.3556  -53.5835 H         1 UNK         0.0600 
    218 H218       -4.0633  -25.8889  -53.3630 H         1 UNK         0.0600 
    219 H219       -3.8213  -24.5876  -52.2024 H         1 UNK         0.0600 
    220 H220       -7.1316  -23.7332  -53.0514 H         1 UNK         0.3000 
    221 H221       -8.2869  -22.5814  -50.6341 H         1 UNK         0.0600 
    222 H222       -8.3149  -21.6611  -53.5648 H         1 UNK         0.0600 
    223 H223       -9.5576  -22.6302  -52.7756 H         1 UNK         0.0600 
    224 H224       -9.2832  -20.9719  -52.2679 H         1 UNK         0.0600 
    225 H225       -7.6600  -20.6923  -49.6202 H         1 UNK         0.3000 
    226 H226       -4.9749  -19.7643  -49.8344 H         1 UNK         0.0600 
    227 H227       -6.2455  -19.7127  -47.7132 H         1 UNK         0.0600 
    228 H228       -5.7026  -18.0967  -48.1332 H         1 UNK         0.0600 
    229 H229       -7.3845  -18.5472  -48.3898 H         1 UNK         0.0600 
    230 H230       -7.9913  -18.5839  -51.2467 H         1 UNK         0.3000 
    231 H231       -7.0243  -16.0715  -52.2216 H         1 UNK         0.0600 
    232 H232       -9.0882  -16.1649  -53.6294 H         1 UNK         0.0600 
    233 H233       -9.4411  -16.5848  -51.9612 H         1 UNK         0.0600 
    234 H234       -9.3314  -17.8502  -53.1859 H         1 UNK         0.0600 
    235 H235       -6.7102  -19.3660  -53.4057 H         1 UNK         0.3000 
    236 H236       -5.6725  -18.5455  -56.0558 H         1 UNK         0.0600 
    237 H237       -7.2497  -20.4888  -55.8802 H         1 UNK         0.0600 
    238 H238       -5.6762  -20.9798  -56.4860 H         1 UNK         0.0600 
    239 H239       -6.1112  -21.3171  -54.8171 H         1 UNK         0.0600 
    240 H240       -4.5023  -18.9385  -52.8958 H         1 UNK         0.3000 
    241 H241       -2.5872  -19.1944  -51.9062 H         1 UNK         0.0600 
    242 H242       -4.0226  -21.5848  -52.7688 H         1 UNK         0.3800 
    243 H243       -2.8104  -22.8464  -52.8880 H         1 UNK         0.3800 
    244 H244       -0.8563  -18.9849  -54.3978 H         1 UNK         0.0800 
    245 H245       -1.7929  -17.6033  -53.9160 H         1 UNK         0.0800 
    246 H246        1.2757  -19.6793  -53.3117 H         1 UNK         0.0800 
    247 H247        1.6726  -18.0682  -53.8660 H         1 UNK         0.0800 
@<TRIPOS>BOND
     1    1    2 1    
     2    1  127 1    
     3    1  128 1    
     4    1  129 1    
     5    2    3 2    
     6    2    4 am   BACKBONE|DICT|INTERRES
     7    4    5 1    
     8    4  130 1    
     9    5    6 1    
    10    5   65 1    
    11    5  131 1    
    12    6    7 1    
    13    6  132 1    
    14    6  133 1    
    15    7    8 1    
    16    8    9 1    
    17    8  134 1    
    18    8  135 1    
    19    9   10 ar   
    20    9   14 ar   
    21   10   11 ar   
    22   10  136 1    
    23   11   12 ar   
    24   11  126 1    
    25   12   13 ar   
    26   12  137 1    
    27   13   14 ar   
    28   13   15 1    
    29   14  138 1    
    30   15   16 1    
    31   15  139 1    
    32   15  140 1    
    33   16   17 1    
    34   17   18 1    
    35   17  141 1    
    36   17  142 1    
    37   18   19 1    
    38   18   67 1    
    39   18  143 1    
    40   19   20 am   BACKBONE|DICT|INTERRES
    41   19  144 1    
    42   20   21 2    
    43   20   22 1    
    44   22   23 1    
    45   22   24 1    
    46   22  145 1    
    47   23  146 1    
    48   23  147 1    
    49   23  148 1    
    50   24   25 am   BACKBONE|DICT|INTERRES
    51   24  149 1    
    52   25   26 2    
    53   25   27 1    
    54   27   28 1    
    55   27   29 1    
    56   27  150 1    
    57   28  151 1    
    58   28  152 1    
    59   28  153 1    
    60   29   30 am   BACKBONE|DICT|INTERRES
    61   29  154 1    
    62   30   31 2    
    63   30   32 1    
    64   32   33 1    
    65   32   34 1    
    66   32  155 1    
    67   33  156 1    
    68   33  157 1    
    69   33  158 1    
    70   34   35 am   BACKBONE|DICT|INTERRES
    71   34  159 1    
    72   35   36 2    
    73   35   37 1    
    74   37   38 1    
    75   37   39 1    
    76   37  160 1    
    77   38  161 1    
    78   38  162 1    
    79   38  163 1    
    80   39   40 am   BACKBONE|DICT|INTERRES
    81   39  164 1    
    82   40   41 2    
    83   40   42 1    
    84   42   43 1    
    85   42   44 1    
    86   42  165 1    
    87   43  166 1    
    88   43  167 1    
    89   43  168 1    
    90   44   45 am   BACKBONE|DICT|INTERRES
    91   44  169 1    
    92   45   46 2    
    93   45   47 1    
    94   47   48 1    
    95   47   49 1    
    96   47  170 1    
    97   48  171 1    
    98   48  172 1    
    99   48  173 1    
   100   49   50 am   BACKBONE|DICT|INTERRES
   101   49  174 1    
   102   50   51 2    
   103   50   52 1    
   104   52   53 1    
   105   52   54 1    
   106   52  175 1    
   107   53  176 1    
   108   53  177 1    
   109   53  178 1    
   110   54   55 am   BACKBONE|DICT|INTERRES
   111   54  179 1    
   112   55   56 2    
   113   55   57 1    
   114   57   58 1    
   115   57   59 1    
   116   57  180 1    
   117   58  181 1    
   118   58  182 1    
   119   58  183 1    
   120   59   60 am   BACKBONE|DICT|INTERRES
   121   59  184 1    
   122   60   61 2    
   123   60   62 1    
   124   62   63 1    
   125   62   64 1    
   126   62  185 1    
   127   63  186 1    
   128   63  187 1    
   129   63  188 1    
   130   64   65 am   BACKBONE|DICT|INTERRES
   131   64  189 1    
   132   65   66 2    
   133   67   68 2    
   134   67   69 am   BACKBONE|DICT|INTERRES
   135   69   70 1    
   136   69  190 1    
   137   70   71 1    
   138   70   72 1    
   139   70  191 1    
   140   71  192 1    
   141   71  193 1    
   142   71  194 1    
   143   72   73 2    
   144   72   74 am   BACKBONE|DICT|INTERRES
   145   74   75 1    
   146   74  195 1    
   147   75   76 1    
   148   75   77 1    
   149   75  196 1    
   150   76  197 1    
   151   76  198 1    
   152   76  199 1    
   153   77   78 2    
   154   77   79 am   BACKBONE|DICT|INTERRES
   155   79   80 1    
   156   79  200 1    
   157   80   81 1    
   158   80   82 1    
   159   80  201 1    
   160   81  202 1    
   161   81  203 1    
   162   81  204 1    
   163   82   83 2    
   164   82   84 am   BACKBONE|DICT|INTERRES
   165   84   85 1    
   166   84  205 1    
   167   85   86 1    
   168   85   87 1    
   169   85  206 1    
   170   86  207 1    
   171   86  208 1    
   172   86  209 1    
   173   87   88 2    
   174   87   89 am   BACKBONE|DICT|INTERRES
   175   89   90 1    
   176   89  210 1    
   177   90   91 1    
   178   90   92 1    
   179   90  211 1    
   180   91  212 1    
   181   91  213 1    
   182   91  214 1    
   183   92   93 2    
   184   92   94 am   BACKBONE|DICT|INTERRES
   185   94   95 1    
   186   94  215 1    
   187   95   96 1    
   188   95   97 1    
   189   95  216 1    
   190   96  217 1    
   191   96  218 1    
   192   96  219 1    
   193   97   98 2    
   194   97   99 am   BACKBONE|DICT|INTERRES
   195   99  100 1    
   196   99  220 1    
   197  100  101 1    
   198  100  102 1    
   199  100  221 1    
   200  101  222 1    
   201  101  223 1    
   202  101  224 1    
   203  102  103 2    
   204  102  104 am   BACKBONE|DICT|INTERRES
   205  104  105 1    
   206  104  225 1    
   207  105  106 1    
   208  105  107 1    
   209  105  226 1    
   210  106  227 1    
   211  106  228 1    
   212  106  229 1    
   213  107  108 2    
   214  107  109 am   BACKBONE|DICT|INTERRES
   215  109  110 1    
   216  109  230 1    
   217  110  111 1    
   218  110  112 1    
   219  110  231 1    
   220  111  232 1    
   221  111  233 1    
   222  111  234 1    
   223  112  113 2    
   224  112  114 am   BACKBONE|DICT|INTERRES
   225  114  115 1    
   226  114  235 1    
   227  115  116 1    
   228  115  117 1    
   229  115  236 1    
   230  116  237 1    
   231  116  238 1    
   232  116  239 1    
   233  117  118 2    
   234  117  119 am   BACKBONE|DICT|INTERRES
   235  119  120 1    
   236  119  240 1    
   237  120  121 1    
   238  120  124 1    
   239  120  241 1    
   240  121  122 am   BACKBONE|DICT|INTERRES
   241  121  123 2    
   242  122  242 1    
   243  122  243 1    
   244  124  125 1    
   245  124  244 1    
   246  124  245 1    
   247  125  126 1    
   248  126  246 1    
   249  126  247 1    
@<TRIPOS>SUBSTRUCTURE
     1 UNK         1 GROUP             0       ****    0 ROOT    
