@<TRIPOS>MOLECULE
3R540
247   249    1
SMALL
USER_CHARGES


@<TRIPOS>ATOM
      1 CA         -1.4045  -11.4914  -53.0781 C.3       0 UNK        -0.1800 
      2 C          -1.6735  -11.5591  -51.5813 C.2       0 UNK         0.5000 
      3 O          -0.7436  -11.4380  -50.7840 O.2       0 UNK        -0.5000 
      4 N          -2.9437  -11.7492  -51.2033 N.am      1 UNK        -0.5000 
      5 CA         -3.4197  -11.7474  -49.8147 C.3       1 UNK         0.1400 
      6 C6         -4.8219  -12.4119  -49.7108 C.3       23 UNK        -0.0398 
      7 S7         -4.7315  -14.0571  -48.9310 S.3       23 UNK        -0.2404 
      8 C8         -4.4218  -15.1375  -50.3633 C.3       23 UNK        -0.0205 
      9 C9         -3.1321  -15.9293  -50.2050 C.ar      23 UNK        -0.0193 
     10 C10        -2.0482  -15.7082  -51.0599 C.ar      23 UNK        -0.1150 
     11 C11        -0.8904  -16.4956  -50.9671 C.ar      23 UNK        -0.0193 
     12 C12        -0.8216  -17.4811  -49.9768 C.ar      23 UNK        -0.1150 
     13 C13        -1.8875  -17.6958  -49.1007 C.ar      23 UNK        -0.0193 
     14 C14        -3.0411  -16.9185  -49.2241 C.ar      23 UNK        -0.1150 
     15 C15        -1.7826  -18.7462  -48.0066 C.3       23 UNK        -0.0205 
     16 S16        -3.1188  -19.9755  -48.0934 S.3       23 UNK        -0.2404 
     17 C17        -3.1231  -20.6200  -46.3879 C.3       23 UNK        -0.0398 
     18 CA         -2.5732  -22.0664  -46.3006 C.3       11 UNK         0.1400 
     19 N          -1.1364  -22.1203  -46.0041 N.am      11 UNK        -0.5000 
     20 C          -0.4064  -23.2461  -46.0094 C.2       10 UNK         0.5000 
     21 O          -0.8527  -24.3437  -46.3335 O.2       10 UNK        -0.5000 
     22 CA          1.0408  -23.1560  -45.4987 C.3       10 UNK         0.1400 
     23 CB          1.9793  -22.6005  -46.5804 C.3       10 UNK        -0.1800 
     24 N           1.1425  -22.3637  -44.2734 N.am      10 UNK        -0.5000 
     25 C           0.5606  -22.6924  -43.1105 C.2       9 UNK         0.5000 
     26 O          -0.0636  -23.7383  -42.9333 O.2       9 UNK        -0.5000 
     27 CA          0.6431  -21.6625  -41.9694 C.3       9 UNK         0.1400 
     28 CB          1.9616  -21.8010  -41.1940 C.3       9 UNK        -0.1800 
     29 N           0.4895  -20.2882  -42.4488 N.am      9 UNK        -0.5000 
     30 C          -0.6497  -19.7808  -42.9423 C.2       8 UNK         0.5000 
     31 O          -1.7072  -20.4083  -43.0069 O.2       8 UNK        -0.5000 
     32 CA         -0.5761  -18.3503  -43.5128 C.3       8 UNK         0.1400 
     33 CB         -0.7333  -17.3065  -42.3981 C.3       8 UNK        -0.1800 
     34 N           0.6666  -18.0946  -44.2443 N.am      8 UNK        -0.5000 
     35 C           1.0475  -18.7669  -45.3390 C.2       7 UNK         0.5000 
     36 O           0.3663  -19.6464  -45.8631 O.2       7 UNK        -0.5000 
     37 CA          2.4456  -18.4536  -45.8985 C.3       7 UNK         0.1400 
     38 CB          2.4299  -17.1621  -46.7300 C.3       7 UNK        -0.1800 
     39 N           3.4556  -18.3631  -44.8405 N.am      7 UNK        -0.5000 
     40 C           3.8316  -19.3849  -44.0585 C.2       6 UNK         0.5000 
     41 O           3.3895  -20.5251  -44.1898 O.2       6 UNK        -0.5000 
     42 CA          4.8125  -19.0999  -42.9017 C.3       6 UNK         0.1400 
     43 CB          6.2781  -19.2368  -43.3566 C.3       6 UNK        -0.1800 
     44 N           4.5579  -17.8316  -42.2028 N.am      6 UNK        -0.5000 
     45 C           4.7418  -16.5853  -42.6545 C.2       5 UNK         0.5000 
     46 O           5.2683  -16.3132  -43.7362 O.2       5 UNK        -0.5000 
     47 CA          4.1865  -15.4516  -41.7692 C.3       5 UNK         0.1400 
     48 CB          5.2962  -14.8598  -40.8878 C.3       5 UNK        -0.1800 
     49 N           3.5922  -14.3837  -42.5765 N.am      5 UNK        -0.5000 
     50 C           2.5943  -14.5567  -43.4543 C.2       4 UNK         0.5000 
     51 O           1.9678  -15.6150  -43.5694 O.2       4 UNK        -0.5000 
     52 CA          2.2950  -13.3608  -44.3806 C.3       4 UNK         0.1400 
     53 CB          3.5384  -12.9746  -45.2024 C.3       4 UNK        -0.1800 
     54 N           1.2146  -13.6587  -45.3181 N.am      4 UNK        -0.5000 
     55 C          -0.0894  -13.5984  -45.0348 C.2       3 UNK         0.5000 
     56 O          -0.5486  -13.2265  -43.9518 O.2       3 UNK        -0.5000 
     57 CA         -1.0387  -14.0444  -46.1619 C.3       3 UNK         0.1400 
     58 CB         -1.5465  -15.4714  -45.9092 C.3       3 UNK        -0.1800 
     59 N          -2.1840  -13.1480  -46.3053 N.am      3 UNK        -0.5000 
     60 C          -2.1087  -11.8724  -46.7022 C.2       2 UNK         0.5000 
     61 O          -1.0569  -11.2945  -46.9840 O.2       2 UNK        -0.5000 
     62 CA         -3.4486  -11.1254  -46.8207 C.3       2 UNK         0.1400 
     63 CB         -3.7807  -10.4249  -45.4943 C.3       2 UNK        -0.1800 
     64 N          -3.4454  -10.1222  -47.8904 N.am      2 UNK        -0.5000 
     65 C          -3.4120  -10.3110  -49.2200 C.2       1 UNK         0.5000 
     66 O          -3.4213   -9.3444  -49.9852 O.2       1 UNK        -0.5000 
     67 C          -3.4026  -22.9070  -45.3104 C.2       11 UNK         0.5000 
     68 O          -4.2972  -23.6265  -45.7520 O.2       11 UNK        -0.5000 
     69 N          -3.0910  -22.8344  -44.0092 N.am      12 UNK        -0.5000 
     70 CA         -3.7512  -23.6323  -42.9729 C.3       12 UNK         0.1400 
     71 CB         -3.2881  -23.1703  -41.5831 C.3       12 UNK        -0.1800 
     72 C          -3.5350  -25.1477  -43.1566 C.2       12 UNK         0.5000 
     73 O          -4.4856  -25.9172  -43.0129 O.2       12 UNK        -0.5000 
     74 N          -2.3028  -25.5422  -43.5040 N.am      13 UNK        -0.5000 
     75 CA         -1.9203  -26.9260  -43.7832 C.3       13 UNK         0.1400 
     76 CB         -0.3876  -27.0319  -43.8058 C.3       13 UNK        -0.1800 
     77 C          -2.5212  -27.4655  -45.0954 C.2       13 UNK         0.5000 
     78 O          -3.0072  -28.5967  -45.1215 O.2       13 UNK        -0.5000 
     79 N          -2.4749  -26.6526  -46.1589 N.am      14 UNK        -0.5000 
     80 CA         -2.9082  -27.0137  -47.5110 C.3       14 UNK         0.1400 
     81 CB         -2.1321  -26.1516  -48.5207 C.3       14 UNK        -0.1800 
     82 C          -4.4251  -26.8733  -47.7444 C.2       14 UNK         0.5000 
     83 O          -4.8887  -27.2153  -48.8319 O.2       14 UNK        -0.5000 
     84 N          -5.1641  -26.3478  -46.7563 N.am      15 UNK        -0.5000 
     85 CA         -6.5946  -26.0200  -46.8005 C.3       15 UNK         0.1400 
     86 CB         -7.4562  -27.2922  -46.9426 C.3       15 UNK        -0.1800 
     87 C          -6.8985  -24.9477  -47.8685 C.2       15 UNK         0.5000 
     88 O          -7.7576  -25.1377  -48.7304 O.2       15 UNK        -0.5000 
     89 N          -6.1365  -23.8490  -47.7906 N.am      16 UNK        -0.5000 
     90 CA         -6.1415  -22.6471  -48.6313 C.3       16 UNK         0.1400 
     91 CB         -7.5317  -21.9816  -48.6612 C.3       16 UNK        -0.1800 
     92 C          -5.5641  -22.8368  -50.0482 C.2       16 UNK         0.5000 
     93 O          -5.4455  -21.8508  -50.7750 O.2       16 UNK        -0.5000 
     94 N          -5.1675  -24.0626  -50.4228 N.am      17 UNK        -0.5000 
     95 CA         -4.6252  -24.3838  -51.7485 C.3       17 UNK         0.1400 
     96 CB         -4.5544  -25.9071  -51.9225 C.3       17 UNK        -0.1800 
     97 C          -3.2596  -23.7308  -52.0453 C.2       17 UNK         0.5000 
     98 O          -2.9161  -23.5598  -53.2150 O.2       17 UNK        -0.5000 
     99 N          -2.5258  -23.3280  -50.9962 N.am      18 UNK        -0.5000 
    100 CA        -1.2655  -22.5836  -51.0916 C.3       18 UNK         0.1400 
    101 CB        -0.6007  -22.5175  -49.7085 C.3       18 UNK        -0.1800 
    102 C         -1.4213  -21.1723  -51.6989 C.2       18 UNK         0.5000 
    103 O         -0.4349  -20.6171  -52.1841 O.2       18 UNK        -0.5000 
    104 N         -2.6537  -20.6383  -51.7292 N.am      19 UNK        -0.5000 
    105 CA        -3.0060  -19.3807  -52.3934 C.3       19 UNK         0.1400 
    106 CB        -4.4524  -19.0029  -52.0478 C.3       19 UNK        -0.1800 
    107 C         -2.7958  -19.4024  -53.9206 C.2       19 UNK         0.5000 
    108 O         -2.6779  -18.3362  -54.5256 O.2       19 UNK        -0.5000 
    109 N         -2.6893  -20.5995  -54.5186 N.am      20 UNK        -0.5000 
    110 CA        -2.3408  -20.8143  -55.9257 C.3       20 UNK         0.1400 
    111 CB        -2.4720  -22.3092  -56.2520 C.3       20 UNK        -0.1800 
    112 C         -0.9369  -20.2999  -56.3119 C.2       20 UNK         0.5000 
    113 O         -0.6929  -20.0635  -57.4954 O.2       20 UNK        -0.5000 
    114 N         -0.0488  -20.1092  -55.3227 N.am      21 UNK        -0.5000 
    115 CA         1.2543  -19.4627  -55.4980 C.3       21 UNK         0.1400 
    116 CB         2.1149  -19.7175  -54.2513 C.3       21 UNK        -0.1800 
    117 C          1.1386  -17.9485  -55.7732 C.2       21 UNK         0.5000 
    118 O          2.0175  -17.3850  -56.4268 O.2       21 UNK        -0.5000 
    119 N          0.0605  -17.3278  -55.2799 N.am      22 UNK        -0.5000 
    120 CA        -0.3062  -15.9289  -55.5342 C.3       22 UNK         0.1400 
    121 C         -1.2980  -15.8197  -56.7227 C.2       22 UNK         0.5000 
    122 N         -2.3231  -16.6608  -56.7909 N.am      22 UNK        -0.7600 
    123 O         -1.1352  -14.9676  -57.5915 O.2       22 UNK        -0.5000 
    124 C124       -0.9061  -15.2665  -54.2693 C.3       23 UNK        -0.0398 
    125 S125        0.3507  -14.8968  -52.9970 S.3       23 UNK        -0.2404 
    126 C126        0.2982  -16.3728  -51.9231 C.3       23 UNK        -0.0205 
    127 H127       -2.2165  -11.9362  -53.6538 H         1 UNK         0.0600 
    128 H128       -0.4852  -12.0222  -53.3238 H         1 UNK         0.0600 
    129 H129       -1.2900  -10.4534  -53.3903 H         1 UNK         0.0600 
    130 H130       -3.6611  -11.7929  -51.9120 H         1 UNK         0.3000 
    131 H131       -2.6941  -12.3414  -49.2607 H         1 UNK         0.0600 
    132 H132       -5.3125  -12.4899  -50.6821 H         1 UNK         0.0800 
    133 H133       -5.5125  -11.8218  -49.1050 H         1 UNK         0.0800 
    134 H134       -4.4000  -14.5569  -51.2862 H         1 UNK         0.0800 
    135 H135       -5.2553  -15.8340  -50.4648 H         1 UNK         0.0800 
    136 H136       -2.1302  -14.9346  -51.8072 H         1 UNK         0.1150 
    137 H137        0.0658  -18.0933  -49.8957 H         1 UNK         0.1150 
    138 H138       -3.8743  -17.0873  -48.5564 H         1 UNK         0.1150 
    139 H139       -0.8315  -19.2745  -48.0754 H         1 UNK         0.0800 
    140 H140       -1.7980  -18.2404  -47.0415 H         1 UNK         0.0800 
    141 H141       -4.1638  -20.5630  -46.0618 H         1 UNK         0.0800 
    142 H142       -2.5784  -19.9556  -45.7164 H         1 UNK         0.0800 
    143 H143       -2.7127  -22.5496  -47.2698 H         1 UNK         0.0600 
    144 H144       -0.6754  -21.2441  -45.7722 H         1 UNK         0.3000 
    145 H145        1.3706  -24.1694  -45.2607 H         1 UNK         0.0600 
    146 H146        3.0089  -22.5565  -46.2250 H         1 UNK         0.0600 
    147 H147        1.9669  -23.2368  -47.4661 H         1 UNK         0.0600 
    148 H148        1.6921  -21.5994  -46.8984 H         1 UNK         0.0600 
    149 H149        1.6956  -21.5142  -44.3245 H         1 UNK         0.3000 
    150 H150       -0.1756  -21.8688  -41.2769 H         1 UNK         0.0600 
    151 H151        2.0587  -22.8026  -40.7732 H         1 UNK         0.0600 
    152 H152        2.0092  -21.0949  -40.3650 H         1 UNK         0.0600 
    153 H153        2.8288  -21.6318  -41.8314 H         1 UNK         0.0600 
    154 H154        1.3187  -19.7153  -42.4719 H         1 UNK         0.3000 
    155 H155       -1.4058  -18.2297  -44.2121 H         1 UNK         0.0600 
    156 H156        0.0910  -17.3513  -41.6853 H         1 UNK         0.0600 
    157 H157       -1.6597  -17.4616  -41.8437 H         1 UNK         0.0600 
    158 H158       -0.7639  -16.2961  -42.8071 H         1 UNK         0.0600 
    159 H159        1.2527  -17.3351  -43.9044 H         1 UNK         0.3000 
    160 H160        2.7278  -19.2754  -46.5598 H         1 UNK         0.0600 
    161 H161        2.1779  -16.2932  -46.1242 H         1 UNK         0.0600 
    162 H162        1.6948  -17.2251  -47.5338 H         1 UNK         0.0600 
    163 H163        3.4008  -16.9785  -47.1901 H         1 UNK         0.0600 
    164 H164        3.8727  -17.4550  -44.6673 H         1 UNK         0.3000 
    165 H165        4.6390  -19.8762  -42.1549 H         1 UNK         0.0600 
    166 H166        6.5268  -18.5459  -44.1622 H         1 UNK         0.0600 
    167 H167        6.9665  -19.0545  -42.5315 H         1 UNK         0.0600 
    168 H168        6.4732  -20.2441  -43.7265 H         1 UNK         0.0600 
    169 H169        4.1084  -17.9358  -41.3035 H         1 UNK         0.3000 
    170 H170        3.4030  -15.8554  -41.1246 H         1 UNK         0.0600 
    171 H171        6.0958  -14.4227  -41.4875 H         1 UNK         0.0600 
    172 H172        4.9065  -14.0832  -40.2293 H         1 UNK         0.0600 
    173 H173        5.7433  -15.6272  -40.2546 H         1 UNK         0.0600 
    174 H174        4.0726  -13.4965  -42.5587 H         1 UNK         0.3000 
    175 H175        2.0065  -12.5115  -43.7579 H         1 UNK         0.0600 
    176 H176        3.9087  -13.8163  -45.7897 H         1 UNK         0.0600 
    177 H177        3.3182  -12.1577  -45.8901 H         1 UNK         0.0600 
    178 H178        4.3543  -12.6383  -44.5620 H         1 UNK         0.0600 
    179 H179        1.5002  -13.9966  -46.2246 H         1 UNK         0.3000 
    180 H180       -0.4962  -14.0394  -47.1101 H         1 UNK         0.0600 
    181 H181       -2.2277  -15.7914  -46.6968 H         1 UNK         0.0600 
    182 H182       -2.0731  -15.5510  -44.9574 H         1 UNK         0.0600 
    183 H183       -0.7170  -16.1782  -45.8879 H         1 UNK         0.0600 
    184 H184       -3.0840  -13.5379  -46.0665 H         1 UNK         0.3000 
    185 H185       -4.2408  -11.8467  -47.0210 H         1 UNK         0.0600 
    186 H186       -4.7525   -9.9326  -45.5393 H         1 UNK         0.0600 
    187 H187       -3.8188  -11.1403  -44.6716 H         1 UNK         0.0600 
    188 H188       -3.0338   -9.6721  -45.2385 H         1 UNK         0.0600 
    189 H189       -3.4186   -9.1680  -47.5640 H         1 UNK         0.3000 
    190 H190       -2.3789  -22.1791  -43.7032 H         1 UNK         0.3000 
    191 H191       -4.8242  -23.4425  -43.0468 H         1 UNK         0.0600 
    192 H192       -3.8170  -23.7115  -40.7976 H         1 UNK         0.0600 
    193 H193       -3.4834  -22.1081  -41.4349 H         1 UNK         0.0600 
    194 H194       -2.2222  -23.3384  -41.4338 H         1 UNK         0.0600 
    195 H195       -1.5647  -24.8456  -43.5524 H         1 UNK         0.3000 
    196 H196       -2.2892  -27.5505  -42.9669 H         1 UNK         0.0600 
    197 H197        0.0484  -26.4026  -44.5826 H         1 UNK         0.0600 
    198 H198        0.0417  -26.7270  -42.8512 H         1 UNK         0.0600 
    199 H199       -0.0683  -28.0576  -43.9944 H         1 UNK         0.0600 
    200 H200       -2.0116  -25.7504  -46.0675 H         1 UNK         0.3000 
    201 H201       -2.6484  -28.0585  -47.6931 H         1 UNK         0.0600 
    202 H202       -2.3190  -26.4766  -49.5432 H         1 UNK         0.0600 
    203 H203       -2.4130  -25.1005  -48.4487 H         1 UNK         0.0600 
    204 H204       -1.0566  -26.2233  -48.3578 H         1 UNK         0.0600 
    205 H205       -4.6729  -26.0456  -45.9253 H         1 UNK         0.3000 
    206 H206       -6.8341  -25.5693  -45.8361 H         1 UNK         0.0600 
    207 H207       -7.2210  -28.0154  -46.1618 H         1 UNK         0.0600 
    208 H208       -8.5168  -27.0536  -46.8558 H         1 UNK         0.0600 
    209 H209       -7.3115  -27.7806  -47.9066 H         1 UNK         0.0600 
    210 H210       -5.4511  -23.8276  -47.0344 H         1 UNK         0.3000 
    211 H211       -5.4663  -21.9507  -48.1335 H         1 UNK         0.0600 
    212 H212       -7.4855  -21.0065  -49.1477 H         1 UNK         0.0600 
    213 H213       -7.9149  -21.8219  -47.6535 H         1 UNK         0.0600 
    214 H214       -8.2593  -22.5811  -49.2085 H         1 UNK         0.0600 
    215 H215       -5.3120  -24.8358  -49.7880 H         1 UNK         0.3000 
    216 H216       -5.3279  -23.9986  -52.4904 H         1 UNK         0.0600 
    217 H217       -3.8503  -26.3617  -51.2279 H         1 UNK         0.0600 
    218 H218       -4.2328  -26.1696  -52.9311 H         1 UNK         0.0600 
    219 H219       -5.5286  -26.3693  -51.7614 H         1 UNK         0.0600 
    220 H220       -2.8897  -23.4923  -50.0707 H         1 UNK         0.3000 
    221 H221       -0.6030  -23.1438  -51.7545 H         1 UNK         0.0600 
    222 H222       -0.4435  -23.5131  -49.2932 H         1 UNK         0.0600 
    223 H223       -1.1998  -21.9481  -49.0014 H         1 UNK         0.0600 
    224 H224        0.3749  -22.0334  -49.7673 H         1 UNK         0.0600 
    225 H225       -3.4224  -21.1519  -51.3152 H         1 UNK         0.3000 
    226 H226       -2.3520  -18.6062  -51.9972 H         1 UNK         0.0600 
    227 H227       -5.1638  -19.7236  -52.4522 H         1 UNK         0.0600 
    228 H228       -4.5992  -18.9532  -50.9685 H         1 UNK         0.0600 
    229 H229       -4.7066  -18.0234  -52.4548 H         1 UNK         0.0600 
    230 H230       -2.7912  -21.4334  -53.9529 H         1 UNK         0.3000 
    231 H231       -3.0650  -20.2666  -56.5322 H         1 UNK         0.0600 
    232 H232       -1.7667  -22.9084  -55.6747 H         1 UNK         0.0600 
    233 H233       -2.2763  -22.4986  -57.3082 H         1 UNK         0.0600 
    234 H234       -3.4765  -22.6746  -56.0372 H         1 UNK         0.0600 
    235 H235       -0.3123  -20.3423  -54.3725 H         1 UNK         0.3000 
    236 H236        1.7522  -19.9201  -56.3555 H         1 UNK         0.0600 
    237 H237        1.6732  -19.2728  -53.3590 H         1 UNK         0.0600 
    238 H238        2.2377  -20.7849  -54.0672 H         1 UNK         0.0600 
    239 H239        3.1114  -19.2906  -54.3712 H         1 UNK         0.0600 
    240 H240       -0.6452  -17.8832  -54.8147 H         1 UNK         0.3000 
    241 H241        0.5853  -15.3639  -55.8144 H         1 UNK         0.0600 
    242 H242       -2.9672  -16.5972  -57.5627 H         1 UNK         0.3800 
    243 H243       -2.4967  -17.3258  -56.0408 H         1 UNK         0.3800 
    244 H244       -1.6981  -15.8892  -53.8524 H         1 UNK         0.0800 
    245 H245       -1.3758  -14.3146  -54.5233 H         1 UNK         0.0800 
    246 H246        0.3402  -17.2688  -52.5422 H         1 UNK         0.0800 
    247 H247        1.2152  -16.3713  -51.3321 H         1 UNK         0.0800 
@<TRIPOS>BOND
     1    1    2 1    
     2    1  127 1    
     3    1  128 1    
     4    1  129 1    
     5    2    3 2    
     6    2    4 am   BACKBONE|DICT|INTERRES
     7    4    5 1    
     8    4  130 1    
     9    5    6 1    
    10    5   65 1    
    11    5  131 1    
    12    6    7 1    
    13    6  132 1    
    14    6  133 1    
    15    7    8 1    
    16    8    9 1    
    17    8  134 1    
    18    8  135 1    
    19    9   10 ar   
    20    9   14 ar   
    21   10   11 ar   
    22   10  136 1    
    23   11   12 ar   
    24   11  126 1    
    25   12   13 ar   
    26   12  137 1    
    27   13   14 ar   
    28   13   15 1    
    29   14  138 1    
    30   15   16 1    
    31   15  139 1    
    32   15  140 1    
    33   16   17 1    
    34   17   18 1    
    35   17  141 1    
    36   17  142 1    
    37   18   19 1    
    38   18   67 1    
    39   18  143 1    
    40   19   20 am   BACKBONE|DICT|INTERRES
    41   19  144 1    
    42   20   21 2    
    43   20   22 1    
    44   22   23 1    
    45   22   24 1    
    46   22  145 1    
    47   23  146 1    
    48   23  147 1    
    49   23  148 1    
    50   24   25 am   BACKBONE|DICT|INTERRES
    51   24  149 1    
    52   25   26 2    
    53   25   27 1    
    54   27   28 1    
    55   27   29 1    
    56   27  150 1    
    57   28  151 1    
    58   28  152 1    
    59   28  153 1    
    60   29   30 am   BACKBONE|DICT|INTERRES
    61   29  154 1    
    62   30   31 2    
    63   30   32 1    
    64   32   33 1    
    65   32   34 1    
    66   32  155 1    
    67   33  156 1    
    68   33  157 1    
    69   33  158 1    
    70   34   35 am   BACKBONE|DICT|INTERRES
    71   34  159 1    
    72   35   36 2    
    73   35   37 1    
    74   37   38 1    
    75   37   39 1    
    76   37  160 1    
    77   38  161 1    
    78   38  162 1    
    79   38  163 1    
    80   39   40 am   BACKBONE|DICT|INTERRES
    81   39  164 1    
    82   40   41 2    
    83   40   42 1    
    84   42   43 1    
    85   42   44 1    
    86   42  165 1    
    87   43  166 1    
    88   43  167 1    
    89   43  168 1    
    90   44   45 am   BACKBONE|DICT|INTERRES
    91   44  169 1    
    92   45   46 2    
    93   45   47 1    
    94   47   48 1    
    95   47   49 1    
    96   47  170 1    
    97   48  171 1    
    98   48  172 1    
    99   48  173 1    
   100   49   50 am   BACKBONE|DICT|INTERRES
   101   49  174 1    
   102   50   51 2    
   103   50   52 1    
   104   52   53 1    
   105   52   54 1    
   106   52  175 1    
   107   53  176 1    
   108   53  177 1    
   109   53  178 1    
   110   54   55 am   BACKBONE|DICT|INTERRES
   111   54  179 1    
   112   55   56 2    
   113   55   57 1    
   114   57   58 1    
   115   57   59 1    
   116   57  180 1    
   117   58  181 1    
   118   58  182 1    
   119   58  183 1    
   120   59   60 am   BACKBONE|DICT|INTERRES
   121   59  184 1    
   122   60   61 2    
   123   60   62 1    
   124   62   63 1    
   125   62   64 1    
   126   62  185 1    
   127   63  186 1    
   128   63  187 1    
   129   63  188 1    
   130   64   65 am   BACKBONE|DICT|INTERRES
   131   64  189 1    
   132   65   66 2    
   133   67   68 2    
   134   67   69 am   BACKBONE|DICT|INTERRES
   135   69   70 1    
   136   69  190 1    
   137   70   71 1    
   138   70   72 1    
   139   70  191 1    
   140   71  192 1    
   141   71  193 1    
   142   71  194 1    
   143   72   73 2    
   144   72   74 am   BACKBONE|DICT|INTERRES
   145   74   75 1    
   146   74  195 1    
   147   75   76 1    
   148   75   77 1    
   149   75  196 1    
   150   76  197 1    
   151   76  198 1    
   152   76  199 1    
   153   77   78 2    
   154   77   79 am   BACKBONE|DICT|INTERRES
   155   79   80 1    
   156   79  200 1    
   157   80   81 1    
   158   80   82 1    
   159   80  201 1    
   160   81  202 1    
   161   81  203 1    
   162   81  204 1    
   163   82   83 2    
   164   82   84 am   BACKBONE|DICT|INTERRES
   165   84   85 1    
   166   84  205 1    
   167   85   86 1    
   168   85   87 1    
   169   85  206 1    
   170   86  207 1    
   171   86  208 1    
   172   86  209 1    
   173   87   88 2    
   174   87   89 am   BACKBONE|DICT|INTERRES
   175   89   90 1    
   176   89  210 1    
   177   90   91 1    
   178   90   92 1    
   179   90  211 1    
   180   91  212 1    
   181   91  213 1    
   182   91  214 1    
   183   92   93 2    
   184   92   94 am   BACKBONE|DICT|INTERRES
   185   94   95 1    
   186   94  215 1    
   187   95   96 1    
   188   95   97 1    
   189   95  216 1    
   190   96  217 1    
   191   96  218 1    
   192   96  219 1    
   193   97   98 2    
   194   97   99 am   BACKBONE|DICT|INTERRES
   195   99  100 1    
   196   99  220 1    
   197  100  101 1    
   198  100  102 1    
   199  100  221 1    
   200  101  222 1    
   201  101  223 1    
   202  101  224 1    
   203  102  103 2    
   204  102  104 am   BACKBONE|DICT|INTERRES
   205  104  105 1    
   206  104  225 1    
   207  105  106 1    
   208  105  107 1    
   209  105  226 1    
   210  106  227 1    
   211  106  228 1    
   212  106  229 1    
   213  107  108 2    
   214  107  109 am   BACKBONE|DICT|INTERRES
   215  109  110 1    
   216  109  230 1    
   217  110  111 1    
   218  110  112 1    
   219  110  231 1    
   220  111  232 1    
   221  111  233 1    
   222  111  234 1    
   223  112  113 2    
   224  112  114 am   BACKBONE|DICT|INTERRES
   225  114  115 1    
   226  114  235 1    
   227  115  116 1    
   228  115  117 1    
   229  115  236 1    
   230  116  237 1    
   231  116  238 1    
   232  116  239 1    
   233  117  118 2    
   234  117  119 am   BACKBONE|DICT|INTERRES
   235  119  120 1    
   236  119  240 1    
   237  120  121 1    
   238  120  124 1    
   239  120  241 1    
   240  121  122 am   BACKBONE|DICT|INTERRES
   241  121  123 2    
   242  122  242 1    
   243  122  243 1    
   244  124  125 1    
   245  124  244 1    
   246  124  245 1    
   247  125  126 1    
   248  126  246 1    
   249  126  247 1    
@<TRIPOS>SUBSTRUCTURE
     1 UNK         1 GROUP             0       ****    0 ROOT    
