@<TRIPOS>MOLECULE
3R540
247   249    1
SMALL
USER_CHARGES


@<TRIPOS>ATOM
      1 CA         -1.1518  -11.5890  -43.3355 C.3       0 UNK        -0.1800 
      2 C          -1.1011  -11.2917  -44.8284 C.2       0 UNK         0.5000 
      3 O          -0.9419  -10.1355  -45.2220 O.2       0 UNK        -0.5000 
      4 N          -1.2522  -12.3288  -45.6613 N.am      1 UNK        -0.5000 
      5 CA         -1.1800  -12.2636  -47.1219 C.3       1 UNK         0.1400 
      6 C6         -1.9355  -13.4496  -47.7753 C.3       23 UNK        -0.0398 
      7 S7         -2.3853  -13.1028  -49.5092 S.3       23 UNK        -0.2404 
      8 C8         -1.3742  -14.3295  -50.4103 C.3       23 UNK        -0.0205 
      9 C9         -1.8215  -15.7840  -50.2531 C.ar      23 UNK        -0.0193 
     10 C10        -3.1593  -16.1313  -50.0218 C.ar      23 UNK        -0.1150 
     11 C11        -3.5439  -17.4707  -49.9130 C.ar      23 UNK        -0.0193 
     12 C12        -2.5792  -18.4721  -50.0400 C.ar      23 UNK        -0.1150 
     13 C13        -1.2461  -18.1469  -50.3052 C.ar      23 UNK        -0.0193 
     14 C14        -0.8744  -16.8028  -50.4029 C.ar      23 UNK        -0.1150 
     15 C15        -0.2296  -19.2542  -50.5544 C.3       23 UNK        -0.0205 
     16 S16         1.1640  -19.2613  -49.3820 S.3       23 UNK        -0.2404 
     17 C17         0.3385  -19.3655  -47.7627 C.3       23 UNK        -0.0398 
     18 CA         -0.0517  -20.8088  -47.3412 C.3       11 UNK         0.1400 
     19 N           0.1615  -21.0301  -45.9064 N.am      11 UNK        -0.5000 
     20 C          -0.0197  -22.1870  -45.2536 C.2       10 UNK         0.5000 
     21 O          -0.3213  -23.2442  -45.8051 O.2       10 UNK        -0.5000 
     22 CA          0.0945  -22.1417  -43.7172 C.3       10 UNK         0.1400 
     23 CB          1.5579  -22.2463  -43.2632 C.3       10 UNK        -0.1800 
     24 N          -0.5217  -20.9414  -43.1465 N.am      10 UNK        -0.5000 
     25 C          -1.8335  -20.6689  -43.2131 C.2       9 UNK         0.5000 
     26 O          -2.6637  -21.4351  -43.7006 O.2       9 UNK        -0.5000 
     27 CA         -2.2914  -19.2906  -42.7038 C.3       9 UNK         0.1400 
     28 CB         -2.4456  -19.2947  -41.1760 C.3       9 UNK        -0.1800 
     29 N          -1.3908  -18.2123  -43.1152 N.am      9 UNK        -0.5000 
     30 C          -1.1718  -17.8561  -44.3897 C.2       8 UNK         0.5000 
     31 O          -1.7585  -18.3582  -45.3472 O.2       8 UNK        -0.5000 
     32 CA         -0.0754  -16.8075  -44.6483 C.3       8 UNK         0.1400 
     33 CB         -0.6147  -15.3852  -44.4519 C.3       8 UNK        -0.1800 
     34 N           1.0997  -17.0039  -43.8023 N.am      8 UNK        -0.5000 
     35 C           1.8970  -18.0792  -43.8324 C.2       7 UNK         0.5000 
     36 O           1.7529  -19.0134  -44.6181 O.2       7 UNK        -0.5000 
     37 CA          3.0035  -18.1495  -42.7680 C.3       7 UNK         0.1400 
     38 CB          4.2185  -17.3004  -43.1689 C.3       7 UNK        -0.1800 
     39 N           2.5181  -17.7251  -41.4561 N.am      7 UNK        -0.5000 
     40 C           1.6594  -18.4273  -40.7048 C.2       6 UNK         0.5000 
     41 O           1.2124  -19.5287  -41.0270 O.2       6 UNK        -0.5000 
     42 CA          1.2024  -17.7709  -39.3884 C.3       6 UNK         0.1400 
     43 CB          2.2233  -18.0317  -38.2710 C.3       6 UNK        -0.1800 
     44 N           0.9849  -16.3279  -39.5197 N.am      6 UNK        -0.5000 
     45 C          -0.0092  -15.7812  -40.2329 C.2       5 UNK         0.5000 
     46 O          -0.8513  -16.4378  -40.8439 O.2       5 UNK        -0.5000 
     47 CA         -0.0416  -14.2428  -40.3212 C.3       5 UNK         0.1400 
     48 CB         -0.7251  -13.6431  -39.0836 C.3       5 UNK        -0.1800 
     49 N           1.2710  -13.6125  -40.5076 N.am      5 UNK        -0.5000 
     50 C           2.1211  -13.8963  -41.5030 C.2       4 UNK         0.5000 
     51 O           1.9417  -14.8108  -42.3083 O.2       4 UNK        -0.5000 
     52 CA          3.4000  -13.0409  -41.5987 C.3       4 UNK         0.1400 
     53 CB          4.4689  -13.5797  -40.6354 C.3       4 UNK        -0.1800 
     54 N           3.9532  -13.0357  -42.9566 N.am      4 UNK        -0.5000 
     55 C           3.3195  -12.5577  -44.0362 C.2       3 UNK         0.5000 
     56 O           2.2553  -11.9359  -43.9777 O.2       3 UNK        -0.5000 
     57 CA          3.9788  -12.8573  -45.3988 C.3       3 UNK         0.1400 
     58 CB          4.0594  -14.3733  -45.6516 C.3       3 UNK        -0.1800 
     59 N           3.2221  -12.2593  -46.4942 N.am      3 UNK        -0.5000 
     60 C           3.2571  -10.9768  -46.8654 C.2       2 UNK         0.5000 
     61 O           4.0591  -10.1567  -46.4156 O.2       2 UNK        -0.5000 
     62 CA          2.2045  -10.5250  -47.8983 C.3       2 UNK         0.1400 
     63 CB          2.6046  -10.9363  -49.3285 C.3       2 UNK        -0.1800 
     64 N           0.8303  -10.9414  -47.5785 N.am      2 UNK        -0.5000 
     65 C           0.2965  -12.1716  -47.5611 C.2       1 UNK         0.5000 
     66 O           0.9264  -13.1999  -47.8166 O.2       1 UNK        -0.5000 
     67 C          -1.5045  -21.1309  -47.7506 C.2       11 UNK         0.5000 
     68 O          -1.7283  -21.8791  -48.7026 O.2       11 UNK        -0.5000 
     69 N          -2.4665  -20.5838  -46.9947 N.am      12 UNK        -0.5000 
     70 CA         -3.8974  -20.8009  -47.1849 C.3       12 UNK         0.1400 
     71 CB         -4.6904  -19.8600  -46.2665 C.3       12 UNK        -0.1800 
     72 C          -4.3183  -22.2638  -46.9745 C.2       12 UNK         0.5000 
     73 O          -5.1224  -22.7677  -47.7583 O.2       12 UNK        -0.5000 
     74 N          -3.7491  -22.9167  -45.9513 N.am      13 UNK        -0.5000 
     75 CA         -3.9615  -24.3297  -45.6347 C.3       13 UNK         0.1400 
     76 CB         -3.3808  -24.6364  -44.2461 C.3       13 UNK        -0.1800 
     77 C          -3.3736  -25.2839  -46.6910 C.2       13 UNK         0.5000 
     78 O          -3.9801  -26.3194  -46.9684 O.2       13 UNK        -0.5000 
     79 N          -2.2217  -24.9179  -47.2739 N.am      14 UNK        -0.5000 
     80 CA         -1.5897  -25.6299  -48.3889 C.3       14 UNK         0.1400 
     81 CB         -0.1703  -25.0862  -48.6106 C.3       14 UNK        -0.1800 
     82 C          -2.4140  -25.5575  -49.6889 C.2       14 UNK         0.5000 
     83 O          -2.3515  -26.4867  -50.4959 O.2       14 UNK        -0.5000 
     84 N          -3.1939  -24.4772  -49.8449 N.am      15 UNK        -0.5000 
     85 CA         -4.1773  -24.2422  -50.9020 C.3       15 UNK         0.1400 
     86 CB         -5.3875  -25.1836  -50.7079 C.3       15 UNK        -0.1800 
     87 C          -3.5335  -24.3220  -52.2991 C.2       15 UNK         0.5000 
     88 O          -2.5605  -23.6098  -52.5475 O.2       15 UNK        -0.5000 
     89 N          -4.0430  -25.2113  -53.1623 N.am      16 UNK        -0.5000 
     90 CA         -3.6065  -25.4351  -54.5429 C.3       16 UNK         0.1400 
     91 CB         -4.5187  -26.4978  -55.1754 C.3       16 UNK        -0.1800 
     92 C          -2.1222  -25.8287  -54.7128 C.2       16 UNK         0.5000 
     93 O          -1.5976  -25.7269  -55.8225 O.2       16 UNK        -0.5000 
     94 N          -1.4670  -26.2730  -53.6306 N.am      17 UNK        -0.5000 
     95 CA         -0.0347  -26.5664  -53.6025 C.3       17 UNK         0.1400 
     96 CB          0.2573  -27.5252  -52.4377 C.3       17 UNK        -0.1800 
     97 C           0.8442  -25.3029  -53.4908 C.2       17 UNK         0.5000 
     98 O           2.0388  -25.3917  -53.7786 O.2       17 UNK        -0.5000 
     99 N           0.2674  -24.1700  -53.0628 N.am      18 UNK        -0.5000 
    100 CA         0.9845  -22.9182  -52.8078 C.3       18 UNK         0.1400 
    101 CB         1.0018  -22.6595  -51.2935 C.3       18 UNK        -0.1800 
    102 C          0.3772  -21.7192  -53.5573 C.2       18 UNK         0.5000 
    103 O          1.1275  -20.8540  -54.0106 O.2       18 UNK        -0.5000 
    104 N         -0.9533  -21.6792  -53.6751 N.am      19 UNK        -0.5000 
    105 CA        -1.7266  -20.6418  -54.3520 C.3       19 UNK         0.1400 
    106 CB        -2.7550  -20.0858  -53.3522 C.3       19 UNK        -0.1800 
    107 C         -2.4478  -21.2230  -55.5780 C.2       19 UNK         0.5000 
    108 O         -2.4333  -22.4346  -55.7994 O.2       19 UNK        -0.5000 
    109 N         -3.1019  -20.3414  -56.3440 N.am      20 UNK        -0.5000 
    110 CA        -3.9861  -20.7106  -57.4535 C.3       20 UNK         0.1400 
    111 CB        -4.1390  -19.4987  -58.3863 C.3       20 UNK        -0.1800 
    112 C         -5.3712  -21.2043  -56.9812 C.2       20 UNK         0.5000 
    113 O         -6.0893  -21.8257  -57.7657 O.2       20 UNK        -0.5000 
    114 N         -5.7269  -20.9109  -55.7246 N.am      21 UNK        -0.5000 
    115 CA        -6.9857  -21.2732  -55.0831 C.3       21 UNK         0.1400 
    116 CB        -8.0698  -20.2291  -55.4289 C.3       21 UNK        -0.1800 
    117 C         -6.7256  -21.4600  -53.5777 C.2       21 UNK         0.5000 
    118 O         -5.8389  -22.2357  -53.2209 O.2       21 UNK        -0.5000 
    119 N         -7.4784  -20.7517  -52.7265 N.am      22 UNK        -0.5000 
    120 CA        -7.4283  -20.8252  -51.2548 C.3       22 UNK         0.1400 
    121 C         -7.9053  -22.2120  -50.7177 C.2       22 UNK         0.5000 
    122 N         -7.4044  -22.7159  -49.5976 N.am      22 UNK        -0.7600 
    123 O         -8.8011  -22.8276  -51.2920 O.2       22 UNK        -0.5000 
    124 C124       -6.0858  -20.3021  -50.6602 C.3       23 UNK        -0.0398 
    125 S125       -5.7453  -18.5785  -51.1750 S.3       23 UNK        -0.2404 
    126 C126       -5.0043  -17.8334  -49.6848 C.3       23 UNK        -0.0205 
    127 H127       -1.3533  -12.6419  -43.1398 H         1 UNK         0.0600 
    128 H128       -1.9359  -10.9994  -42.8607 H         1 UNK         0.0600 
    129 H129       -0.2010  -11.3332  -42.8682 H         1 UNK         0.0600 
    130 H130       -1.3534  -13.2538  -45.2719 H         1 UNK         0.3000 
    131 H131       -1.6821  -11.3450  -47.4351 H         1 UNK         0.0600 
    132 H132       -2.8730  -13.6243  -47.2457 H         1 UNK         0.0800 
    133 H133       -1.3776  -14.3847  -47.6972 H         1 UNK         0.0800 
    134 H134       -0.3348  -14.2205  -50.0961 H         1 UNK         0.0800 
    135 H135       -1.4013  -14.0811  -51.4719 H         1 UNK         0.0800 
    136 H136       -3.9120  -15.3609  -49.9395 H         1 UNK         0.1150 
    137 H137       -2.8784  -19.5087  -49.9802 H         1 UNK         0.1150 
    138 H138        0.1557  -16.5523  -50.6151 H         1 UNK         0.1150 
    139 H139       -0.7116  -20.2317  -50.5389 H         1 UNK         0.0800 
    140 H140        0.1699  -19.1378  -51.5628 H         1 UNK         0.0800 
    141 H141        1.0651  -18.9585  -47.0615 H         1 UNK         0.0800 
    142 H142       -0.5027  -18.6716  -47.7212 H         1 UNK         0.0800 
    143 H143        0.5993  -21.5177  -47.8572 H         1 UNK         0.0600 
    144 H144        0.4793  -20.2279  -45.3698 H         1 UNK         0.3000 
    145 H145       -0.4398  -23.0076  -43.3213 H         1 UNK         0.0600 
    146 H146        1.6321  -22.2659  -42.1758 H         1 UNK         0.0600 
    147 H147        2.0160  -23.1624  -43.6379 H         1 UNK         0.0600 
    148 H148        2.1573  -21.4107  -43.6228 H         1 UNK         0.0600 
    149 H149        0.0966  -20.2778  -42.6940 H         1 UNK         0.3000 
    150 H150       -3.2717  -19.0876  -43.1398 H         1 UNK         0.0600 
    151 H151       -3.1178  -20.0908  -40.8535 H         1 UNK         0.0600 
    152 H152       -2.8642  -18.3532  -40.8205 H         1 UNK         0.0600 
    153 H153       -1.4906  -19.4472  -40.6733 H         1 UNK         0.0600 
    154 H154       -0.9191  -17.7053  -42.3729 H         1 UNK         0.3000 
    155 H155        0.2426  -16.9077  -45.6880 H         1 UNK         0.0600 
    156 H156        0.1472  -14.6448  -44.6985 H         1 UNK         0.0600 
    157 H157       -0.9274  -15.2139  -43.4215 H         1 UNK         0.0600 
    158 H158       -1.4774  -15.2080  -45.0947 H         1 UNK         0.0600 
    159 H159        1.3236  -16.2538  -43.1497 H         1 UNK         0.3000 
    160 H160        3.3280  -19.1897  -42.6948 H         1 UNK         0.0600 
    161 H161        3.9761  -16.2390  -43.1980 H         1 UNK         0.0600 
    162 H162        4.5843  -17.5824  -44.1571 H         1 UNK         0.0600 
    163 H163        5.0408  -17.4351  -42.4663 H         1 UNK         0.0600 
    164 H164        2.7764  -16.7968  -41.1561 H         1 UNK         0.3000 
    165 H165        0.2563  -18.2333  -39.0988 H         1 UNK         0.0600 
    166 H166        3.1877  -17.5710  -38.4887 H         1 UNK         0.0600 
    167 H167        1.8715  -17.6399  -37.3165 H         1 UNK         0.0600 
    168 H168        2.3925  -19.1014  -38.1395 H         1 UNK         0.0600 
    169 H169        1.6411  -15.7175  -39.0554 H         1 UNK         0.3000 
    170 H170       -0.6457  -13.9870  -41.1933 H         1 UNK         0.0600 
    171 H171       -1.7115  -14.0830  -38.9300 H         1 UNK         0.0600 
    172 H172       -0.1432  -13.8168  -38.1776 H         1 UNK         0.0600 
    173 H173       -0.8650  -12.5675  -39.1926 H         1 UNK         0.0600 
    174 H174        1.4997  -12.8627  -39.8711 H         1 UNK         0.3000 
    175 H175        3.1544  -12.0130  -41.3246 H         1 UNK         0.0600 
    176 H176        5.3719  -12.9698  -40.6671 H         1 UNK         0.0600 
    177 H177        4.1109  -13.5717  -39.6051 H         1 UNK         0.0600 
    178 H178        4.7485  -14.6061  -40.8777 H         1 UNK         0.0600 
    179 H179        4.8121  -13.5484  -43.0870 H         1 UNK         0.3000 
    180 H180        4.9889  -12.4428  -45.3948 H         1 UNK         0.0600 
    181 H181        4.4176  -14.5885  -46.6586 H         1 UNK         0.0600 
    182 H182        4.7531  -14.8510  -44.9603 H         1 UNK         0.0600 
    183 H183        3.0869  -14.8544  -45.5327 H         1 UNK         0.0600 
    184 H184        2.4876  -12.8310  -46.9036 H         1 UNK         0.3000 
    185 H185        2.1904   -9.4344  -47.8690 H         1 UNK         0.0600 
    186 H186        1.8889  -10.5626  -50.0608 H         1 UNK         0.0600 
    187 H187        3.5811  -10.5268  -49.5897 H         1 UNK         0.0600 
    188 H188        2.6670  -12.0187  -49.4429 H         1 UNK         0.0600 
    189 H189        0.2388  -10.1940  -47.2364 H         1 UNK         0.3000 
    190 H190       -2.1998  -19.9377  -46.2554 H         1 UNK         0.3000 
    191 H191       -4.1273  -20.5455  -48.2193 H         1 UNK         0.0600 
    192 H192       -5.7629  -19.9590  -46.4382 H         1 UNK         0.0600 
    193 H193       -4.4252  -18.8177  -46.4446 H         1 UNK         0.0600 
    194 H194       -4.5047  -20.0738  -45.2139 H         1 UNK         0.0600 
    195 H195       -3.1470  -22.3971  -45.3187 H         1 UNK         0.3000 
    196 H196       -5.0389  -24.5035  -45.5971 H         1 UNK         0.0600 
    197 H197       -3.5501  -25.6786  -43.9727 H         1 UNK         0.0600 
    198 H198       -3.8471  -24.0187  -43.4784 H         1 UNK         0.0600 
    199 H199       -2.3059  -24.4579  -44.2121 H         1 UNK         0.0600 
    200 H200       -1.7422  -24.0900  -46.9338 H         1 UNK         0.3000 
    201 H201       -1.5086  -26.6831  -48.1129 H         1 UNK         0.0600 
    202 H202        0.4498  -25.2343  -47.7265 H         1 UNK         0.0600 
    203 H203       -0.1785  -24.0204  -48.8355 H         1 UNK         0.0600 
    204 H204        0.3206  -25.5935  -49.4417 H         1 UNK         0.0600 
    205 H205       -3.1078  -23.7394  -49.1576 H         1 UNK         0.3000 
    206 H206       -4.5260  -23.2169  -50.7794 H         1 UNK         0.0600 
    207 H207       -5.7960  -25.0819  -49.7025 H         1 UNK         0.0600 
    208 H208       -6.1902  -24.9415  -51.4058 H         1 UNK         0.0600 
    209 H209       -5.1233  -26.2329  -50.8441 H         1 UNK         0.0600 
    210 H210       -4.8229  -25.7703  -52.8502 H         1 UNK         0.3000 
    211 H211       -3.7594  -24.5000  -55.0818 H         1 UNK         0.0600 
    212 H212       -4.4404  -27.4538  -54.6562 H         1 UNK         0.0600 
    213 H213       -4.2557  -26.6686  -56.2202 H         1 UNK         0.0600 
    214 H214       -5.5632  -26.1859  -55.1534 H         1 UNK         0.0600 
    215 H215       -1.9608  -26.3322  -52.7479 H         1 UNK         0.3000 
    216 H216        0.2369  -27.0752  -54.5298 H         1 UNK         0.0600 
    217 H217        1.3017  -27.8396  -52.4446 H         1 UNK         0.0600 
    218 H218       -0.3535  -28.4258  -52.5022 H         1 UNK         0.0600 
    219 H219        0.0654  -27.0567  -51.4726 H         1 UNK         0.0600 
    220 H220       -0.7314  -24.1649  -52.8794 H         1 UNK         0.3000 
    221 H221        2.0208  -22.9978  -53.1421 H         1 UNK         0.0600 
    222 H222       -0.0077  -22.5697  -50.8899 H         1 UNK         0.0600 
    223 H223        1.5039  -23.4679  -50.7623 H         1 UNK         0.0600 
    224 H224        1.5375  -21.7392  -51.0615 H         1 UNK         0.0600 
    225 H225       -1.5131  -22.4450  -53.3023 H         1 UNK         0.3000 
    226 H226       -1.0800  -19.8293  -54.6890 H         1 UNK         0.0600 
    227 H227       -2.2558  -19.6712  -52.4818 H         1 UNK         0.0600 
    228 H228       -3.3533  -19.2835  -53.7847 H         1 UNK         0.0600 
    229 H229       -3.4393  -20.8598  -53.0025 H         1 UNK         0.0600 
    230 H230       -3.0521  -19.3581  -56.1184 H         1 UNK         0.3000 
    231 H231       -3.5235  -21.5207  -58.0215 H         1 UNK         0.0600 
    232 H232       -4.7650  -19.7432  -59.2455 H         1 UNK         0.0600 
    233 H233       -3.1728  -19.1737  -58.7728 H         1 UNK         0.0600 
    234 H234       -4.5997  -18.6523  -57.8753 H         1 UNK         0.0600 
    235 H235       -5.0537  -20.4527  -55.1282 H         1 UNK         0.3000 
    236 H236       -7.3112  -22.2459  -55.4576 H         1 UNK         0.0600 
    237 H237       -7.7971  -19.2314  -55.0825 H         1 UNK         0.0600 
    238 H238       -8.2256  -20.1707  -56.5063 H         1 UNK         0.0600 
    239 H239       -9.0310  -20.4923  -54.9858 H         1 UNK         0.0600 
    240 H240       -8.1910  -20.1469  -53.1070 H         1 UNK         0.3000 
    241 H241       -8.2047  -20.1393  -50.9142 H         1 UNK         0.0600 
    242 H242       -7.7748  -23.5956  -49.2766 H         1 UNK         0.3800 
    243 H243       -6.6398  -22.3068  -49.0770 H         1 UNK         0.3800 
    244 H244       -5.2473  -20.9308  -50.9606 H         1 UNK         0.0800 
    245 H245       -6.1289  -20.3383  -49.5723 H         1 UNK         0.0800 
    246 H246       -5.0865  -18.4952  -48.8254 H         1 UNK         0.0800 
    247 H247       -5.5795  -16.9430  -49.4271 H         1 UNK         0.0800 
@<TRIPOS>BOND
     1    1    2 1    
     2    1  127 1    
     3    1  128 1    
     4    1  129 1    
     5    2    3 2    
     6    2    4 am   BACKBONE|DICT|INTERRES
     7    4    5 1    
     8    4  130 1    
     9    5    6 1    
    10    5   65 1    
    11    5  131 1    
    12    6    7 1    
    13    6  132 1    
    14    6  133 1    
    15    7    8 1    
    16    8    9 1    
    17    8  134 1    
    18    8  135 1    
    19    9   10 ar   
    20    9   14 ar   
    21   10   11 ar   
    22   10  136 1    
    23   11   12 ar   
    24   11  126 1    
    25   12   13 ar   
    26   12  137 1    
    27   13   14 ar   
    28   13   15 1    
    29   14  138 1    
    30   15   16 1    
    31   15  139 1    
    32   15  140 1    
    33   16   17 1    
    34   17   18 1    
    35   17  141 1    
    36   17  142 1    
    37   18   19 1    
    38   18   67 1    
    39   18  143 1    
    40   19   20 am   BACKBONE|DICT|INTERRES
    41   19  144 1    
    42   20   21 2    
    43   20   22 1    
    44   22   23 1    
    45   22   24 1    
    46   22  145 1    
    47   23  146 1    
    48   23  147 1    
    49   23  148 1    
    50   24   25 am   BACKBONE|DICT|INTERRES
    51   24  149 1    
    52   25   26 2    
    53   25   27 1    
    54   27   28 1    
    55   27   29 1    
    56   27  150 1    
    57   28  151 1    
    58   28  152 1    
    59   28  153 1    
    60   29   30 am   BACKBONE|DICT|INTERRES
    61   29  154 1    
    62   30   31 2    
    63   30   32 1    
    64   32   33 1    
    65   32   34 1    
    66   32  155 1    
    67   33  156 1    
    68   33  157 1    
    69   33  158 1    
    70   34   35 am   BACKBONE|DICT|INTERRES
    71   34  159 1    
    72   35   36 2    
    73   35   37 1    
    74   37   38 1    
    75   37   39 1    
    76   37  160 1    
    77   38  161 1    
    78   38  162 1    
    79   38  163 1    
    80   39   40 am   BACKBONE|DICT|INTERRES
    81   39  164 1    
    82   40   41 2    
    83   40   42 1    
    84   42   43 1    
    85   42   44 1    
    86   42  165 1    
    87   43  166 1    
    88   43  167 1    
    89   43  168 1    
    90   44   45 am   BACKBONE|DICT|INTERRES
    91   44  169 1    
    92   45   46 2    
    93   45   47 1    
    94   47   48 1    
    95   47   49 1    
    96   47  170 1    
    97   48  171 1    
    98   48  172 1    
    99   48  173 1    
   100   49   50 am   BACKBONE|DICT|INTERRES
   101   49  174 1    
   102   50   51 2    
   103   50   52 1    
   104   52   53 1    
   105   52   54 1    
   106   52  175 1    
   107   53  176 1    
   108   53  177 1    
   109   53  178 1    
   110   54   55 am   BACKBONE|DICT|INTERRES
   111   54  179 1    
   112   55   56 2    
   113   55   57 1    
   114   57   58 1    
   115   57   59 1    
   116   57  180 1    
   117   58  181 1    
   118   58  182 1    
   119   58  183 1    
   120   59   60 am   BACKBONE|DICT|INTERRES
   121   59  184 1    
   122   60   61 2    
   123   60   62 1    
   124   62   63 1    
   125   62   64 1    
   126   62  185 1    
   127   63  186 1    
   128   63  187 1    
   129   63  188 1    
   130   64   65 am   BACKBONE|DICT|INTERRES
   131   64  189 1    
   132   65   66 2    
   133   67   68 2    
   134   67   69 am   BACKBONE|DICT|INTERRES
   135   69   70 1    
   136   69  190 1    
   137   70   71 1    
   138   70   72 1    
   139   70  191 1    
   140   71  192 1    
   141   71  193 1    
   142   71  194 1    
   143   72   73 2    
   144   72   74 am   BACKBONE|DICT|INTERRES
   145   74   75 1    
   146   74  195 1    
   147   75   76 1    
   148   75   77 1    
   149   75  196 1    
   150   76  197 1    
   151   76  198 1    
   152   76  199 1    
   153   77   78 2    
   154   77   79 am   BACKBONE|DICT|INTERRES
   155   79   80 1    
   156   79  200 1    
   157   80   81 1    
   158   80   82 1    
   159   80  201 1    
   160   81  202 1    
   161   81  203 1    
   162   81  204 1    
   163   82   83 2    
   164   82   84 am   BACKBONE|DICT|INTERRES
   165   84   85 1    
   166   84  205 1    
   167   85   86 1    
   168   85   87 1    
   169   85  206 1    
   170   86  207 1    
   171   86  208 1    
   172   86  209 1    
   173   87   88 2    
   174   87   89 am   BACKBONE|DICT|INTERRES
   175   89   90 1    
   176   89  210 1    
   177   90   91 1    
   178   90   92 1    
   179   90  211 1    
   180   91  212 1    
   181   91  213 1    
   182   91  214 1    
   183   92   93 2    
   184   92   94 am   BACKBONE|DICT|INTERRES
   185   94   95 1    
   186   94  215 1    
   187   95   96 1    
   188   95   97 1    
   189   95  216 1    
   190   96  217 1    
   191   96  218 1    
   192   96  219 1    
   193   97   98 2    
   194   97   99 am   BACKBONE|DICT|INTERRES
   195   99  100 1    
   196   99  220 1    
   197  100  101 1    
   198  100  102 1    
   199  100  221 1    
   200  101  222 1    
   201  101  223 1    
   202  101  224 1    
   203  102  103 2    
   204  102  104 am   BACKBONE|DICT|INTERRES
   205  104  105 1    
   206  104  225 1    
   207  105  106 1    
   208  105  107 1    
   209  105  226 1    
   210  106  227 1    
   211  106  228 1    
   212  106  229 1    
   213  107  108 2    
   214  107  109 am   BACKBONE|DICT|INTERRES
   215  109  110 1    
   216  109  230 1    
   217  110  111 1    
   218  110  112 1    
   219  110  231 1    
   220  111  232 1    
   221  111  233 1    
   222  111  234 1    
   223  112  113 2    
   224  112  114 am   BACKBONE|DICT|INTERRES
   225  114  115 1    
   226  114  235 1    
   227  115  116 1    
   228  115  117 1    
   229  115  236 1    
   230  116  237 1    
   231  116  238 1    
   232  116  239 1    
   233  117  118 2    
   234  117  119 am   BACKBONE|DICT|INTERRES
   235  119  120 1    
   236  119  240 1    
   237  120  121 1    
   238  120  124 1    
   239  120  241 1    
   240  121  122 am   BACKBONE|DICT|INTERRES
   241  121  123 2    
   242  122  242 1    
   243  122  243 1    
   244  124  125 1    
   245  124  244 1    
   246  124  245 1    
   247  125  126 1    
   248  126  246 1    
   249  126  247 1    
@<TRIPOS>SUBSTRUCTURE
     1 UNK         1 GROUP             0       ****    0 ROOT    
